60

C    5.5867037   -3.0259295   -9.3846839  
C    5.8454844   -2.2359977  -10.4808165  
C    5.4653249   -0.9055736  -10.1343323  
C    4.9776775   -0.9454139   -8.8029647  
N    5.0635230   -2.2480998   -8.3783974  
C    4.5142049    0.1908603   -8.1329929  
C    4.5438271    1.3892362   -8.8194299  
O    4.1034029    2.5297039   -8.2124929  
C    5.0264148    1.4491755  -10.1484650  
O    4.9912799    2.7149926  -10.6960182  
C    5.4835451    0.3285655  -10.8101230  
H    6.2565452   -2.5769528  -11.4155740  
H    4.7989351   -2.5806766   -7.4687998  
H    4.2091720    3.2407683   -8.8578332  
H    5.3338601    2.6676415  -11.5937934  
H    5.8471811    0.4053458  -11.8281360  
H    5.7325944   -4.0828993   -9.2415494  
C    5.9578468   -2.0116381   -4.6613370  
C    5.0861938   -1.6298114   -3.6990437  
C    4.1732073   -0.7119466   -4.3627299  
C    4.6536422   -0.6536616   -5.7600020  
N    5.6994877   -1.4135383   -5.9410649  
C    4.0070647    0.1585852   -6.7536211  
C    2.9292835    0.8795219   -6.3689500  
O    2.2294971    1.6800091   -7.1908742  
C    2.4200480    0.8415395   -4.9663102  
O    1.4341931    1.5235888   -4.6868113  
C    3.1006054    0.0006263   -3.9654951  
H    5.0652945   -1.9335816   -2.6663952  
H    1.5255990    2.0552511   -6.6315228  
H    6.7914222   -2.6898664   -4.5711608  
C    3.2798083    0.0005857   -1.4499652  
C    2.5571142    0.0005565   -2.5996556  
C    1.1637432    0.0001548   -2.2210361  
C    1.1336964   -0.0000200   -0.7459473  
N    2.4483512   -0.0001428   -0.3402723  
C    0.0000000    0.0000000    0.0000000  
C   -1.2757368   -0.0000186   -0.6964415  
O   -2.3524598   -0.0000639   -0.1142311  
C   -1.2676497   -0.0000872   -2.2584083  
O   -2.3355766   -0.0004101   -2.8557295  
C    0.0181558    0.0001758   -2.9516296  
H    0.0150788    0.0003319   -4.0331631  
H    4.3498547    0.0008612   -1.3200026  
H    2.7563626    0.0012823    0.6148059  
C    0.0000000    0.0000000    1.4700000  
C    1.0541688    0.0001722    2.3260392  
C    0.5103138    0.0000454    3.6635956  
C   -0.9576371   -0.0002459    3.5155732  
N   -1.2018458    0.0001392    2.1615969  
C   -1.8348311   -0.0008317    4.5510609  
C   -1.2972847   -0.0009736    5.9014604  
O   -2.0050672   -0.0014265    6.9001319  
C    0.2542623   -0.0004184    6.0817573  
O    0.7184670   -0.0002256    7.2139121  
C    1.0974552   -0.0000873    4.8889129  
H    2.0940752    0.0005483    2.0517982  
H   -2.9081052   -0.0011668    4.4207061  
H    2.1707277    0.0000911    5.0223670  
H   -2.1128194   -0.0014912    1.7406791  
