64

C    3.3248309    1.0019794   -2.9707419  
C    4.3171847    1.8273395   -3.4466429  
C    3.7620853    2.5596925   -4.5375709  
C    2.4162880    2.1354709   -4.6817650  
N    2.1840425    1.1878619   -3.7159923  
C    1.5624041    2.6490165   -5.6625516  
C    2.0763695    3.6085065   -6.5130785  
O    1.2858803    4.1438477   -7.4885534  
C    3.4166974    4.0444021   -6.3852803  
O    3.7793073    5.0044027   -7.3073733  
C    4.2597240    3.5380182   -5.4181153  
H    5.3183677    1.8926410   -3.0563057  
H    0.5357515    2.3297783   -5.7777591  
H    1.8325269    4.7843146   -7.9620979  
H    4.6981326    5.2436398   -7.1520342  
H    3.3409473    0.2943667   -2.1595802  
C    0.0000000    0.0000000    0.0000000  
C    0.9239538    0.5033534   -0.8862337  
C    0.4321091    0.2346765   -2.1979126  
C   -0.8064419   -0.4401612   -2.0478675  
N   -1.0380301   -0.5680971   -0.7007906  
C   -1.5759412   -0.8596801   -3.1372081  
C   -1.0863568   -0.5928286   -4.4010418  
O   -1.7975576   -0.9801676   -5.4997571  
C    0.1475237    0.0790377   -4.5711959  
O    0.4989009    0.2701658   -5.8915548  
C    0.9073132    0.4929513   -3.4969889  
H    1.8403134    1.0017791   -0.6200562  
H   -1.8469743   -0.9972457   -0.2891814  
H   -2.5206556   -1.3745833   -3.0295503  
H   -1.2846727   -0.7010140   -6.2693586  
H    1.3435042    0.7301105   -5.9180046  
C    8.0554574    1.4190426   -4.6049553  
C    8.8858143    2.5137645   -4.6724689  
C    8.0626403    3.6439595   -4.9546800  
C    6.7278448    3.1734891   -5.0490439  
N    6.7593441    1.8180753   -4.8334533  
C    5.6458973    4.0170626   -5.3184183  
C    5.9163074    5.3600859   -5.4954633  
O    4.8968426    6.2281275   -5.7604330  
C    7.2415033    5.8485370   -5.4055205  
O    7.3471687    7.2093379   -5.6065171  
C    8.3093908    5.0168643   -5.1400732  
H    9.9536335    2.4993184   -4.5362823  
H    5.9586404    1.2124078   -4.8287827  
H    5.2983822    7.1024493   -5.8475705  
H    8.2735206    7.4572254   -5.5288834  
H    9.3134602    5.4198286   -5.0772889  
H    8.2853794    0.3849414   -4.4133051  
C    1.1319247   -0.0015655    2.2709268  
C    0.7969915   -0.0034943    3.5869401  
C   -0.6453339   -0.0035710    3.6542670  
C   -1.1266833   -0.0015433    2.2596025  
N    0.0000000    0.0000000    1.4700000  
C   -2.4346130   -0.0013964    1.8976294  
C   -3.4350110   -0.0031408    2.9520183  
O   -4.6384611   -0.0030974    2.7283916  
C   -2.9478959   -0.0050506    4.4361073  
O   -3.7809380   -0.0062218    5.3323774  
C   -1.5113823   -0.0053090    4.7012123  
H    1.4821238   -0.0045407    4.4159191  
H   -2.7664565   -0.0000232    0.8686553  
H   -1.1823530   -0.0068408    5.7314848  
H    2.1104316   -0.0009391    1.8188057  
