62

C    7.5265863   -3.6292186   -2.7300146  
C    7.2866707   -3.0309821   -3.9453423  
C    8.2935617   -3.4940121   -4.8433253  
C    9.1265674   -4.3802018   -4.1134657  
N    8.6339784   -4.4381353   -2.8333810  
C   10.2268767   -5.0267324   -4.6845239  
C   10.4909042   -4.7742923   -6.0167179  
O   11.5528001   -5.3794502   -6.6243129  
C    9.6715749   -3.8929659   -6.7615544  
O   10.0649949   -3.7452095   -8.0756060  
C    8.5860899   -3.2545910   -6.1987701  
H    9.0140004   -4.9957488   -2.0899889  
H   10.8657397   -5.7031714   -4.1336287  
H   11.5566165   -5.0698257   -7.5393990  
H    9.4597704   -3.1346384   -8.5074736  
H    7.9768462   -2.5847770   -6.7942941  
H    6.9962456   -3.5417871   -1.7972481  
C    6.1923725   -2.0934462   -4.2359241  
C    5.2191576   -1.6310076   -3.4094377  
C    4.3967566   -0.7348789   -4.1875411  
C    4.9747503   -0.7130124   -5.5448313  
N    6.0607559   -1.5568755   -5.5077373  
C    4.4832122    0.0165649   -6.5781802  
C    3.3064976    0.8350543   -6.3374472  
O    2.7884368    1.5278086   -7.2034755  
C    2.6779832    0.8273398   -4.9075117  
O    1.6873114    1.5127139   -4.6928198  
C    3.2973506   -0.0000934   -3.8752374  
H    5.0920136   -1.8881512   -2.3729409  
H    4.9222071    0.0183449   -7.5662034  
H    6.6635521   -1.7542833   -6.2853714  
C    3.3321174    0.0004714   -1.3379332  
C    2.6974186    0.0000115   -2.5332308  
C    1.2800441   -0.0002119   -2.2052838  
C    1.2395035    0.0000643   -0.7271293  
N    2.4394063    0.0005458   -0.2131034  
C    0.0000000    0.0000000    0.0000000  
C   -1.1468701    0.0000634   -0.7169542  
O   -2.3742201    0.0000072   -0.1695492  
C   -1.1388767    0.0001606   -2.2096354  
O   -2.2206229    0.0000903   -2.7970413  
C    0.1454526    0.0001815   -2.9324239  
H   -2.9844344    0.0001023   -0.9290168  
H    0.1083580    0.0003680   -4.0135594  
H    4.3940040    0.0007617   -1.1498630  
C    2.5311839    2.1237619    3.0120429  
C    1.9795631    1.6616747    1.8395852  
C    0.9223175    0.7739173    2.1983588  
C    0.8753926    0.7337535    3.6154372  
N    1.8668922    1.5631002    4.0777464  
C   -0.0496243   -0.0427881    4.3197917  
C   -0.9437528   -0.7922060    3.5801400  
O   -1.8685244   -1.5680278    4.2172520  
C   -0.9124520   -0.7656372    2.1655264  
O   -1.8671164   -1.5663939    1.5732860  
C    0.0000000    0.0000000    1.4700000  
H    2.3005065    1.9304404    0.8477417  
H    2.0679347    1.7444845    5.0445261  
H   -0.0904770   -0.0778569    5.3997470  
H   -2.3849669   -2.0011402    3.5251786  
H   -1.7775064   -1.4909735    0.6183591  
H    3.3468514    2.8078103    3.1724291  
