62

C    0.1208441    0.7194349   -7.2557221  
C    1.1135182    0.0014431   -7.8814647  
C    0.4959530   -0.7263432   -8.9414359  
C   -0.8863922   -0.4096893   -8.9135537  
N   -1.0803505    0.4690917   -7.8768564  
C   -1.8041922   -0.9488266   -9.8200655  
C   -1.3176083   -1.8233234  -10.7722582  
O   -2.1702019   -2.3785559  -11.6821012  
C    0.0582332   -2.1519008  -10.8159685  
O    0.3866621   -3.0368971  -11.8220796  
C    0.9641917   -1.6206165   -9.9218199  
H   -1.9604787    0.8779590   -7.6195954  
H   -2.8590272   -0.7116191   -9.8040180  
H   -1.6331361   -2.9500060  -12.2462552  
H    1.3329452   -3.2057777  -11.7816884  
H    2.0120287   -1.8910889   -9.9797894  
H    0.1743814    1.3892023   -6.4145894  
C    3.1006060    0.0006268   -3.9654947  
C    4.3965753    0.0006902   -4.3711275  
C    4.3857806    0.0007800   -5.8149835  
C    2.9671179    0.0007929   -6.2201831  
N    2.2396185    0.0002984   -5.0524357  
C    2.5349220    0.0012657   -7.5066161  
C    3.5336516    0.0015713   -8.5625873  
O    3.2452516    0.0019407   -9.7521782  
C    5.0419196    0.0013115   -8.1564677  
O    5.8918142    0.0012585   -9.0367738  
C    5.3843453    0.0010797   -6.7363984  
H    5.2614039    0.0004935   -3.7318427  
H    6.4309093    0.0011061   -6.4635840  
H    1.2375715    0.0017402   -4.9981499  
C    3.2798085    0.0005859   -1.4499648  
C    2.5571146    0.0005569   -2.5996553  
C    1.1637437    0.0001551   -2.2210359  
C    1.1336966   -0.0000198   -0.7459471  
N    2.4483513   -0.0001427   -0.3402720  
C    0.0000000    0.0000000    0.0000000  
C   -1.2757366   -0.0000185   -0.6964416  
O   -2.3524595   -0.0000640   -0.1142313  
C   -1.2676493   -0.0000870   -2.2584084  
O   -2.3355759   -0.0004098   -2.8557296  
C    0.0181563    0.0001763   -2.9516295  
H    0.0150795    0.0003323   -4.0331630  
H    4.3498549    0.0008614   -1.3200020  
H    2.7563627    0.0012824    0.6148062  
C    2.5311839    2.1237619    3.0120429  
C    1.9795631    1.6616747    1.8395852  
C    0.9223175    0.7739173    2.1983588  
C    0.8753926    0.7337535    3.6154372  
N    1.8668922    1.5631002    4.0777464  
C   -0.0496243   -0.0427881    4.3197917  
C   -0.9437528   -0.7922060    3.5801400  
O   -1.8685244   -1.5680278    4.2172520  
C   -0.9124520   -0.7656372    2.1655264  
O   -1.8671164   -1.5663939    1.5732860  
C    0.0000000    0.0000000    1.4700000  
H    2.3005065    1.9304404    0.8477417  
H    2.0679347    1.7444845    5.0445261  
H   -0.0904770   -0.0778569    5.3997470  
H   -2.3849669   -2.0011402    3.5251786  
H   -1.7775064   -1.4909735    0.6183591  
H    3.3468514    2.8078103    3.1724291  
