62

C    0.6784435   -0.7158674   -5.1604806  
C   -0.1387074    0.0017015   -4.3179686  
C   -1.0481455    0.7301998   -5.1406544  
C   -0.7354107    0.4143962   -6.4876478  
N    0.3188400   -0.4645854   -6.4638959  
C   -1.4327204    0.9543845   -7.5725265  
C   -2.4647268    1.8288738   -7.2925120  
O   -3.1787621    2.3849177   -8.3142675  
C   -2.7916047    2.1566101   -5.9551429  
O   -3.8437008    3.0417139   -5.8410033  
C   -2.1039437    1.6244857   -4.8843985  
H    0.7522634   -0.8729856   -7.2721870  
H   -1.1991951    0.7178275   -8.6014617  
H   -3.8415771    2.9562089   -7.9049176  
H   -3.9995943    3.2099938   -4.9066674  
H   -2.3770359    1.8943253   -3.8709463  
H    1.4902653   -1.3859286   -4.9348208  
C    3.3041276    0.0001179   -1.5420426  
C    2.5845373   -0.0004778   -0.3695850  
C    1.2040008   -0.0000007   -0.7283588  
C    1.1422377    0.0006038   -2.1454370  
N    2.4348643    0.0026110   -2.6077459  
C   -0.0655176    0.0008796   -2.8497919  
C   -1.2321760    0.0002323   -2.1101404  
O   -2.4392811    0.0001143   -2.7472523  
C   -1.1911205   -0.0000006   -0.6955268  
O   -2.4371526   -0.0002322   -0.1032865  
C    0.0000000    0.0000000    0.0000000  
H    3.0031533   -0.0000657    0.6222587  
H    2.7054636   -0.0071097   -3.5745259  
H   -3.1132988   -0.0000651   -2.0551790  
H   -2.3200280   -0.0004074    0.8516406  
C    6.6801372   -0.0033597    1.2661394  
C    7.7093289   -0.0020111    0.3802288  
C    7.1273482   -0.0004549   -0.9411839  
C    5.6642448   -0.0009820   -0.7511347  
N    5.4589564   -0.0031575    0.6092850  
C    4.7577225    0.0005133   -1.7610455  
C    5.2563303    0.0025680   -3.1263004  
O    4.5202051    0.0039578   -4.1042674  
C    6.8020699    0.0029075   -3.3510078  
O    7.2336236    0.0043243   -4.4960055  
C    7.6791167    0.0014564   -2.1828301  
H    8.7566707   -0.0022792    0.6245415  
H    8.7481218    0.0019078   -2.3470010  
H    6.7110421   -0.0047011    2.3436053  
H    4.5604250   -0.0024446    1.0561497  
C    0.0000000    0.0000000    1.4700000  
C    1.0662921    0.0000102    2.3034270  
C    0.4961870   -0.0000064    3.6418889  
C   -0.9663858    0.0000850    3.4240247  
N   -1.2632773    0.0000084    2.1528658  
C   -1.8985362    0.0000517    4.5177257  
C   -1.3925775   -0.0004564    5.7720543  
O   -2.1456383   -0.0005410    6.8851312  
C    0.0786232   -0.0009323    6.0245000  
O    0.4683759   -0.0012588    7.1921102  
C    1.0143166   -0.0008442    4.8859032  
H    2.1107198   -0.0000632    2.0421868  
H   -2.9622183    0.0003270    4.3293377  
H   -1.5042274   -0.0009692    7.6184419  
H    2.0724152   -0.0013148    5.1109744  
