60

C   -1.2937116    4.2334483    1.9361524  
C   -2.1028730    4.8961381    2.8297787  
C   -3.4460648    4.5164323    2.5360783  
C   -3.3937645    3.6123067    1.4444068  
N   -2.0722327    3.4640104    1.1035553  
C   -4.5375006    3.0326342    0.8870587  
C   -5.7562105    3.3716157    1.4420495  
O   -6.9046659    2.8343132    0.9367074  
C   -5.8289197    4.2721727    2.5313277  
O   -7.1147110    4.5092998    2.9716175  
C   -4.7010284    4.8446232    3.0814968  
H   -1.7664918    5.5711375    3.5980350  
H   -1.7249791    2.8740343    0.3691683  
H   -7.6300169    3.1980296    1.4609594  
H   -7.0749382    5.1270975    3.7080611  
H   -4.7880019    5.5311949    3.9154835  
H   -0.2229506    4.2498700    1.8258842  
C   -4.4924722    2.0950382   -0.2442180  
C   -3.4157282    1.6323166   -0.9302112  
C   -3.9167334    0.7362614   -1.9455505  
C   -5.3841447    0.7147467   -1.7937840  
N   -5.6689496    1.5587225   -0.7452229  
C   -6.2266191   -0.0146660   -2.5683138  
C   -5.6495856   -0.8333370   -3.6215681  
O   -6.3243546   -1.5259653   -4.3720706  
C   -4.0978599   -0.8259952   -3.8001702  
O   -3.6005722   -1.5115249   -4.6833547  
C   -3.2941076    0.0012878   -2.9038237  
H   -2.3878038    1.8892262   -0.7458680  
H   -7.3001860   -0.0161878   -2.4403989  
H   -6.5897802    1.7563619   -0.3987296  
C    0.0000000    0.0000000    0.0000000  
C    1.0541688   -0.0001723   -0.8560392  
C    0.5103136   -0.0000455   -2.1935956  
C   -0.9576373    0.0002461   -2.0455730  
N   -1.2018460   -0.0001389   -0.6915968  
C   -1.8348314    0.0008319   -3.0810607  
C   -1.2972851    0.0009739   -4.4314603  
O   -2.0050676    0.0014268   -5.4301316  
C    0.2542619    0.0004184   -4.6117572  
O    0.7184666    0.0002257   -5.7439122  
C    1.0974551    0.0000873   -3.4189129  
H    2.0940752   -0.0005484   -0.5817983  
H    2.1707276   -0.0000912   -3.5523673  
H   -2.1128194    0.0014915   -0.2706789  
C    0.0000000    0.0000000    1.4700000  
C    1.0662921    0.0000102    2.3034270  
C    0.4961870   -0.0000064    3.6418889  
C   -0.9663858    0.0000850    3.4240247  
N   -1.2632773    0.0000084    2.1528658  
C   -1.8985362    0.0000517    4.5177257  
C   -1.3925775   -0.0004564    5.7720543  
O   -2.1456383   -0.0005410    6.8851312  
C    0.0786232   -0.0009323    6.0245000  
O    0.4683759   -0.0012588    7.1921102  
C    1.0143166   -0.0008442    4.8859032  
H    2.1107198   -0.0000632    2.0421868  
H   -2.9622183    0.0003270    4.3293377  
H   -1.5042274   -0.0009692    7.6184419  
H    2.0724152   -0.0013148    5.1109744  
