60

C    5.0592105   -4.2394679   -8.8079077  
C    5.8534687   -4.9034935   -7.9019880  
C    5.4066044   -4.5258160   -6.6011146  
C    4.3278423   -3.6219332   -6.7777346  
N    4.1443787   -3.4685735   -8.1295625  
C    3.6416178   -3.0445430   -5.7051181  
C    4.0516742   -3.3860701   -4.4309944  
O    3.4161136   -2.8516020   -3.3477488  
C    5.1261721   -4.2858541   -4.2343740  
O    5.4149395   -4.5251421   -2.9067076  
C    5.8037805   -4.8556352   -5.2920708  
H    6.6568957   -5.5763656   -8.1484461  
H    3.4417611   -2.8937270   -8.5583525  
H    3.8532878   -3.2162934   -2.5672724  
H    6.1516568   -5.1422832   -2.8621251  
H    6.6230571   -5.5413968   -5.1104329  
H    5.0738205   -4.2536444   -9.8842649  
C    2.5229100   -2.1069158   -5.8790371  
C    1.9659589   -1.6422902   -7.0270804  
C    0.8993064   -0.7471212   -6.6452961  
C    0.8803717   -0.7281564   -5.1701439  
N    1.8886136   -1.5732492   -4.7674580  
C    0.0139741    0.0003876   -4.4216236  
C   -0.9653707    0.8204009   -5.1151633  
O   -1.7886285    1.5123013   -4.5305085  
C   -0.9636632    0.8153760   -6.6771416  
O   -1.7837169    1.5015809   -7.2720331  
C    0.0195986   -0.0107207   -7.3732829  
H    2.2677690   -1.8976616   -8.0272351  
H    0.0142642   -0.0084675   -8.4548052  
H    2.1282169   -1.7702569   -3.8130861  
C    3.2798085    0.0005853   -1.4499648  
C    2.5571144    0.0005562   -2.5996554  
C    1.1637436    0.0001546   -2.2210360  
C    1.1336965   -0.0000201   -0.7459470  
N    2.4483513   -0.0001430   -0.3402717  
C    0.0000000    0.0000000    0.0000000  
C   -1.2757367   -0.0000188   -0.6964414  
O   -2.3524597   -0.0000640   -0.1142313  
C   -1.2676494   -0.0000875   -2.2584081  
O   -2.3355762   -0.0004102   -2.8557294  
C    0.0181562    0.0001757   -2.9516296  
H    2.9547357    0.0006072   -3.5989105  
H    4.3498550    0.0008609   -1.3200021  
H    2.7563627    0.0012824    0.6148063  
C    0.8400945    0.7047457    2.2710304  
C    0.0000000    0.0000000    1.4700000  
C   -0.8844236   -0.7423113    2.3369512  
C   -0.4878984   -0.4098547    3.7186280  
N    0.5629682    0.4714286    3.6095011  
C   -1.0836927   -0.9095027    4.8308716  
C   -2.1891196   -1.8367527    4.6554461  
O   -2.7906899   -2.3413415    5.5944904  
C   -2.6257283   -2.2031529    3.2011665  
O   -3.5549479   -2.9829990    3.0410059  
C   -1.9068976   -1.5999348    2.0816745  
H   -0.7774656   -0.6525820    5.8354244  
H   -2.2155208   -1.8586617    1.0779135  
H    1.6384792    1.3747609    1.9961646  
H    1.0518368    0.8833920    4.3830260  
