64

C    6.0428477   -2.3876870   -2.5187548  
C    5.9112267   -1.0842300   -2.9384486  
C    7.1768131   -0.4550512   -2.7460302  
C    8.0489989   -1.4323081   -2.2017996  
N    7.3280907   -2.5936816   -2.0748345  
C    9.3835816   -1.1621747   -1.8844594  
C    9.8462086    0.1177288   -2.1211065  
O   11.1412501    0.4356002   -1.8298373  
C    8.9912087    1.1066143   -2.6632288  
O    9.6003110    2.3317989   -2.8400324  
C    7.6744238    0.8409016   -2.9762794  
H    7.6864951   -3.4639607   -1.7253464  
H   10.0534155   -1.9025578   -1.4692987  
H   11.2543245    1.3651158   -2.0674912  
H    8.9547073    2.9419186   -3.2095643  
H    7.0434381    1.6187317   -3.3901815  
H    5.3212285   -3.1863474   -2.4996076  
C    3.4023864   -0.7104236   -3.0044223  
C    2.4861704   -0.0045255   -3.7159919  
C    3.2127702    0.7364520   -4.7199046  
C    4.6376135    0.4019566   -4.5335600  
N    4.6849732   -0.4791134   -3.4779264  
C    5.6494131    0.8999190   -5.2885433  
C    5.3126161    1.8273768   -6.3557478  
O    6.1522959    2.3305378   -7.0906404  
C    3.8100585    2.1959219   -6.5709210  
O    3.5143913    2.9759619   -7.4661196  
C    2.8092696    1.5944060   -5.6931667  
H    6.6879996    0.6415170   -5.1353248  
H    1.7711116    1.8546130   -5.8488735  
H    3.2485511   -1.3799907   -2.1738176  
C    0.0000000    0.0000000    0.0000000  
C    1.0521669   -0.0011848   -0.8862341  
C    0.4917221   -0.0011931   -2.1979130  
C   -0.9187427    0.0003100   -2.0478683  
N   -1.1833170   -0.0009472   -0.7007915  
C   -1.7951698    0.0010259   -3.1372090  
C   -1.2375835    0.0005161   -4.4010425  
O   -2.0474208    0.0015256   -5.4997580  
C    0.1673584   -0.0013557   -4.5711962  
O    0.5673529   -0.0020659   -5.8915551  
C    1.0325773   -0.0023359   -3.4969890  
H    2.0953059   -0.0030542   -0.6200560  
H   -2.0989777    0.0102265   -0.2891825  
H   -2.8710930    0.0020274   -3.0295514  
H   -1.4634881    0.0006427   -6.2693593  
H    1.5290715   -0.0033076   -5.9180042  
C    1.1243417   -0.0099156    2.2619005  
C    0.7474090   -0.0234034    3.5848544  
C   -0.6787367   -0.0234952    3.6114698  
C   -1.1201739   -0.0099357    2.2635546  
N    0.0000000    0.0000000    1.4700000  
C   -2.4730812   -0.0065396    1.9108239  
C   -3.3971947   -0.0173298    2.9375057  
O   -4.7313508   -0.0149487    2.6493466  
C   -2.9763630   -0.0305536    4.2886322  
O   -4.0166453   -0.0397858    5.1947621  
C   -1.6418541   -0.0336380    4.6373480  
H    1.4178735   -0.0310004    4.4271209  
H   -2.8160170    0.0039190    0.8854031  
H   -5.1938803   -0.0234410    3.4974381  
H   -3.6464643   -0.0484781    6.0827341  
H   -1.3497443   -0.0436789    5.6809233  
H    2.1062470   -0.0051382    1.8205408  
