62

C   -0.3729859   -0.6911697   -9.5417919  
C   -0.7338938    0.5615265   -9.1025138  
C   -0.6761903    1.4313037  -10.2315648  
C   -0.2709448    0.6463862  -11.3413428  
N   -0.0935243   -0.6369520  -10.8872694  
C   -0.1085269    1.1776333  -12.6243811  
C   -0.3600729    2.5257471  -12.7901866  
O   -0.2173095    3.0959503  -14.0220552  
C   -0.7649412    3.3255000  -11.6950646  
O   -0.9764093    4.6491382  -12.0215715  
C   -0.9251112    2.8021389  -10.4289816  
H    0.1836051   -1.4193186  -11.4521436  
H    0.2002245    0.5847737  -13.4743186  
H   -0.4384353    4.0305410  -13.9176151  
H   -1.2467692    5.1190138  -11.2267599  
H   -1.2361511    3.4394861   -9.6095183  
H   -0.2914186   -1.6187465   -9.0015082  
C    0.9070721   -0.7042925   -5.2310448  
C    0.0950446    0.0004351   -4.4015596  
C   -0.8184768    0.7430225   -5.2375492  
C   -0.4696132    0.4107475   -6.6320662  
N    0.5842462   -0.4707050   -6.5591865  
C   -1.1031226    0.9106725   -7.7231417  
C   -2.2017459    1.8380503   -7.5097580  
O   -2.8350879    2.3428870   -8.4275373  
C   -2.5881745    2.2042621   -6.0413008  
O   -3.5112398    2.9842135   -5.8492396  
C   -1.8314683    1.6007480   -4.9472170  
H   -2.1054515    1.8593460   -3.9334203  
H    1.7143130   -1.3744693   -4.9838303  
H    1.0462412   -0.8826050   -7.3490886  
C    3.3321173    0.0004713   -1.3379338  
C    2.6974181    0.0000116   -2.5332314  
C    1.2800438   -0.0002119   -2.2052841  
C    1.2395034    0.0000643   -0.7271299  
N    2.4394062    0.0005460   -0.2131038  
C    0.0000000    0.0000000    0.0000000  
C   -1.1468702    0.0000634   -0.7169543  
O   -2.3742203    0.0000074   -0.1695487  
C   -1.1388770    0.0001607   -2.2096355  
O   -2.2206234    0.0000905   -2.7970411  
C    0.1454522    0.0001815   -2.9324241  
H    3.1367984   -0.0000653   -3.5160950  
H   -2.9844346    0.0001026   -0.9290167  
H    4.3940038    0.0007618   -1.1498640  
C    0.8676693    0.7151171    2.2619005  
C    0.5875920    0.4624972    3.5848544  
C   -0.5048400   -0.4542819    3.6114698  
C   -0.8517165   -0.7276451    2.2635546  
N    0.0000000    0.0000000    1.4700000  
C   -1.8902865   -1.5946756    1.9108239  
C   -2.5912627   -2.1969500    2.9375057  
O   -3.6148162   -3.0527051    2.6493466  
C   -2.2603868   -1.9365747    4.2886322  
O   -3.0513550   -2.6123276    5.1947621  
C   -1.2361111   -1.0811317    4.6373480  
H    1.1060808    0.8876438    4.4271209  
H   -2.1597133   -1.8070987    0.8854031  
H   -3.9636755   -3.3565188    3.4974381  
H   -2.7621927   -2.3810384    6.0827341  
H   -1.0058879   -0.9010589    5.6809233  
H    1.6167816    1.3499334    1.8205408  
