60

C   10.0372703    0.7101268   -1.5767020  
C   11.3007656    0.4597740   -1.0936175  
C   11.1572114   -0.4485293   -0.0032153  
C    9.7715769   -0.7192979    0.1332701  
N    9.1199938    0.0016837   -0.8363906  
C    9.2616135   -1.5782977    1.1114551  
C   10.1669601   -2.1750613    1.9672591  
O    9.7231254   -3.0228968    2.9405003  
C   11.5532792   -1.9171559    1.8471769  
O   12.3255314   -2.5867083    2.7738212  
C   12.0570538   -1.0696333    0.8825826  
H   12.2135161    0.8809589   -1.4789520  
H    8.2066371   -1.7887039    1.2207950  
H   10.5067757   -3.3239440    3.4185457  
H   13.2477816   -2.3575988    2.6235976  
H   13.1238725   -0.8912719    0.8150270  
H    9.7176905    1.3391007   -2.3898561  
C    6.4690067    0.0019752   -4.4192259  
C    7.5790592    0.0025229   -3.6450414  
C    7.0826137    0.0021760   -2.2775470  
C    5.6103549    0.0015082   -2.4155218  
N    5.2447492    0.0013071   -3.6686472  
C    4.7390840    0.0009613   -1.2727298  
C    5.3125318    0.0006873   -0.0477839  
O    4.6211392    0.0001823    1.1046125  
C    6.7952873    0.0009744    0.1242520  
O    7.2479830    0.0008235    1.2689297  
C    7.6676529    0.0015791   -1.0635623  
H    8.6077291    0.0030015   -3.9627138  
H    5.3014942    0.0000718    1.8019434  
H    6.4103389    0.0020014   -5.4960416  
C    3.2798077    0.0005856   -1.4499661  
C    2.5571132    0.0005565   -2.5996564  
C    1.1637425    0.0001547   -2.2210366  
C    1.1336959   -0.0000200   -0.7459475  
N    2.4483509   -0.0001429   -0.3402730  
C    0.0000000    0.0000000    0.0000000  
C   -1.2757370   -0.0000187   -0.6964411  
O   -2.3524597   -0.0000640   -0.1142306  
C   -1.2676502   -0.0000874   -2.2584078  
O   -2.3355774   -0.0004102   -2.8557287  
C    0.0181551    0.0001758   -2.9516297  
H    2.9547342    0.0006074   -3.5989118  
H    0.0150776    0.0003317   -4.0331632  
H    2.7563626    0.0012823    0.6148051  
C    0.8681109    0.7263879    2.2709268  
C    0.6127770    0.5096195    3.5869401  
C   -0.4920590   -0.4175482    3.6542670  
C   -0.8620974   -0.7254003    2.2596025  
N    0.0000000    0.0000000    1.4700000  
C   -1.8641242   -1.5660088    1.8976294  
C   -2.6293522   -2.2103885    2.9520183  
O   -3.5512764   -2.9839180    2.7283916  
C   -2.2549728   -1.8987399    4.4361073  
O   -2.8923672   -2.4351063    5.3323774  
C   -1.1543735   -0.9755647    4.7012123  
H    1.1382914    0.9492124    4.4159191  
H   -2.1192137   -1.7782617    0.8686553  
H   -0.9013378   -0.7652422    5.7314848  
H    1.6172880    1.3558399    1.8188057  
