64

C    4.6817176   -1.0174625   -5.0514508  
C    5.5279859   -1.9095778   -4.4346635  
C    6.6030020   -2.1570380   -5.3389329  
C    6.3565743   -1.3814300   -6.5006700  
N    5.1811236   -0.7031307   -6.2936814  
C    7.2151153   -1.3784313   -7.6041586  
C    8.3431266   -2.1726428   -7.5334726  
O    9.2154472   -2.2069107   -8.5827080  
C    8.6061055   -2.9538781   -6.3831116  
O    9.7690995   -3.6913831   -6.4660192  
C    7.7594336   -2.9575340   -5.2942322  
H    5.3871743   -2.3310803   -3.4541019  
H    4.7575330   -0.0646389   -6.9424346  
H    7.0328789   -0.7896491   -8.4925998  
H    9.9226376   -2.8146436   -8.3301045  
H    9.8721130   -4.1896810   -5.6495075  
H    7.9870239   -3.5663950   -4.4270705  
C    2.8320534   -0.6842461   -3.3638062  
C    1.6628945    0.0339172   -3.2649299  
C    1.5251285    0.7739971   -4.4764999  
C    2.6497195    0.4643214   -5.2835456  
N    3.4240287   -0.4223174   -4.5771929  
C    2.8441976    1.0160065   -6.5534315  
C    1.8857970    1.8961105   -7.0171810  
O    2.0260218    2.4635787   -8.2506027  
C    0.7569696    2.2178791   -6.2265923  
O   -0.1068566    3.1097693   -6.8279902  
C    0.5646030    1.6742142   -4.9736157  
H    3.6992248    0.7841692   -7.1734164  
H    1.2587972    3.0370518   -8.3761373  
H   -0.8411877    3.2733640   -6.2283251  
H   -0.3098402    1.9397123   -4.3910878  
H    3.2912523   -1.3614900   -2.6642093  
C    1.1243410    0.0100105   -0.7919003  
C    0.7474072    0.0234665   -2.1148542  
C   -0.6787384    0.0234379   -2.1414698  
C   -1.1201748    0.0098411   -0.7935547  
N    0.0000000    0.0000000    0.0000000  
C   -2.4730818    0.0063307   -0.4408240  
C   -3.3971962    0.0170429   -1.4675058  
O   -4.7313520    0.0145490   -1.1793468  
C   -2.9763654    0.0303020   -2.8186325  
O   -4.0166484    0.0394464   -3.7247625  
C   -1.6418567    0.0334992   -3.1673480  
H   -2.8160166   -0.0041569    0.5845966  
H   -5.1938823    0.0230023   -2.0274386  
H   -3.6464680    0.0481700   -4.6127343  
H   -1.3497475    0.0435647   -4.2109234  
H    2.1062466    0.0053162   -0.3505405  
C    2.5128556    2.1077716    2.9199648  
C    1.9592212    1.6432552    4.0696553  
C    0.8915788    0.7479214    3.6910360  
C    0.8684491    0.7287414    2.2159470  
N    1.8754542    1.5738793    1.8102719  
C    0.0000000    0.0000000    1.4700000  
C   -0.9772830   -0.8200135    2.1664417  
O   -1.8021297   -1.5120829    1.5842315  
C   -0.9711318   -0.8147624    3.7284083  
O   -1.7894187   -1.5009653    4.3257297  
C    0.0140216    0.0115358    4.4216297  
H    2.2638494    1.8988021    5.0689105  
H    0.0117648    0.0094386    5.5031631  
H    3.3327358    2.7953732    2.7900019  
H    2.1123206    1.7707734    0.8551938  
