60

C    2.9675818   -5.3249400   -9.2181109  
C    2.6229135   -4.4028160   -8.2571940  
C    2.4828699   -3.1461363   -8.9173028  
C    2.7563042   -3.3652279  -10.2917697  
N    3.0488428   -4.6983356  -10.4396312  
C    2.7114493   -2.3426201  -11.2441618  
C    2.3843129   -1.0758213  -10.8010131  
O    2.3257795   -0.0406956  -11.6887643  
C    2.1085495   -0.8372364   -9.4335892  
O    1.7989977    0.4769647   -9.1500456  
C    2.1528770   -1.8455355   -8.4934327  
H    2.4899816   -4.6101699   -7.2091835  
H    3.2736030   -5.1503975  -11.3074458  
H    2.9189335   -2.5030567  -12.2931667  
H    2.0842221    0.7432608  -11.1785399  
H    1.6265573    0.5520665   -8.2065272  
H    3.1632794   -6.3797584   -9.1285611  
C    2.5365542   -2.0936798   -5.9975195  
C    2.0254114   -1.6312727   -4.8274822  
C    0.9452519   -0.7345686   -5.1651398  
C    0.8684328   -0.7123308   -6.6383657  
N    1.8600001   -1.5565500   -7.0821879  
C   -0.0266561    0.0178219   -7.3506841  
C   -0.9777112    0.8365829   -6.6174311  
O   -1.8231604    1.5298522   -7.1677880  
C   -0.9143687    0.8284832   -5.0567494  
O   -1.7097814    1.5140808   -4.4286288  
C    0.0950446    0.0004351   -4.4015596  
H    2.3662772   -1.8887983   -3.8405144  
H   -0.0661850    0.0198663   -8.4311199  
H    3.3507072   -2.7814877   -6.1586571  
C    3.3321173    0.0004713   -1.3379338  
C    2.6974181    0.0000116   -2.5332314  
C    1.2800438   -0.0002119   -2.2052841  
C    1.2395034    0.0000643   -0.7271299  
N    2.4394062    0.0005460   -0.2131038  
C    0.0000000    0.0000000    0.0000000  
C   -1.1468702    0.0000634   -0.7169543  
O   -2.3742203    0.0000074   -0.1695487  
C   -1.1388770    0.0001607   -2.2096355  
O   -2.2206234    0.0000905   -2.7970411  
C    0.1454522    0.0001815   -2.9324241  
H    3.1367984   -0.0000653   -3.5160950  
H   -2.9844346    0.0001026   -0.9290167  
H    4.3940038    0.0007618   -1.1498640  
C    0.0000000    0.0000000    1.4700000  
C    1.0662921    0.0000102    2.3034270  
C    0.4961870   -0.0000064    3.6418889  
C   -0.9663858    0.0000850    3.4240247  
N   -1.2632773    0.0000084    2.1528658  
C   -1.8985362    0.0000517    4.5177257  
C   -1.3925775   -0.0004564    5.7720543  
O   -2.1456383   -0.0005410    6.8851312  
C    0.0786232   -0.0009323    6.0245000  
O    0.4683759   -0.0012588    7.1921102  
C    1.0143166   -0.0008442    4.8859032  
H    2.1107198   -0.0000632    2.0421868  
H   -2.9622183    0.0003270    4.3293377  
H   -1.5042274   -0.0009692    7.6184419  
H    2.0724152   -0.0013148    5.1109744  
