62

C    0.8484563   -0.5405837   -9.6293314  
C    0.3213397    0.6904730   -9.3145067  
C    0.7997299    1.6109494  -10.2935189  
C    1.6211153    0.8778380  -11.1878348  
N    1.6306700   -0.4247652  -10.7545323  
C    2.2623546    1.4672489  -12.2815408  
C    2.0706793    2.8213397  -12.4761604  
O    2.6731032    3.4473137  -13.5288964  
C    1.2550952    3.5699406  -11.5945496  
O    1.1635853    4.9069498  -11.9222296  
C    0.6224069    2.9891838  -10.5152208  
H    2.1210669   -1.1803097  -11.1979776  
H    2.8897871    0.9140561  -12.9667492  
H    2.4114362    4.3759939  -13.4804387  
H    0.5953180    5.3398335  -11.2778024  
H    0.0039575    3.5882072   -9.8570647  
H    0.7294946   -1.4918060   -9.1394506  
C    0.2908557   -0.7259189   -5.1324807  
C    0.5947739   -0.5089636   -6.4380995  
C   -0.3866753    0.4179345   -6.9504007  
C   -1.2937764    0.7254249   -5.8281676  
N   -0.8287665    0.0000939   -4.7555305  
C   -2.3565452    1.5657078   -5.9065966  
C   -2.6250319    2.2100942   -7.1814364  
O   -3.5581905    2.9833453   -7.3534798  
C   -1.6774703    1.8988251   -8.3835368  
O   -1.8937506    2.4352002   -9.4618622  
C   -0.5642193    0.9759823   -8.1764507  
H    1.4129887   -0.9482636   -6.9804582  
H   -3.0094325    1.7776989   -5.0713071  
H    0.7904798   -1.3552659   -4.4140187  
C    1.0672569   -0.0000698   -0.8321910  
C    0.0000000    0.0000000    0.0000000  
C   -1.1601223   -0.0000736   -0.8778472  
C   -0.5938729   -0.0000768   -2.2438435  
N    0.7113367   -0.0001553   -2.2234123  
C   -1.4286985   -0.0001877   -3.4135239  
C   -2.7683113   -0.0006798   -3.2270524  
O   -3.6653902   -0.0008302   -4.2276970  
C   -3.3702024   -0.0010610   -1.8610774  
O   -4.5974910   -0.0013779   -1.7662963  
C   -2.4926825   -0.0008943   -0.6770658  
H   -4.5324245   -0.0012258   -3.7833954  
H   -2.9677772   -0.0012974    0.2947961  
H    2.1134391   -0.0000547   -0.5705119  
C    0.8576279    0.7185626    2.2703808  
C    0.0000000    0.0000000    1.4700000  
C   -0.8668858   -0.7285659    2.3373528  
C   -0.4876752   -0.4117774    3.6669281  
N    0.5635254    0.4678311    3.5902241  
C   -1.1297612   -0.9515493    4.7854808  
C   -2.1738724   -1.8268314    4.5576857  
O   -2.8357962   -2.3827064    5.6140350  
C   -2.5667212   -2.1555554    3.2384331  
O   -3.6226318   -3.0413663    3.1773122  
C   -1.9335634   -1.6236449    2.1344818  
H    1.0363952    0.8769718    4.3757045  
H   -0.8454472   -0.7142436    5.8013813  
H   -3.5178062   -2.9546422    5.2385129  
H   -3.8247440   -3.2102924    2.2519915  
H   -2.2566033   -1.8942483    1.1360343  
H    1.6567807    1.3889844    2.0042067  
