62

C   -0.0980533   -0.6350832   -9.6020047  
C   -0.5750655    0.6258366   -9.3281279  
C   -0.1385001    1.4753483  -10.3875348  
C    0.6068982    0.6701621  -11.2864121  
N    0.6134705   -0.6052283  -10.7785207  
C    1.1908789    1.1782828  -12.4507013  
C    1.0190004    2.5236816  -12.7125003  
O    1.5677190    3.0716941  -13.8357116  
C    0.2789447    3.3434400  -11.8275546  
O    0.1981338    4.6614459  -12.2271462  
C   -0.2972164    2.8428992  -10.6786313  
H    1.0568088   -1.3979746  -11.2062885  
H    1.7602946    0.5699023  -13.1397876  
H    1.3315073    4.0083750  -13.8259022  
H   -0.3176699    5.1458181  -11.5752758  
H   -0.8583178    3.4952244  -10.0197576  
H   -0.2078645   -1.5530719   -9.0504643  
C   -0.2341631   -0.6333943   -5.1705301  
C   -1.2456329    0.0471727   -4.5828766  
C   -1.8647654    0.8033909   -5.6605167  
C   -1.0789139    0.4509138   -6.8625074  
N   -0.1217520   -0.3910230   -6.5814860  
C   -1.3794716    1.0000396   -8.1560343  
C   -2.4181305    1.8618048   -8.2448126  
O   -2.8101923    2.4494763   -9.3880398  
C   -3.2305035    2.2369725   -7.0500487  
O   -4.1614903    3.0272888   -7.2045956  
C   -2.9022834    1.6602244   -5.7341623  
H   -3.5697153    3.0041715   -9.1338933  
H   -3.5149163    1.9572673   -4.8935214  
H    0.4669732   -1.3104608   -4.7090521  
C    1.1243410    0.0099923   -0.7919003  
C    0.7474076    0.0234544   -2.1148543  
C   -0.6787381    0.0234490   -2.1414700  
C   -1.1201745    0.0098592   -0.7935546  
N    0.0000000    0.0000000    0.0000000  
C   -2.4730816    0.0063709   -0.4408240  
C   -3.3971958    0.0170982   -1.4675058  
O   -4.7313517    0.0146259   -1.1793471  
C   -2.9763648    0.0303504   -2.8186324  
O   -4.0166480    0.0395118   -3.7247624  
C   -1.6418562    0.0335260   -3.1673481  
H    1.4178717    0.0310972   -2.9571209  
H   -2.8160166   -0.0041111    0.5845966  
H   -5.1938818    0.0230867   -2.0274384  
H   -3.6464675    0.0482293   -4.6127343  
H    2.1062467    0.0052819   -0.3505407  
C    2.3971438    2.0127888    3.1728260  
C    1.9431056    1.6308205    1.9564670  
C    0.8496017    0.7127664    2.2356185  
C    0.7794028    0.6545384    3.7115134  
N    1.6840587    1.4146091    4.2663826  
C   -0.1885723   -0.1578550    4.3957118  
C   -1.0476298   -0.8789867    3.6398520  
O   -2.0015663   -1.6796266    4.1448486  
C   -1.0022026   -0.8410666    2.1483229  
O   -1.8147390   -1.5232959    1.5241687  
C    0.0000000    0.0000000    1.4700000  
H    2.3054237    1.9346118    0.9892483  
H   -0.2170646   -0.1815267    5.4753125  
H   -2.4487139   -2.0549881    3.3649027  
H    3.2048689    2.6911772    3.3971983  
