60

C    7.0770659   -5.3190295   -4.9564076  
C    6.1819590   -4.3973724   -4.4646739  
C    6.5149769   -3.1400694   -5.0502398  
C    7.6310595   -3.3583164   -5.8979747  
N    7.9479585   -4.6915449   -5.8161502  
C    8.2291245   -2.3349354   -6.6394588  
C    7.6905125   -1.0682169   -6.5232727  
O    8.2354756   -0.0323569   -7.2254286  
C    6.5773586   -0.8304688   -5.6823323  
O    6.1577501    0.4837613   -5.6738995  
C    5.9870136   -1.8395314   -4.9503405  
H    5.3874850   -4.6054308   -3.7686027  
H    8.6916170   -5.1431154   -6.3171843  
H    9.0800284   -2.4947267   -7.2872476  
H    7.7163989    0.7513985   -7.0028253  
H    5.4030193    0.5582713   -5.0819260  
H    7.1640721   -6.3740745   -4.7607845  
C    4.6190970   -2.0899185   -2.8279654  
C    3.4606685   -1.6280057   -2.2906063  
C    2.8761400   -0.7301694   -3.2586206  
C    3.7955630   -0.7067284   -4.4122679  
N    4.8319962   -1.5514031   -4.0878917  
C    3.5979911    0.0246977   -5.5381835  
C    2.3999524    0.8436573   -5.6190799  
O    2.1321343    1.5380346   -6.5908894  
C    1.4124497    0.8342976   -4.4088913  
O    0.4006153    1.5200499   -4.4654208  
C    1.7334695    0.0049281   -3.2500363  
H    3.0613136   -1.8865707   -1.3260993  
H    4.2848592    0.0276109   -6.3731166  
H    5.3352946   -2.7782579   -2.4094680  
C    1.1319246    0.0015678   -0.8009268  
C    0.7969914    0.0034958   -2.1169401  
C   -0.6453340    0.0035696   -2.1842669  
C   -1.1266832    0.0015410   -0.7896025  
N    0.0000000    0.0000000    0.0000000  
C   -2.4346129    0.0013913   -0.4276292  
C   -3.4350111    0.0031335   -1.4820181  
O   -4.6384614    0.0030875   -1.2583914  
C   -2.9478961    0.0050442   -2.9661074  
O   -3.7809382    0.0062135   -3.8623773  
C   -1.5113825    0.0053055   -3.2312122  
H   -2.7664565    0.0000174    0.6013448  
H   -1.1823533    0.0068381   -4.2614848  
H    2.1104316    0.0009435   -0.3488059  
C    0.8681109    0.7263879    2.2709268  
C    0.6127770    0.5096195    3.5869401  
C   -0.4920590   -0.4175482    3.6542670  
C   -0.8620974   -0.7254003    2.2596025  
N    0.0000000    0.0000000    1.4700000  
C   -1.8641242   -1.5660088    1.8976294  
C   -2.6293522   -2.2103885    2.9520183  
O   -3.5512764   -2.9839180    2.7283916  
C   -2.2549728   -1.8987399    4.4361073  
O   -2.8923672   -2.4351063    5.3323774  
C   -1.1543735   -0.9755647    4.7012123  
H    1.1382914    0.9492124    4.4159191  
H   -2.1192137   -1.7782617    0.8686553  
H   -0.9013378   -0.7652422    5.7314848  
H    1.6172880    1.3558399    1.8188057  
