62

C   -3.6651184    3.5876321    1.6096315  
C   -4.7144546    2.9357727    1.0042885  
C   -5.9010473    3.3295331    1.6909833  
C   -5.5101569    4.2306760    2.7142483  
N   -4.1459309    4.3637541    2.6381267  
C   -6.4245344    4.8216381    3.5914416  
C   -7.7578353    4.4972219    3.4325688  
O   -8.6929493    5.0459802    4.2616896  
C   -8.1674074    3.5998660    2.4177689  
O   -9.5287165    3.3777851    2.3884094  
C   -7.2658704    3.0162836    1.5522126  
H   -3.5858173    4.9483072    3.2318876  
H   -6.1329942    5.5091112    4.3734821  
H   -9.5471052    4.6913607    3.9825358  
H   -9.7209829    2.7611788    1.6753639  
H   -7.6092490    2.3325054    0.7847378  
H   -2.6115859    3.5592461    1.3900351  
C   -4.6051146    2.0113809   -0.1334481  
C   -3.4864971    1.6298266   -0.7927589  
C   -3.9518793    0.7119511   -1.8210700  
C   -5.4173874    0.6533631   -1.6328192  
N   -5.8061458    1.4130855   -0.6450553  
C   -6.2597396   -0.1589834   -2.4668584  
C   -5.6651267   -0.8797261   -3.4447642  
O   -6.3285773   -1.6802771   -4.2962291  
C   -4.1885399   -0.8414365   -3.6601389  
O   -3.7155091   -1.5233211   -4.5692573  
C   -3.3460097   -0.0004262   -2.7913647  
H   -2.4709777    1.9337813   -0.6045897  
H   -7.3277598   -0.1829238   -2.3066431  
H   -5.6384854   -2.0553379   -4.8726449  
C    0.0000000    0.0000000    0.0000000  
C    1.0662919   -0.0000103   -0.8334272  
C    0.4961868    0.0000066   -2.1718889  
C   -0.9663860   -0.0000849   -1.9540248  
N   -1.2632775   -0.0000084   -0.6828659  
C   -1.8985364   -0.0000515   -3.0477258  
C   -1.3925778    0.0004567   -4.3020543  
O   -2.1456385    0.0005412   -5.4151314  
C    0.0786229    0.0009326   -4.5544999  
O    0.4683756    0.0012594   -5.7221104  
C    1.0143162    0.0008443   -3.4159034  
H    2.1107195    0.0000631   -0.5721869  
H   -1.5042277    0.0009692   -6.1484420  
H    2.0724151    0.0013151   -3.6409746  
C    3.3003543   -0.0005276    2.9438989  
C    2.5232812   -0.0003497    4.0790748  
C    1.1623199    0.0001319    3.6520102  
C    1.1711883   -0.0000583    2.2336141  
N    2.4852299    0.0014920    1.8362361  
C    0.0000000    0.0000000    1.4700000  
C   -1.2020384   -0.0000520    2.1506477  
O   -2.3759250   -0.0003494    1.4542253  
C   -1.2314658    0.0005113    3.5655508  
O   -2.5054393    0.0008037    4.0950179  
C   -0.0764518    0.0007272    4.3195194  
H    2.8919952    0.0005619    5.0905303  
H    2.8036267   -0.0088181    0.8841339  
H   -3.0835639   -0.0000348    2.1118817  
H   -2.4360050    0.0011527    5.0545920  
H   -0.1304098    0.0013421    5.4019087  
H    4.3715549   -0.0004895    2.8367138  
