62

C    0.0000000    0.0000000    0.0000000  
C   -1.0239732   -0.2419382   -0.8862345  
C   -0.4786930   -0.1124455   -2.1979133  
C    0.8939578    0.2119635   -2.0478683  
N    1.1510836    0.2743137   -0.7007912  
C    1.7468384    0.4137558   -3.1372090  
C    1.2042201    0.2854278   -4.4010423  
O    1.9923808    0.4715499   -5.4997574  
C   -0.1631426   -0.0373462   -4.5711964  
O   -0.5524789   -0.1290697   -5.8915554  
C   -1.0051795   -0.2362920   -3.4969892  
H   -2.0393216   -0.4811247   -0.6200563  
H    2.0445520    0.4749952   -0.2891823  
H    1.4240423    0.3374984   -6.2693592  
H   -1.4884650   -0.3500559   -5.9180050  
H   -2.0481964   -0.4823112   -3.6584458  
C    4.7113322   -1.0858404   -0.3175485  
C    5.8220918   -0.4042827   -0.6826120  
C    5.4001084    0.4319895   -1.7957507  
C    3.9657222    0.1197816   -1.9736452  
N    3.5563111   -0.7692460   -1.1099312  
C    3.1702744    0.7503705   -2.9908505  
C    3.7799650    1.6521590   -3.7935891  
O    3.1594424    2.3160927   -4.7836321  
C    5.2259293    1.9888976   -3.6388177  
O    5.7150075    2.8190412   -4.4049019  
C    6.0204883    1.3284548   -2.5879057  
H    6.8062276   -0.4618447   -0.2499013  
H    3.8498501    2.8825086   -5.1730703  
H    7.0645987    1.6000160   -2.5084186  
C    5.5522410   -2.4902365    1.6009271  
C    4.5696935   -2.0751440    0.7604668  
C    3.3703467   -2.7893783    1.1296174  
C    3.7373305   -3.6608301    2.2621741  
N    5.0733294   -3.4324558    2.4984827  
C    2.8786723   -4.4972048    2.8984828  
C    1.5011802   -4.5422540    2.4369411  
O    0.6518826   -5.2629793    2.9444347  
C    1.0904895   -3.6280583    1.2388655  
O   -0.0663802   -3.6576350    0.8413259  
C    2.1052052   -2.7684200    0.6345265  
H    3.1681815   -5.1280462    3.7274179  
H    1.8126869   -2.1383361   -0.1944197  
H    6.5859534   -2.1872477    1.6399885  
H    5.6162910   -3.8797031    3.2141709  
C    3.3003543   -0.0005276    2.9438989  
C    2.5232812   -0.0003497    4.0790748  
C    1.1623199    0.0001319    3.6520102  
C    1.1711883   -0.0000583    2.2336141  
N    2.4852299    0.0014920    1.8362361  
C    0.0000000    0.0000000    1.4700000  
C   -1.2020384   -0.0000520    2.1506477  
O   -2.3759250   -0.0003494    1.4542253  
C   -1.2314658    0.0005113    3.5655508  
O   -2.5054393    0.0008037    4.0950179  
C   -0.0764518    0.0007272    4.3195194  
H    2.8919952    0.0005619    5.0905303  
H    2.8036267   -0.0088181    0.8841339  
H   -3.0835639   -0.0000348    2.1118817  
H   -2.4360050    0.0011527    5.0545920  
H   -0.1304098    0.0013421    5.4019087  
H    4.3715549   -0.0004895    2.8367138  
