64

C    3.4043863   -0.7238254   -2.9866275  
C    2.4861703   -0.0045376   -3.7159919  
C    3.2157089    0.7222556   -4.7029796  
C    4.5864978    0.4036881   -4.5258407  
N    4.6660327   -0.4752282   -3.4742718  
C    5.5976607    0.9414357   -5.3278175  
C    5.2180751    1.8164846   -6.3270086  
O    6.1647960    2.3704173   -7.1393469  
C    3.8554790    2.1469644   -6.5191806  
O    3.6389645    3.0322865   -7.5548781  
C    2.8574355    1.6170517   -5.7282136  
H    5.5126242   -0.8852828   -3.1233887  
H    6.6442485    0.7027676   -5.1978454  
H    5.6926566    2.9425396   -7.7582368  
H    2.6940964    3.2024847   -7.6170084  
H    1.8223829    1.8889696   -5.8991050  
H    3.2593067   -1.3934100   -2.1562257  
C    0.0000000    0.0000000    0.0000000  
C    1.0521669   -0.0011899   -0.8862338  
C    0.4917222   -0.0011953   -2.1979129  
C   -0.9187426    0.0003152   -2.0478681  
N   -1.1833169   -0.0009409   -0.7007913  
C   -1.7951697    0.0010354   -3.1372090  
C   -1.2375835    0.0005230   -4.4010425  
O   -2.0474206    0.0015366   -5.4997579  
C    0.1673585   -0.0013561   -4.5711965  
O    0.5673529   -0.0020681   -5.8915554  
C    1.0325774   -0.0023407   -3.4969889  
H    2.0953060   -0.0030646   -0.6200560  
H   -2.0989776    0.0102374   -0.2891826  
H   -1.4634880    0.0006503   -6.2693594  
H    1.5290717   -0.0033145   -5.9180047  
C   -3.9677023    0.7294876   -2.0473359  
C   -5.3028001    0.5139594   -2.1703667  
C   -5.4806582   -0.4130815   -3.2629769  
C   -4.1300536   -0.7222108   -3.7700235  
N   -3.2578649    0.0024042   -2.9908508  
C   -3.8704280   -1.5630981   -4.8030809  
C   -4.9963670   -2.2064514   -5.4595055  
O   -4.8663627   -2.9801356   -6.3990865  
C   -6.4355161   -1.8934428   -4.9392361  
O   -7.3912938   -2.4289374   -5.4842087  
C   -6.5888638   -0.9700846   -3.8177432  
H   -6.0749283    0.9542937   -1.5649429  
H   -2.8721626   -1.7762943   -5.1593438  
H   -7.5886275   -0.7588174   -3.4633949  
H   -3.4426507    1.3584750   -1.3469183  
C    3.3041272   -0.0001177    3.0120429  
C    2.5845372    0.0004780    1.8395852  
C    1.2040006    0.0000008    2.1983588  
C    1.1422373   -0.0006037    3.6154372  
N    2.4348639   -0.0026109    4.0777464  
C   -0.0655181   -0.0008797    4.3197917  
C   -1.2321768   -0.0002324    3.5801400  
O   -2.4392816   -0.0001146    4.2172520  
C   -1.1911209    0.0000007    2.1655264  
O   -2.4371527    0.0002320    1.5732860  
C    0.0000000    0.0000000    1.4700000  
H    3.0031534    0.0000661    0.8477417  
H    2.7054629    0.0071099    5.0445261  
H   -0.1193549   -0.0014844    5.3997470  
H   -3.1132988    0.0000648    3.5251786  
H   -2.3200282    0.0004071    0.6183591  
H    4.3686625   -0.0004071    3.1724291  
