62

C    2.3208572   -1.9450373   -8.4186537  
C    3.3086280   -2.7762738   -8.8938623  
C    3.2443606   -2.7275547  -10.3179746  
C    2.1891784   -1.8423355  -10.6569485  
N    1.6484344   -1.3864632   -9.4803461  
C    1.8398600   -1.5533679  -11.9795459  
C    2.5692221   -2.1690079  -12.9781422  
O    2.2705475   -1.9220581  -14.2868907  
C    3.6253962   -3.0556145  -12.6599548  
O    4.2556200   -3.5888010  -13.7653390  
C    3.9703831   -3.3413615  -11.3554016  
H    3.9907793   -3.3483249   -8.2885355  
H    0.8885398   -0.7346479   -9.4049928  
H    1.0366196   -0.8797207  -12.2445120  
H    2.8905828   -2.4448352  -14.8117967  
H    4.9552918   -4.1758126  -13.4628818  
H    4.7840820   -4.0247627  -11.1424802  
C    2.5385457   -2.1201622   -5.9030165  
C    1.9398804   -1.6207032   -7.0364216  
C    0.8981436   -0.7464321   -6.6062662  
C    0.9090951   -0.7521905   -5.1878960  
N    1.9159263   -1.5979816   -4.7935027  
C    0.0139741    0.0003876   -4.4216236  
C   -0.9088192    0.7730862   -5.0995376  
O   -1.8059700    1.5276807   -4.4004510  
C   -0.9357509    0.7917717   -6.5143672  
O   -1.9134457    1.6104179   -7.0409369  
C   -0.0531701    0.0493774   -7.2709569  
H    2.1691873   -1.7948564   -3.8421456  
H   -2.3501704    1.9823400   -5.0564966  
H   -1.8632056    1.5656626   -8.0006649  
H   -0.0979821    0.0837415   -8.3532177  
H    3.3594810   -2.8086772   -5.7982655  
C    3.2798085    0.0005853   -1.4499648  
C    2.5571144    0.0005562   -2.5996554  
C    1.1637436    0.0001546   -2.2210360  
C    1.1336965   -0.0000201   -0.7459470  
N    2.4483513   -0.0001430   -0.3402717  
C    0.0000000    0.0000000    0.0000000  
C   -1.2757367   -0.0000188   -0.6964414  
O   -2.3524597   -0.0000640   -0.1142313  
C   -1.2676494   -0.0000875   -2.2584081  
O   -2.3355762   -0.0004102   -2.8557294  
C    0.0181562    0.0001757   -2.9516296  
H    2.9547357    0.0006072   -3.5989105  
H    4.3498550    0.0008609   -1.3200021  
H    2.7563627    0.0012824    0.6148063  
C    0.8400945    0.7047457    2.2710304  
C    0.0000000    0.0000000    1.4700000  
C   -0.8844236   -0.7423113    2.3369512  
C   -0.4878984   -0.4098547    3.7186280  
N    0.5629682    0.4714286    3.6095011  
C   -1.0836927   -0.9095027    4.8308716  
C   -2.1891196   -1.8367527    4.6554461  
O   -2.7906899   -2.3413415    5.5944904  
C   -2.6257283   -2.2031529    3.2011665  
O   -3.5549479   -2.9829990    3.0410059  
C   -1.9068976   -1.5999348    2.0816745  
H   -0.7774656   -0.6525820    5.8354244  
H   -2.2155208   -1.8586617    1.0779135  
H    1.6384792    1.3747609    1.9961646  
H    1.0518368    0.8833920    4.3830260  
