62

C    4.4883233   -2.1196450   -1.5653718  
C    3.2264833   -1.6584956   -1.8612908  
C    3.3569169   -0.7714020   -2.9706385  
C    4.7331979   -0.7306581   -3.3113977  
N    5.3921658   -1.5590348   -2.4372290  
C    5.2292260    0.0454725   -4.3632368  
C    4.3192903    0.7938751   -5.0844084  
O    4.7495993    1.5692568   -6.1220171  
C    2.9421617    0.7667152   -4.7594537  
O    2.1637867    1.5664734   -5.5705401  
C    2.4521480    0.0014830   -3.7217483  
H    2.3232778   -1.9274439   -1.3408304  
H    6.3797230   -1.7398425   -2.4416111  
H    6.2770271    0.0809794   -4.6279122  
H    3.9649670    2.0016675   -6.4834556  
H    1.2484454    1.4907074   -5.2841611  
H    4.8153071   -2.8029908   -0.8004673  
C    0.0000000    0.0000000    0.0000000  
C    1.0662921   -0.0000106   -0.8334269  
C    0.4961870    0.0000059   -2.1718889  
C   -0.9663856   -0.0000854   -1.9540246  
N   -1.2632773   -0.0000087   -0.6828657  
C   -1.8985362   -0.0000522   -3.0477258  
C   -1.3925773    0.0004558   -4.3020541  
O   -2.1456384    0.0005402   -5.4151311  
C    0.0786236    0.0009315   -4.5544999  
O    0.4683762    0.0012578   -5.7221098  
C    1.0143167    0.0008435   -3.4159031  
H    2.1107198    0.0000631   -0.5721865  
H   -1.5042271    0.0009682   -6.1484419  
C   -4.4234435    2.1223642   -0.0294726  
C   -3.3650552    1.6607018   -0.7772358  
C   -3.9025220    0.7730943   -1.7559504  
C   -5.3060598    0.7325801   -1.5550351  
N   -5.5885468    1.5615826   -0.4978818  
C   -6.1607755   -0.0439299   -2.3432496  
C   -5.5882321   -0.7929551   -3.3528700  
O   -6.3766925   -1.5687283   -4.1525694  
C   -4.1898432   -0.7660330   -3.5687435  
O   -3.7729986   -1.5664208   -4.6122781  
C   -3.3460094   -0.0004268   -2.7913647  
H   -2.3324968    1.9296469   -0.6341110  
H   -6.5054886    1.7426746   -0.1312695  
H   -7.2312981   -0.0792646   -2.1951467  
H   -5.7851984   -2.0015463   -4.7819085  
H   -2.8170934   -1.4907775   -4.6905557  
H   -4.4392676    2.8061855    0.8018500  
C    1.0672568    0.0000697    2.3021913  
C    0.0000000    0.0000000    1.4700000  
C   -1.1601224    0.0000736    2.3478473  
C   -0.5938729    0.0000769    3.7138435  
N    0.7113367    0.0001554    3.6934124  
C   -1.4286986    0.0001879    4.8835240  
C   -2.7683114    0.0006799    4.6970523  
O   -3.6653903    0.0008304    5.6976972  
C   -3.3702025    0.0010610    3.3310774  
O   -4.5974910    0.0013779    3.2362962  
C   -2.4926826    0.0008943    2.1470656  
H   -0.9878360   -0.0000190    5.8697035  
H   -4.5324246    0.0012261    5.2533954  
H   -2.9677772    0.0012974    1.1752040  
H    2.1134392    0.0000545    2.0405121  
