60

C    1.4528603   -2.9610542   -9.2889549  
C    2.2116569   -2.5264719  -10.3509495  
C    1.9508172   -1.1327653  -10.5063342  
C    1.0172519   -0.7695566   -9.5021135  
N    0.7346328   -1.9035473   -8.7818285  
C    0.5323426    0.5336369   -9.3560345  
C    0.9985830    1.4876149  -10.2396204  
O    0.5582078    2.7758247  -10.1416508  
C    1.9298802    1.1446078  -11.2485059  
O    2.2974447    2.2058710  -12.0497300  
C    2.4084795   -0.1408815  -11.3933729  
H    2.8711166   -3.1389028  -10.9417412  
H    0.1109068   -1.9519068   -7.9965849  
H    1.0015510    3.2700526  -10.8433978  
H    2.9277126    1.8890520  -12.7039402  
H    3.1212515   -0.3736969  -12.1758243  
H    1.3660595   -3.9419949   -8.8540081  
C    0.2574168   -0.6856121   -5.1816669  
C   -0.8287665    0.0000939   -4.7555305  
C   -1.2821017    0.7456923   -5.9196050  
C   -0.3285010    0.3820836   -6.9896606  
N    0.5761659   -0.4566990   -6.5630338  
C   -0.4351970    0.9186760   -8.3184834  
C   -1.4487055    1.7790892   -8.5671271  
O   -1.6679598    2.3556225   -9.7611025  
C   -2.4274560    2.1653065   -7.5083327  
O   -3.3248656    2.9536924   -7.8055255  
C   -2.2967100    1.6013192   -6.1530661  
H   -2.4560473    2.9123843   -9.6266159  
H   -3.0259293    1.9061168   -5.4144402  
H    0.8824803   -1.3579201   -4.6157423  
C    1.0672569   -0.0000698   -0.8321910  
C    0.0000000    0.0000000    0.0000000  
C   -1.1601223   -0.0000736   -0.8778472  
C   -0.5938729   -0.0000768   -2.2438435  
N    0.7113367   -0.0001553   -2.2234123  
C   -1.4286985   -0.0001877   -3.4135239  
C   -2.7683113   -0.0006798   -3.2270524  
O   -3.6653902   -0.0008302   -4.2276970  
C   -3.3702024   -0.0010610   -1.8610774  
O   -4.5974910   -0.0013779   -1.7662963  
C   -2.4926825   -0.0008943   -0.6770658  
H   -4.5324245   -0.0012258   -3.7833954  
H   -2.9677772   -0.0012974    0.2947961  
H    2.1134391   -0.0000547   -0.5705119  
C    2.5128556    2.1077716    2.9199648  
C    1.9592212    1.6432552    4.0696553  
C    0.8915788    0.7479214    3.6910360  
C    0.8684491    0.7287414    2.2159470  
N    1.8754542    1.5738793    1.8102719  
C    0.0000000    0.0000000    1.4700000  
C   -0.9772830   -0.8200135    2.1664417  
O   -1.8021297   -1.5120829    1.5842315  
C   -0.9711318   -0.8147624    3.7284083  
O   -1.7894187   -1.5009653    4.3257297  
C    0.0140216    0.0115358    4.4216297  
H    2.2638494    1.8988021    5.0689105  
H    0.0117648    0.0094386    5.5031631  
H    3.3327358    2.7953732    2.7900019  
H    2.1123206    1.7707734    0.8551938  
