62

C    0.6936368   -0.7066095   -5.1527421  
C    0.3462077   -0.4553043   -6.4598790  
C   -0.7528345    0.4534777   -6.4312305  
C   -1.0341488    0.7235434   -5.0674660  
N   -0.1387074    0.0017015   -4.3179686  
C   -2.0601481    1.5827600   -4.6626691  
C   -2.8157357    2.1804672   -5.6526248  
O   -3.8298703    3.0285541   -5.3130773  
C   -2.5506561    1.9232735   -7.0187878  
O   -3.3906535    2.5937317   -7.8837922  
C   -1.5388174    1.0755377   -7.4188527  
H    0.8251970   -0.8761778   -7.3273052  
H   -2.2797242    1.7926343   -3.6249113  
H   -4.2227237    3.3302833   -6.1424686  
H   -3.1443862    2.3650595   -8.7852722  
H   -1.3595342    0.8977365   -8.4727603  
H    1.4683930   -1.3361781   -4.7498092  
C    3.3041276    0.0001179   -1.5420426  
C    2.5845373   -0.0004778   -0.3695850  
C    1.2040008   -0.0000007   -0.7283588  
C    1.1422377    0.0006038   -2.1454370  
N    2.4348643    0.0026110   -2.6077459  
C   -0.0655176    0.0008796   -2.8497919  
C   -1.2321760    0.0002323   -2.1101404  
O   -2.4392811    0.0001143   -2.7472523  
C   -1.1911205   -0.0000006   -0.6955268  
O   -2.4371526   -0.0002322   -0.1032865  
C    0.0000000    0.0000000    0.0000000  
H    3.0031533   -0.0000657    0.6222587  
H    2.7054636   -0.0071097   -3.5745259  
H   -3.1132988   -0.0000651   -2.0551790  
H   -2.3200280   -0.0004074    0.8516406  
C    6.7370865   -0.0041878    1.2348630  
C    5.4910175   -0.0033130    0.6950609  
C    5.6537436   -0.0009467   -0.7396342  
C    7.1071784   -0.0005407   -0.9932430  
N    7.7077100   -0.0021732    0.2445975  
C    7.6723927    0.0010941   -2.2270317  
C    6.7903718    0.0027773   -3.3822684  
O    7.2023948    0.0043780   -4.5348892  
C    5.2477327    0.0026337   -3.1371769  
O    4.4952278    0.0043480   -4.1020571  
C    4.7577225    0.0005133   -1.7610455  
H    4.5636984   -0.0040394    1.2397554  
H    8.7410254    0.0012333   -2.3911459  
H    7.0279700   -0.0059179    2.2727808  
H    8.6984750   -0.0038990    0.4040619  
C    0.8175213    0.6860729    2.3021913  
C    0.0000000    0.0000000    1.4700000  
C   -0.8887526   -0.7456559    2.3478473  
C   -0.4549825   -0.3816753    3.7138435  
N    0.5448156    0.4573574    3.6934124  
C   -1.0945674   -0.9182058    4.8835240  
C   -2.1210866   -1.7789155    4.6970523  
O   -2.8083856   -2.3554314    5.6976972  
C   -2.5824069   -2.1655116    3.3310774  
O   -3.5227682   -2.9541547    3.2362962  
C   -1.9100805   -1.6015804    2.1470656  
H   -0.7567140   -0.6349833    5.8697035  
H   -3.4728268   -2.9124471    5.2533954  
H   -2.2742832   -1.9066565    1.1752040  
H    1.6189533    1.3585343    2.0405121  
