62

C    2.8349221    0.0005882   -7.1268112  
C    3.4270920    0.0002957   -5.8851180  
C    4.8377255   -0.0001414   -6.0965721  
C    5.0483181    0.0001929   -7.4992758  
N    3.8115399   -0.0013181   -8.0950896  
C    6.3235092    0.0002130   -8.0725790  
C    7.4058243    0.0001969   -7.2142253  
O    8.6732895    0.0005660   -7.7207273  
C    7.2160828   -0.0005099   -5.8117931  
O    8.3928478   -0.0008551   -5.0916759  
C    5.9583639   -0.0008034   -5.2455180  
H    2.9063922   -0.0007189   -4.9428529  
H    3.6442160    0.0090884   -9.0849761  
H    6.4907316    0.0003228   -9.1408661  
H    9.2707091    0.0001852   -6.9615469  
H    8.1758511   -0.0013016   -4.1543840  
H    5.8442813   -0.0015281   -4.1678062  
C   -0.8712823    0.0001712   -4.7267111  
C    0.4246872    0.0002197   -5.1323438  
C    0.4138928    0.0002760   -6.5761997  
C   -1.0047698    0.0002856   -6.9813994  
N   -1.7322696   -0.0001788   -5.8136521  
C   -1.4369651    0.0007304   -8.2678333  
C   -0.4382355    0.0010072   -9.3238034  
O   -0.7266349    0.0013503  -10.5133951  
C    1.0700325    0.0007503   -8.9176837  
O    1.9199277    0.0006732   -9.7979906  
C    1.4124577    0.0005499   -7.4976145  
H    1.2895154    0.0000339   -4.4930585  
H   -2.4823848    0.0008590   -8.5435282  
H   -2.7343167    0.0012687   -5.7593670  
C    1.0965515    0.0001358   -0.8010304  
C    0.0000000    0.0000000    0.0000000  
C   -1.1546562    0.0001470   -0.8669514  
C   -0.6372012    0.0003520   -2.2486282  
N    0.7342873    0.0007338   -2.1395014  
C   -1.4147737    0.0001354   -3.3608717  
C   -2.8576047   -0.0001047   -3.1854463  
O   -3.6427778   -0.0002491   -4.1244908  
C   -3.4275837   -0.0000725   -1.7311667  
O   -4.6406828    0.0000333   -1.5710061  
C   -2.4891866   -0.0001090   -0.6116745  
H   -2.8919121   -0.0002919    0.3920865  
H    2.1388272    0.0000662   -0.5261647  
H    1.3735873   -0.0006098   -2.9130261  
C    0.8576279    0.7185626    2.2703808  
C    0.0000000    0.0000000    1.4700000  
C   -0.8668858   -0.7285659    2.3373528  
C   -0.4876752   -0.4117774    3.6669281  
N    0.5635254    0.4678311    3.5902241  
C   -1.1297612   -0.9515493    4.7854808  
C   -2.1738724   -1.8268314    4.5576857  
O   -2.8357962   -2.3827064    5.6140350  
C   -2.5667212   -2.1555554    3.2384331  
O   -3.6226318   -3.0413663    3.1773122  
C   -1.9335634   -1.6236449    2.1344818  
H    1.0363952    0.8769718    4.3757045  
H   -0.8454472   -0.7142436    5.8013813  
H   -3.5178062   -2.9546422    5.2385129  
H   -3.8247440   -3.2102924    2.2519915  
H   -2.2566033   -1.8942483    1.1360343  
H    1.6567807    1.3889844    2.0042067  
