64

C   -0.3433004    0.6434119   -9.3306424  
C    0.7428813   -0.1873332   -9.4807722  
C    1.1204968   -0.1346836  -10.8552670  
C    0.2210224    0.7523171  -11.5003258  
N   -0.6559486    1.2054245  -10.5462666  
C    0.2961617    1.0451709  -12.8653835  
C    1.2977438    0.4316575  -13.5924401  
O    1.4167990    0.6824146  -14.9288387  
C    2.2045649   -0.4566742  -12.9668535  
O    3.1447266   -0.9873630  -13.8258110  
C    2.1308650   -0.7462553  -11.6202887  
H    1.2053891   -0.7615878   -8.6963547  
H   -1.4021360    1.8576528  -10.7068424  
H   -0.3864134    1.7201930  -13.3630179  
H    2.1684255    0.1605632  -15.2386672  
H    3.7172161   -1.5757674  -13.3241748  
H    2.8394242   -1.4308978  -11.1689718  
C   -0.0037894   -0.7105357   -5.1341629  
C   -1.0641734    0.0073898   -4.6315339  
C   -1.6260113    0.7376868   -5.7203886  
C   -0.8603254    0.4225624   -6.8720602  
N    0.1176067   -0.4577637   -6.4805350  
C   -1.1316213    0.9642911   -8.1321066  
C   -2.1954360    1.8398552   -8.2314162  
O   -2.5045515    2.3976109   -9.4382178  
C   -2.9709720    2.1669376   -7.0937083  
O   -3.9953199    3.0532737   -7.3553649  
C   -2.7037384    1.6330961   -5.8502753  
H    0.8069746   -0.8660654   -7.0855500  
H   -3.2684074    2.9694094   -9.2871062  
H   -4.4693360    3.2210058   -6.5351342  
H   -3.3151846    1.9024720   -4.9970178  
H    0.6764262   -1.3817976   -4.6385083  
C    1.1319248    0.0015675   -0.8009270  
C    0.7969916    0.0034959   -2.1169404  
C   -0.6453336    0.0035703   -2.1842672  
C   -1.1266831    0.0015415   -0.7896027  
N    0.0000000    0.0000000    0.0000000  
C   -2.4346129    0.0013924   -0.4276297  
C   -3.4350110    0.0031352   -1.4820184  
O   -4.6384610    0.0030897   -1.2583919  
C   -2.9478958    0.0050460   -2.9661075  
O   -3.7809377    0.0062160   -3.8623775  
C   -1.5113821    0.0053068   -3.2312125  
H    1.4821240    0.0045436   -2.9459192  
H   -2.7664565    0.0000185    0.6013447  
H    2.1104318    0.0009428   -0.3488058  
C    0.8676693    0.7151171    2.2619005  
C    0.5875920    0.4624972    3.5848544  
C   -0.5048400   -0.4542819    3.6114698  
C   -0.8517165   -0.7276451    2.2635546  
N    0.0000000    0.0000000    1.4700000  
C   -1.8902865   -1.5946756    1.9108239  
C   -2.5912627   -2.1969500    2.9375057  
O   -3.6148162   -3.0527051    2.6493466  
C   -2.2603868   -1.9365747    4.2886322  
O   -3.0513550   -2.6123276    5.1947621  
C   -1.2361111   -1.0811317    4.6373480  
H    1.1060808    0.8876438    4.4271209  
H   -2.1597133   -1.8070987    0.8854031  
H   -3.9636755   -3.3565188    3.4974381  
H   -2.7621927   -2.3810384    6.0827341  
H   -1.0058879   -0.9010589    5.6809233  
H    1.6167816    1.3499334    1.8205408  
