62

C   -5.9662910   -0.7194675   -6.3744313  
C   -6.7798109   -0.0017024   -5.5285796  
C   -7.6933115    0.7259688   -6.3474875  
C   -7.3866831    0.4094814   -7.6957239  
N   -6.3320048   -0.4690937   -7.6763206  
C   -8.0891978    0.9485659   -8.7776894  
C   -9.1202279    1.8228376   -8.4934295  
O   -9.8391822    2.3780087   -9.5122051  
C   -9.4410476    2.1512462   -7.1547601  
O  -10.4929370    3.0360262   -7.0362859  
C   -8.7482504    1.6200142   -6.0868885  
H   -5.9021652   -0.8778127   -8.4863626  
H   -7.8603383    0.7114845   -9.8075529  
H  -10.5003138    2.9492964   -9.1001375  
H  -10.6445773    3.2048034   -6.1013401  
H   -9.0167599    1.8903538   -5.0723454  
H   -5.1531848   -1.3890926   -6.1521268  
C   -3.3460096   -0.0004265   -2.7913646  
C   -4.0050885   -0.0007131   -1.6040609  
C   -5.4169936   -0.0010567   -1.9063186  
C   -5.5272431   -0.0009754   -3.3775888  
N   -4.2366045   -0.0001895   -3.8541818  
C   -6.6998410   -0.0016249   -4.0607563  
C   -7.9358014   -0.0022339   -3.2959439  
O   -9.0426019   -0.0027798   -3.8187170  
C   -7.8427529   -0.0020786   -1.7367304  
O   -8.8766028   -0.0022805   -1.0821970  
C   -6.5211391   -0.0016359   -1.1144848  
H   -3.5536954   -0.0005045   -0.6279167  
H   -6.4653747   -0.0017365   -0.0343859  
H   -3.9810062   -0.0015046   -4.8246018  
C    0.0000000    0.0000000    0.0000000  
C    1.0662919   -0.0000103   -0.8334269  
C    0.4961869    0.0000064   -2.1718889  
C   -0.9663859   -0.0000850   -1.9540246  
N   -1.2632774   -0.0000084   -0.6828657  
C   -1.8985363   -0.0000518   -3.0477257  
C   -1.3925778    0.0004564   -4.3020545  
O   -2.1456384    0.0005409   -5.4151311  
C    0.0786230    0.0009323   -4.5544998  
O    0.4683758    0.0012588   -5.7221098  
C    1.0143164    0.0008442   -3.4159030  
H    2.1107195    0.0000633   -0.5721867  
H   -1.5042275    0.0009691   -6.1484418  
H    2.0724152    0.0013148   -3.6409744  
C    3.3003543   -0.0005276    2.9438989  
C    2.5232812   -0.0003497    4.0790748  
C    1.1623199    0.0001319    3.6520102  
C    1.1711883   -0.0000583    2.2336141  
N    2.4852299    0.0014920    1.8362361  
C    0.0000000    0.0000000    1.4700000  
C   -1.2020384   -0.0000520    2.1506477  
O   -2.3759250   -0.0003494    1.4542253  
C   -1.2314658    0.0005113    3.5655508  
O   -2.5054393    0.0008037    4.0950179  
C   -0.0764518    0.0007272    4.3195194  
H    2.8919952    0.0005619    5.0905303  
H    2.8036267   -0.0088181    0.8841339  
H   -3.0835639   -0.0000348    2.1118817  
H   -2.4360050    0.0011527    5.0545920  
H   -0.1304098    0.0013421    5.4019087  
H    4.3715549   -0.0004895    2.8367138  
