62

C    0.0000000    0.0000000    0.0000000  
C    1.0521664   -0.0011851   -0.8862348  
C    0.4917202   -0.0011938   -2.1979134  
C   -0.9187444    0.0003096   -2.0478678  
N   -1.1833179   -0.0009472   -0.7007905  
C   -1.7951721    0.0010252   -3.1372078  
C   -1.2375866    0.0005151   -4.4010416  
O   -2.0474248    0.0015244   -5.4997569  
C    0.1673546   -0.0013569   -4.5711962  
O    0.5673488   -0.0020673   -5.8915555  
C    1.0325747   -0.0023369   -3.4969896  
H    2.0953051   -0.0030547   -0.6200575  
H   -2.0989778    0.0102265   -0.2891814  
H   -2.8710949    0.0020268   -3.0295498  
H   -1.4634926    0.0006406   -6.2693586  
H    1.5290671   -0.0033093   -5.9180052  
C    4.2912444   -2.1142262   -1.4465428  
C    5.3462991   -1.6514736   -2.1654271  
C    4.8141523   -0.7556743   -3.1650263  
C    3.3521090   -0.7342993   -2.9681418  
N    3.0997545   -1.5787399   -1.9116728  
C    2.4861677   -0.0045268   -3.7159935  
C    3.0304349    0.8143591   -4.7863833  
O    2.3328448    1.5072196   -5.5155015  
C    4.5758766    0.8067818   -5.0130044  
O    5.0456220    1.4920197   -5.9113639  
C    5.4069258   -0.0204581   -4.1418653  
H    6.3794131   -1.9084809   -2.0129899  
H    4.2838764   -2.8015585   -0.6162357  
H    2.1903382   -1.7741895   -1.5350985  
C    8.3810306   -3.2489149   -4.0189475  
C    9.4982339   -2.5367132   -4.3167737  
C    9.0867021   -1.1647974   -4.4993251  
C    7.6277091   -1.1359010   -4.2818508  
N    7.2617649   -2.4307426   -3.9948674  
C    6.8600598   -0.0197976   -4.3639023  
C    7.5144525    1.2368246   -4.6882571  
O    6.9101726    2.2968838   -4.7853170  
C    9.0587042    1.2295501   -4.9228630  
O    9.6206163    2.2814293   -5.1968454  
C    9.7783363   -0.0363208   -4.8064431  
H   10.4966454   -2.9278223   -4.3993548  
H   10.8474020   -0.0327776   -4.9701807  
H    8.2811645   -4.3026794   -3.8152396  
H    6.3260789   -2.7342455   -3.7963104  
C    1.1243417   -0.0099156    2.2619005  
C    0.7474090   -0.0234034    3.5848544  
C   -0.6787367   -0.0234952    3.6114698  
C   -1.1201739   -0.0099357    2.2635546  
N    0.0000000    0.0000000    1.4700000  
C   -2.4730812   -0.0065396    1.9108239  
C   -3.3971947   -0.0173298    2.9375057  
O   -4.7313508   -0.0149487    2.6493466  
C   -2.9763630   -0.0305536    4.2886322  
O   -4.0166453   -0.0397858    5.1947621  
C   -1.6418541   -0.0336380    4.6373480  
H    1.4178735   -0.0310004    4.4271209  
H   -2.8160170    0.0039190    0.8854031  
H   -5.1938803   -0.0234410    3.4974381  
H   -3.6464643   -0.0484781    6.0827341  
H   -1.3497443   -0.0436789    5.6809233  
H    2.1062470   -0.0051382    1.8205408  
