60

C    7.9950481   -5.3252419   -6.9386806  
C    7.2630916   -4.4030577   -6.2271426  
C    7.4267904   -3.1465937   -6.8821996  
C    8.2761532   -3.3658724   -7.9968413  
N    8.6043260   -4.6988788   -8.0006589  
C    8.6538084   -2.3435029   -8.8725845  
C    8.1648886   -1.0767539   -8.6186493  
O    8.5018621   -0.0418579   -9.4423316  
C    7.3165204   -0.8379843   -7.5113659  
O    6.9134795    0.4761387   -7.3931160  
C    6.9437607   -1.8460484   -6.6468525  
H    6.6834634   -4.6102338   -5.3439090  
H    9.1875208   -5.1510350   -8.6814069  
H    9.3009663   -2.5040830   -9.7238197  
H    8.0605196    0.7421033   -9.0903543  
H    6.3441594    0.5513761   -6.6212243  
H    8.1318649   -6.3799496   -6.7718525  
C    6.1923726   -2.0934461   -4.2359240  
C    5.2191581   -1.6310079   -3.4094380  
C    4.3967567   -0.7348790   -4.1875410  
C    4.9747504   -0.7130128   -5.5448307  
N    6.0607561   -1.5568759   -5.5077372  
C    4.4832125    0.0165646   -6.5781807  
C    3.3064978    0.8350542   -6.3374477  
O    2.7884372    1.5278082   -7.2034758  
C    2.6779834    0.8273398   -4.9075121  
O    1.6873116    1.5127139   -4.6928203  
C    3.2973506   -0.0000934   -3.8752374  
H    5.0920136   -1.8881512   -2.3729410  
H    4.9222075    0.0183442   -7.5662032  
H    6.9947907   -2.7809153   -4.0228480  
C    3.3321174    0.0004714   -1.3379332  
C    2.6974186    0.0000115   -2.5332308  
C    1.2800441   -0.0002119   -2.2052838  
C    1.2395035    0.0000643   -0.7271293  
N    2.4394063    0.0005458   -0.2131034  
C    0.0000000    0.0000000    0.0000000  
C   -1.1468701    0.0000634   -0.7169542  
O   -2.3742201    0.0000072   -0.1695492  
C   -1.1388767    0.0001606   -2.2096354  
O   -2.2206229    0.0000903   -2.7970413  
C    0.1454526    0.0001815   -2.9324239  
H   -2.9844344    0.0001023   -0.9290168  
H    0.1083580    0.0003680   -4.0135594  
H    4.3940040    0.0007617   -1.1498630  
C    2.5128556    2.1077716    2.9199648  
C    1.9592212    1.6432552    4.0696553  
C    0.8915788    0.7479214    3.6910360  
C    0.8684491    0.7287414    2.2159470  
N    1.8754542    1.5738793    1.8102719  
C    0.0000000    0.0000000    1.4700000  
C   -0.9772830   -0.8200135    2.1664417  
O   -1.8021297   -1.5120829    1.5842315  
C   -0.9711318   -0.8147624    3.7284083  
O   -1.7894187   -1.5009653    4.3257297  
C    0.0140216    0.0115358    4.4216297  
H    2.2638494    1.8988021    5.0689105  
H    0.0117648    0.0094386    5.5031631  
H    3.3327358    2.7953732    2.7900019  
H    2.1123206    1.7707734    0.8551938  
