62

C    7.6084048   -3.7448687   -4.7779583  
C    8.3499569   -4.5422312   -3.9372571  
C    7.8129430   -4.3775821   -2.6261101  
C    6.7360416   -3.4602475   -2.7295868  
N    6.6403204   -3.0943467   -4.0492730  
C    5.9725964   -3.0628164   -1.6277753  
C    6.3020887   -3.6014703   -0.3991726  
O    5.5890720   -3.2479585    0.7097229  
C    7.3733565   -4.5179515   -0.2756323  
O    7.5769069   -4.9645378    1.0137364  
C    8.1271154   -4.9102686   -1.3621226  
H    9.1769948   -5.1650004   -4.2324887  
H    5.1506691   -2.3639429   -1.6999815  
H    5.9785848   -3.7308822    1.4502164  
H    8.3173807   -5.5787728    1.0095273  
H    8.9418286   -5.6138122   -1.2366323  
H    7.6943630   -3.5876133   -5.8394858  
C    5.6440038   -2.1665154   -4.6036942  
C    5.4988194   -1.7703771   -5.8896084  
C    4.3672731   -0.8561077   -5.8749505  
C    3.9392116   -0.8155203   -4.4601362  
N    4.6839519   -1.5816217   -3.7101763  
C    2.8310662   -0.0116220   -4.0232752  
C    2.1803844    0.7188362   -4.9572875  
O    1.1296276    1.5131872   -4.6909084  
C    2.5886424    0.6993193   -6.3929425  
O    1.9508843    1.3890596   -7.1883943  
C    3.7285770   -0.1333896   -6.8161078  
H    6.0870098   -2.0624405   -6.7427252  
H    0.8853383    1.8982288   -5.5518488  
H    3.9927892   -0.1198655   -7.8650304  
C    3.3041270    0.0001177   -1.5420434  
C    2.5845372   -0.0004781   -0.3695856  
C    1.2040006   -0.0000008   -0.7283592  
C    1.1422371    0.0006037   -2.1454375  
N    2.4348636    0.0026109   -2.6077467  
C   -0.0655183    0.0008798   -2.8497920  
C   -1.2321770    0.0002326   -2.1101400  
O   -2.4392818    0.0001147   -2.7472520  
C   -1.1911210   -0.0000007   -0.6955263  
O   -2.4371527   -0.0002320   -0.1032859  
C    0.0000000    0.0000000    0.0000000  
H    3.0031533   -0.0000660    0.6222577  
H   -0.1193553    0.0014844   -3.9297472  
H   -3.1132989   -0.0000648   -2.0551784  
H   -2.3200282   -0.0004069    0.8516410  
H    4.3686624    0.0004070   -1.7024294  
C    2.5128556    2.1077716    2.9199648  
C    1.9592212    1.6432552    4.0696553  
C    0.8915788    0.7479214    3.6910360  
C    0.8684491    0.7287414    2.2159470  
N    1.8754542    1.5738793    1.8102719  
C    0.0000000    0.0000000    1.4700000  
C   -0.9772830   -0.8200135    2.1664417  
O   -1.8021297   -1.5120829    1.5842315  
C   -0.9711318   -0.8147624    3.7284083  
O   -1.7894187   -1.5009653    4.3257297  
C    0.0140216    0.0115358    4.4216297  
H    2.2638494    1.8988021    5.0689105  
H    0.0117648    0.0094386    5.5031631  
H    3.3327358    2.7953732    2.7900019  
H    2.1123206    1.7707734    0.8551938  
