64

C   -1.1149615    0.6331321   -8.9713572  
C   -0.1500714   -0.1972679   -9.4927880  
C   -0.2793879   -0.1458842  -10.9123789  
C   -1.3488437    0.7400242  -11.2010926  
N   -1.8351533    1.1937259  -10.0001466  
C   -1.7582376    1.0314819  -12.5057921  
C   -1.0753893    0.4176696  -13.5378433  
O   -1.4335650    0.6670811  -14.8311023  
C   -0.0058940   -0.4695867  -13.2699406  
O    0.5730482   -1.0007409  -14.4039792  
C    0.3983488   -0.7577905  -11.9830637  
H    0.5589676   -0.7704864   -8.9203572  
H   -2.5907162    1.8454405   -9.8889063  
H   -2.5726605    1.7056667  -12.7324943  
H   -0.8382550    0.1452526  -15.3847864  
H    1.2857374   -1.5883548  -14.1349310  
H    1.2208375   -1.4416321  -11.8088471  
C    0.6781142   -0.7162598   -5.1604645  
C   -0.1387079    0.0017019   -4.3179684  
C   -1.0478129    0.7305977   -5.1406708  
C   -0.7352233    0.4146204   -6.4876569  
N    0.3186251   -0.4648429   -6.4638853  
C   -1.4322861    0.9549029   -7.5725470  
C   -2.4638923    1.8298708   -7.2925530  
O   -3.1776738    2.3862184   -8.3143196  
C   -2.7906190    2.1577870   -5.9551904  
O   -3.8423105    3.0433750   -5.8410699  
C   -2.1032017    1.6253724   -4.8844344  
H    0.7518616   -0.8734599   -7.2721674  
H   -3.8402272    2.9578221   -7.9049826  
H   -3.9981266    3.2117475   -4.9067382  
H   -2.3761698    1.8953598   -3.8709881  
H    1.4896295   -1.3866876   -4.9347903  
C    3.3041273    0.0001178   -1.5420428  
C    2.5845373   -0.0004780   -0.3695851  
C    1.2040007   -0.0000007   -0.7283589  
C    1.1422374    0.0006038   -2.1454372  
N    2.4348641    0.0026111   -2.6077464  
C   -0.0655179    0.0008799   -2.8497918  
C   -1.2321766    0.0002325   -2.1101402  
O   -2.4392814    0.0001148   -2.7472522  
C   -1.1911209   -0.0000007   -0.6955266  
O   -2.4371528   -0.0002320   -0.1032862  
C    0.0000000    0.0000000    0.0000000  
H    3.0031533   -0.0000660    0.6222584  
H    2.7054631   -0.0071097   -3.5745261  
H   -3.1132988   -0.0000648   -2.0551787  
H   -2.3200282   -0.0004072    0.8516409  
H    4.3686625    0.0004073   -1.7024290  
C    2.5128556    2.1077716    2.9199648  
C    1.9592212    1.6432552    4.0696553  
C    0.8915788    0.7479214    3.6910360  
C    0.8684491    0.7287414    2.2159470  
N    1.8754542    1.5738793    1.8102719  
C    0.0000000    0.0000000    1.4700000  
C   -0.9772830   -0.8200135    2.1664417  
O   -1.8021297   -1.5120829    1.5842315  
C   -0.9711318   -0.8147624    3.7284083  
O   -1.7894187   -1.5009653    4.3257297  
C    0.0140216    0.0115358    4.4216297  
H    2.2638494    1.8988021    5.0689105  
H    0.0117648    0.0094386    5.5031631  
H    3.3327358    2.7953732    2.7900019  
H    2.1123206    1.7707734    0.8551938  
