64

C    5.7435531    0.7080494   -6.3058209  
C    5.6091810    0.4581551   -7.6519128  
C    6.6473288   -0.4512524   -8.0122269  
C    7.3897487   -0.7231359   -6.8345938  
N    6.8155224   -0.0017288   -5.8175125  
C    8.4917597   -1.5833983   -6.8170367  
C    8.8506595   -2.1803017   -8.0099642  
O    9.9186409   -3.0293485   -8.0493137  
C    8.1225845   -1.9212960   -9.1955610  
O    8.6043556   -2.5911486  -10.3012449  
C    7.0354825   -1.0725277   -9.2136752  
H    4.8562794    0.8803458   -8.2952539  
H    9.0618581   -1.7946586   -5.9228565  
H    9.9946550   -3.3302751   -8.9641525  
H    8.0571811   -2.3612424  -11.0584427  
H    6.4973998   -0.8933424  -10.1371674  
H    5.1604242    1.3375420   -5.6556982  
C    4.5679461   -0.0016854   -2.0086701  
C    5.6536976   -0.0029096   -1.1639161  
C    6.8200673   -0.0036910   -1.9850016  
C    6.3798481   -0.0025969   -3.3333827  
N    5.0072029   -0.0033438   -3.3118968  
C    7.2630028   -0.0026617   -4.4172768  
C    8.6151887   -0.0035460   -4.1348426  
O    9.5213679   -0.0032988   -5.1555548  
C    9.0739282   -0.0050196   -2.7960472  
O   10.4486141   -0.0061822   -2.6795165  
C    8.2032437   -0.0052295   -1.7262645  
H    5.6103771   -0.0043086   -0.0882233  
H    4.4140948    0.0077040   -4.1218859  
H   10.3956197   -0.0043278   -4.7445217  
H   10.6745772   -0.0071109   -1.7443460  
H    8.5841288   -0.0065539   -0.7116693  
C    3.1301149   -0.0010311   -1.7028252  
C    2.5367768   -0.0002767   -0.4864665  
C    1.1089904    0.0001028   -0.7656183  
C    1.0177872   -0.0004148   -2.2415132  
N    2.1993578   -0.0011611   -2.7963820  
C   -0.2459209   -0.0002877   -2.9257118  
C   -1.3675319   -0.0000605   -2.1698524  
O   -2.6129313    0.0000867   -2.6748490  
C   -1.3083584    0.0000910   -0.6783232  
O   -2.3693261    0.0004206   -0.0541692  
C    0.0000000    0.0000000    0.0000000  
H    3.0096017   -0.0001007    0.4807525  
H   -0.2829630   -0.0004687   -4.0053125  
H   -3.1967441    0.0002094   -1.8949034  
C    0.8576279    0.7185626    2.2703808  
C    0.0000000    0.0000000    1.4700000  
C   -0.8668858   -0.7285659    2.3373528  
C   -0.4876752   -0.4117774    3.6669281  
N    0.5635254    0.4678311    3.5902241  
C   -1.1297612   -0.9515493    4.7854808  
C   -2.1738724   -1.8268314    4.5576857  
O   -2.8357962   -2.3827064    5.6140350  
C   -2.5667212   -2.1555554    3.2384331  
O   -3.6226318   -3.0413663    3.1773122  
C   -1.9335634   -1.6236449    2.1344818  
H    1.0363952    0.8769718    4.3757045  
H   -0.8454472   -0.7142436    5.8013813  
H   -3.5178062   -2.9546422    5.2385129  
H   -3.8247440   -3.2102924    2.2519915  
H   -2.2566033   -1.8942483    1.1360343  
H    1.6567807    1.3889844    2.0042067  
