60

C    6.6202828    0.0003740    2.4412955  
C    7.7022204    0.0015581    3.2909280  
C    7.1870840    0.0028006    4.6210527  
C    5.7723034    0.0020160    4.5194631  
N    5.4616928    0.0024959    3.1822507  
C    4.9337457    0.0025649    5.6382174  
C    5.5343424    0.0036235    6.8821860  
O    4.7626564    0.0038463    8.0080257  
C    6.9442933    0.0047937    7.0040626  
O    7.3893293    0.0061837    8.3099284  
C    7.7721684    0.0045264    5.9008173  
H    8.7356196    0.0026351    2.9891354  
H    4.5324501   -0.0084284    2.8022902  
H    3.8547629    0.0021165    5.5675169  
H    5.3726369    0.0049213    8.7571506  
H    8.3513897    0.0068828    8.3033835  
H    8.8487130    0.0056273    6.0254313  
C    6.5698748   -0.0006426    0.9721604  
C    7.6069608   -0.0018566    0.1026600  
C    6.9912938   -0.0024303   -1.2154651  
C    5.5370524   -0.0015106   -0.9475766  
N    5.2839248   -0.0003802    0.3330147  
C    4.5679461   -0.0016854   -2.0086701  
C    5.0305954   -0.0023424   -3.2796108  
O    4.2398094   -0.0025846   -4.3662103  
C    6.4922743   -0.0029067   -3.5823566  
O    6.8417596   -0.0036170   -4.7626448  
C    7.4664607   -0.0027577   -2.4765153  
H    8.6597322   -0.0022169    0.3279327  
H    4.8556973   -0.0030409   -5.1210843  
H    8.5162191   -0.0030652   -2.7377369  
C    3.1301149   -0.0010311   -1.7028252  
C    2.5367768   -0.0002767   -0.4864665  
C    1.1089904    0.0001028   -0.7656183  
C    1.0177872   -0.0004148   -2.2415132  
N    2.1993578   -0.0011611   -2.7963820  
C   -0.2459209   -0.0002877   -2.9257118  
C   -1.3675319   -0.0000605   -2.1698524  
O   -2.6129313    0.0000867   -2.6748490  
C   -1.3083584    0.0000910   -0.6783232  
O   -2.3693261    0.0004206   -0.0541692  
C    0.0000000    0.0000000    0.0000000  
H    3.0096017   -0.0001007    0.4807525  
H   -0.2829630   -0.0004687   -4.0053125  
H   -3.1967441    0.0002094   -1.8949034  
C    2.5528530    2.1414826    2.8079335  
C    2.0663498    1.7338582    4.0032312  
C    0.9804344    0.8229586    3.6752840  
C    0.9495562    0.7966882    2.1971295  
N    1.8690446    1.5676019    1.6831036  
C    0.0000000    0.0000000    1.4700000  
C   -0.8785127   -0.7372425    2.1869543  
O   -1.8187535   -1.5261249    1.6395491  
C   -0.8723269   -0.7321790    3.6796354  
O   -1.7010379   -1.4274584    4.2670412  
C    0.1115397    0.0933559    4.4024240  
H    2.4028853    2.0163452    4.9860947  
H   -2.2861435   -1.9184361    2.3990168  
H    0.0832434    0.0693689    5.4835595  
H    3.3664920    2.8238276    2.6198634  
