66

C    2.1198998   -3.0555537   -8.9895279  
C    1.8089423   -1.8321957   -8.4425652  
C    1.7510121   -0.8976318   -9.5185913  
C    2.0374864   -1.6146115  -10.7084652  
N    2.2584896   -2.9215722  -10.3512148  
C    2.0670765   -1.0085561  -11.9680722  
C    1.8023567    0.3459012  -12.0276291  
O    1.8177791    0.9877710  -13.2321119  
C    1.5147676    1.0785494  -10.8514767  
O    1.2732028    2.4181384  -11.0761793  
C    1.4856712    0.4813678   -9.6084747  
H    2.4740284   -3.6684083  -10.9866364  
H    2.2848903   -1.5494051  -12.8786988  
H    1.6105136    1.9137335  -13.0507317  
H    1.0876167    2.8395982  -10.2314709  
H    1.2625099    1.0684012   -8.7252596  
H    2.2552048   -4.0128035   -8.5158983  
C    2.3020059   -2.1258164   -5.9826638  
C    1.8093621   -1.6631473   -4.7844546  
C    0.7354061   -0.7757530   -5.0906404  
C    0.6179774   -0.7364004   -6.5036468  
N    1.5853775   -1.5658597   -7.0142844  
C   -0.3411001    0.0396021   -7.1615064  
C   -1.1974272    0.7893048   -6.3786729  
O   -2.1529117    1.5646257   -6.9693855  
C   -1.0957282    0.7635436   -4.9673579  
O   -2.0198648    1.5644921   -4.3287681  
C   -0.1496415   -0.0015615   -4.3176961  
H    2.1793384   -1.9313017   -3.8096706  
H   -0.4356784    0.0740519   -8.2381070  
H   -2.6343335    1.9980531   -6.2526991  
H   -1.8828077    1.4896272   -3.3794451  
H    3.1087984   -2.8098330   -6.1830798  
C    3.3003543    0.0005276   -1.4738987  
C    2.5232814    0.0003497   -2.6090747  
C    1.1623200   -0.0001320   -2.1820103  
C    1.1711883    0.0000582   -0.7636140  
N    2.4852300   -0.0014919   -0.3662360  
C    0.0000000    0.0000000    0.0000000  
C   -1.2020384    0.0000519   -0.6806477  
O   -2.3759249    0.0003493    0.0157743  
C   -1.2314656   -0.0005115   -2.0955510  
O   -2.5054392   -0.0008039   -2.6250180  
C   -0.0764516   -0.0007274   -2.8495195  
H    2.8919955   -0.0005620   -3.6205304  
H    2.8036267    0.0088183    0.5858662  
H   -3.0835638    0.0000347   -0.6418818  
H   -2.4360047   -0.0011529   -3.5845921  
H    4.3715549    0.0004895   -1.3667136  
C    2.5311839    2.1237619    3.0120429  
C    1.9795631    1.6616747    1.8395852  
C    0.9223175    0.7739173    2.1983588  
C    0.8753926    0.7337535    3.6154372  
N    1.8668922    1.5631002    4.0777464  
C   -0.0496243   -0.0427881    4.3197917  
C   -0.9437528   -0.7922060    3.5801400  
O   -1.8685244   -1.5680278    4.2172520  
C   -0.9124520   -0.7656372    2.1655264  
O   -1.8671164   -1.5663939    1.5732860  
C    0.0000000    0.0000000    1.4700000  
H    2.3005065    1.9304404    0.8477417  
H    2.0679347    1.7444845    5.0445261  
H   -0.0904770   -0.0778569    5.3997470  
H   -2.3849669   -2.0011402    3.5251786  
H   -1.7775064   -1.4909735    0.6183591  
H    3.3468514    2.8078103    3.1724291  
