64

C    0.1782451    0.7120217   -7.3277859  
C   -1.0161123    0.4624225   -7.9631424  
C   -0.7397098   -0.4464252   -9.0271896  
C    0.6519578   -0.7182872   -8.9914160  
N    1.1793678    0.0025944   -7.9489253  
C    1.2781450   -1.5780611   -9.8988664  
C    0.4849528   -2.1744891  -10.8597505  
O    1.0449155   -3.0230475  -11.7704664  
C   -0.9053790   -1.9154962  -10.9118828  
O   -1.5578052   -2.5848414  -11.9266050  
C   -1.5237555   -1.0672097  -10.0171510  
H   -1.9691310    0.8844461   -7.6936150  
H    2.3383818   -1.7893023   -9.8770114  
H    0.3260664   -3.3236986  -12.3415442  
H   -2.4913663   -2.3549802  -11.8915041  
H   -2.5906080   -0.8880214  -10.0819233  
H    0.3954492    1.3410816   -6.4815795  
C    3.1006060    0.0006268   -3.9654947  
C    4.4058790   -0.0003346   -4.3999234  
C    4.3701024   -0.0003774   -5.8258687  
C    3.0041049    0.0008756   -6.2079354  
N    2.2602341   -0.0004912   -5.0541280  
C    2.5925321    0.0014921   -7.5441226  
C    3.5778761    0.0011383   -8.5122515  
O    3.2316408    0.0020604   -9.8325298  
C    4.9461768   -0.0004834   -8.1509106  
O    5.8059950   -0.0010616   -9.2298265  
C    5.3529312   -0.0013652   -6.8329293  
H    5.2766923   -0.0020369   -3.7669344  
H    1.2572718    0.0105050   -5.0102246  
H    4.0587365    0.0013142  -10.3317066  
H    6.7093478   -0.0021360   -8.8988329  
H    6.4083295   -0.0027870   -6.5867369  
C    3.2798085    0.0005859   -1.4499648  
C    2.5571146    0.0005569   -2.5996553  
C    1.1637437    0.0001551   -2.2210359  
C    1.1336966   -0.0000198   -0.7459471  
N    2.4483513   -0.0001427   -0.3402720  
C    0.0000000    0.0000000    0.0000000  
C   -1.2757366   -0.0000185   -0.6964416  
O   -2.3524595   -0.0000640   -0.1142313  
C   -1.2676493   -0.0000870   -2.2584084  
O   -2.3355759   -0.0004098   -2.8557296  
C    0.0181563    0.0001763   -2.9516295  
H    0.0150795    0.0003323   -4.0331630  
H    4.3498549    0.0008614   -1.3200020  
H    2.7563627    0.0012824    0.6148062  
C    2.5311839    2.1237619    3.0120429  
C    1.9795631    1.6616747    1.8395852  
C    0.9223175    0.7739173    2.1983588  
C    0.8753926    0.7337535    3.6154372  
N    1.8668922    1.5631002    4.0777464  
C   -0.0496243   -0.0427881    4.3197917  
C   -0.9437528   -0.7922060    3.5801400  
O   -1.8685244   -1.5680278    4.2172520  
C   -0.9124520   -0.7656372    2.1655264  
O   -1.8671164   -1.5663939    1.5732860  
C    0.0000000    0.0000000    1.4700000  
H    2.3005065    1.9304404    0.8477417  
H    2.0679347    1.7444845    5.0445261  
H   -0.0904770   -0.0778569    5.3997470  
H   -2.3849669   -2.0011402    3.5251786  
H   -1.7775064   -1.4909735    0.6183591  
H    3.3468514    2.8078103    3.1724291  
