62

C    2.4963620   -2.1240792   -5.9704919  
C    1.9480114   -1.6619034   -4.7965367  
C    0.8896190   -0.7743524   -5.1524289  
C    0.8386567   -0.7344002   -6.5693737  
N    1.8289587   -1.5636688   -7.0343826  
C   -0.0884740    0.0419043   -7.2712052  
C   -0.9806045    0.7912982   -6.5291205  
O   -1.9072989    1.5668925   -7.1637111  
C   -0.9452756    0.7649386   -5.1145981  
O   -1.8983682    1.5656408   -4.5197594  
C   -0.0307359   -0.0004648   -4.4215606  
H    2.2718145   -1.9304788   -3.8055716  
H    2.0272766   -1.7451631   -8.0017035  
H   -0.1324047    0.0768112   -8.3510451  
H   -2.4218338    2.0000296   -6.4702335  
H   -1.8060311    1.4903718   -3.5650808  
H    3.3116701   -2.8080314   -6.1330999  
C    3.2573667   -0.0002920   -1.5109386  
C    2.5379466   -0.0001709   -0.3591965  
C    1.1435040    0.0000332   -0.7338503  
C    1.1092604   -0.0000083   -2.2088478  
N    2.4227557    0.0001908   -2.6182616  
C   -0.0265538   -0.0002523   -2.9515663  
C   -1.3003040   -0.0002641   -2.2514979  
O   -2.3786787   -0.0004133   -2.8306426  
C   -1.2877728    0.0000312   -0.6895607  
O   -2.3539959    0.0003306   -0.0892033  
C    0.0000000    0.0000000    0.0000000  
H    2.9384091   -0.0000368    0.6389234  
H    2.7280486   -0.0013408   -3.5742120  
C    6.5860092   -0.0008873    1.4009368  
C    7.6166242   -0.0011137    0.4897294  
C    7.0248897   -0.0012669   -0.8081343  
C    5.6184276   -0.0008356   -0.6243133  
N    5.3862298   -0.0025644    0.7287197  
C    4.7161330   -0.0005435   -1.6923266  
C    5.2432555   -0.0003825   -2.9691660  
O    4.4073061    0.0002543   -4.0481478  
C    6.6437145   -0.0011825   -3.1729579  
O    7.0119358   -0.0013265   -4.5025281  
C    7.5344420   -0.0017441   -2.1198053  
H    8.6658466   -0.0022676    0.7308189  
H    4.4806937    0.0078489    1.1621678  
H    4.9726186   -0.0000401   -4.8315290  
H    7.9727444   -0.0018528   -4.5520295  
H    8.6019014   -0.0025341   -2.3069106  
H    6.6118217   -0.0011080    2.4771773  
C    2.5528530    2.1414826    2.8079335  
C    2.0663498    1.7338582    4.0032312  
C    0.9804344    0.8229586    3.6752840  
C    0.9495562    0.7966882    2.1971295  
N    1.8690446    1.5676019    1.6831036  
C    0.0000000    0.0000000    1.4700000  
C   -0.8785127   -0.7372425    2.1869543  
O   -1.8187535   -1.5261249    1.6395491  
C   -0.8723269   -0.7321790    3.6796354  
O   -1.7010379   -1.4274584    4.2670412  
C    0.1115397    0.0933559    4.4024240  
H    2.4028853    2.0163452    4.9860947  
H   -2.2861435   -1.9184361    2.3990168  
H    0.0832434    0.0693689    5.4835595  
H    3.3664920    2.8238276    2.6198634  
