62

C    2.0368118   -1.9882066   -8.3979538  
C    3.0139591   -2.8268065   -8.8821028  
C    2.9152344   -2.8034384  -10.3048844  
C    1.8509479   -1.9253817  -10.6338784  
N    1.3381617   -1.4492091   -9.4528092  
C    1.4693758   -1.6602717  -11.9525550  
C    2.1752468   -2.2928473  -12.9574300  
O    1.8446967   -2.0694545  -14.2627446  
C    3.2400239   -3.1726584  -12.6492125  
O    3.8440916   -3.7247839  -13.7598896  
C    3.6168257   -3.4348732  -11.3485247  
H    3.7113270   -3.3873717   -8.2834060  
H    0.5794100   -0.7968830   -9.3706655  
H    0.6590382   -0.9922002  -12.2099185  
H    2.4525895   -2.6008765  -14.7931421  
H    4.5516778   -4.3056672  -13.4640839  
H    4.4363748   -4.1136112  -11.1432613  
C    2.2991562   -2.1048094   -5.8924434  
C    1.6888962   -1.6397490   -7.0128795  
C    0.6412942   -0.7448177   -6.5810646  
C    0.6916338   -0.7264669   -5.1066432  
N    1.7177155   -1.5716517   -4.7520883  
C   -0.1387079    0.0017019   -4.3179684  
C   -1.1495777    0.8219302   -4.9644230  
O   -1.9445178    1.5135264   -4.3414737  
C   -1.2212023    0.8175538   -6.5247612  
O   -2.0683176    1.5039443   -7.0802107  
C   -0.2716611   -0.0081804   -7.2666415  
H   -0.3277640   -0.0054788   -8.3467194  
H    3.1245934   -2.7923367   -5.8038534  
H    2.0018703   -1.7690375   -3.8101000  
C    3.3041273    0.0001178   -1.5420428  
C    2.5845373   -0.0004780   -0.3695851  
C    1.2040007   -0.0000007   -0.7283589  
C    1.1422374    0.0006038   -2.1454372  
N    2.4348641    0.0026111   -2.6077464  
C   -0.0655179    0.0008799   -2.8497918  
C   -1.2321766    0.0002325   -2.1101402  
O   -2.4392814    0.0001148   -2.7472522  
C   -1.1911209   -0.0000007   -0.6955266  
O   -2.4371528   -0.0002320   -0.1032862  
C    0.0000000    0.0000000    0.0000000  
H    3.0031533   -0.0000660    0.6222584  
H    2.7054631   -0.0071097   -3.5745261  
H   -3.1132988   -0.0000648   -2.0551787  
H   -2.3200282   -0.0004072    0.8516409  
H    4.3686625    0.0004073   -1.7024290  
C    2.4951002    2.0940188    2.9809380  
C    1.9440701    1.6314916    1.8291961  
C    0.8759964    0.7350050    2.2038498  
C    0.8497377    0.7130254    3.6788474  
N    1.8560616    1.5571714    4.0882609  
C   -0.0205033   -0.0168748    4.4215661  
C   -0.9962600   -0.8356168    3.7214979  
O   -1.8224391   -1.5286685    4.3006425  
C   -0.9864710   -0.8277881    2.1595606  
O   -1.8030528   -1.5133726    1.5592035  
C    0.0000000    0.0000000    1.4700000  
H    2.2509283    1.8888011    0.8310761  
H   -0.0229599   -0.0187323    5.5027230  
H    3.3143982    2.7817323    3.1139444  
H    2.0889452    1.7545833    5.0442112  
