62

C    1.4615880   -2.4092921   -7.7241805  
C    1.0290744   -1.1067201   -7.6308767  
C    1.3472308   -0.4727098   -8.8683774  
C    1.9778514   -1.4462428   -9.6847568  
N    2.0330314   -2.6101422   -8.9588706  
C    2.4277128   -1.1709049  -10.9795947  
C    2.2372278    0.1104706  -11.4591466  
O    2.6571040    0.4333769  -12.7171017  
C    1.6104216    1.0956976  -10.6596092  
O    1.4943071    2.3229499  -11.2790550  
C    1.1666157    0.8248498   -9.3820318  
H    2.4179874   -3.4787703   -9.2833325  
H    2.9092213   -1.9084311  -11.6068164  
H    2.4308475    1.3630797  -12.8502324  
H    1.0608056    2.9303453  -10.6718066  
H    0.6902252    1.5999666   -8.7931994  
H    1.4089565   -3.2105839   -7.0071590  
C    0.6885597   -0.7240811   -5.1615363  
C    0.3679862   -0.5066230   -6.4630814  
C   -0.7389732    0.4203825   -6.4747895  
C   -1.0391605    0.7273879   -5.0632571  
N   -0.1387079    0.0017019   -4.3179684  
C   -2.0220506    1.5676125   -4.6513659  
C   -2.8389251    2.2124435   -5.6659809  
O   -3.7486897    2.9856811   -5.3962910  
C   -2.5388540    1.9016923   -7.1670462  
O   -3.2201644    2.4384449   -8.0301651  
C   -1.4526781    0.9788645   -7.4871438  
H   -2.2256245    1.7792440   -3.6108468  
H   -1.2512205    0.7691640   -8.5288561  
H    1.4594145   -1.3536502   -4.7476343  
C    3.3041273    0.0001178   -1.5420428  
C    2.5845373   -0.0004780   -0.3695851  
C    1.2040007   -0.0000007   -0.7283589  
C    1.1422374    0.0006038   -2.1454372  
N    2.4348641    0.0026111   -2.6077464  
C   -0.0655179    0.0008799   -2.8497918  
C   -1.2321766    0.0002325   -2.1101402  
O   -2.4392814    0.0001148   -2.7472522  
C   -1.1911209   -0.0000007   -0.6955266  
O   -2.4371528   -0.0002320   -0.1032862  
C    0.0000000    0.0000000    0.0000000  
H    3.0031533   -0.0000660    0.6222584  
H    2.7054631   -0.0071097   -3.5745261  
H   -3.1132988   -0.0000648   -2.0551787  
H   -2.3200282   -0.0004072    0.8516409  
H    4.3686625    0.0004073   -1.7024290  
C    0.0000000    0.0000000    1.4700000  
C    1.0541688    0.0001722    2.3260392  
C    0.5103138    0.0000454    3.6635956  
C   -0.9576371   -0.0002459    3.5155732  
N   -1.2018458    0.0001392    2.1615969  
C   -1.8348311   -0.0008317    4.5510609  
C   -1.2972847   -0.0009736    5.9014604  
O   -2.0050672   -0.0014265    6.9001319  
C    0.2542623   -0.0004184    6.0817573  
O    0.7184670   -0.0002256    7.2139121  
C    1.0974552   -0.0000873    4.8889129  
H    2.0940752    0.0005483    2.0517982  
H   -2.9081052   -0.0011668    4.4207061  
H    2.1707277    0.0000911    5.0223670  
H   -2.1128194   -0.0014912    1.7406791  
