60

C    8.8929592   -0.0031757   -2.8314838  
C   10.0070394   -0.0032651   -2.0244573  
C   11.1445678   -0.0043640   -2.8850553  
C   10.6583692   -0.0046241   -4.2175482  
N    9.2872690   -0.0058373   -4.1490046  
C   11.5038372   -0.0053403   -5.3310887  
C   12.8649145   -0.0054952   -5.0951885  
O   13.7355580   -0.0058351   -6.1463741  
C   13.3692916   -0.0056164   -3.7729100  
O   14.7471660   -0.0061896   -3.7035869  
C   12.5358044   -0.0051834   -2.6739003  
H   10.0006314   -0.0037231   -0.9479110  
H    8.6667309    0.0042809   -4.9381884  
H   11.1395560   -0.0056860   -6.3491759  
H   14.6233910   -0.0061895   -5.7655614  
H   15.0050656   -0.0062074   -2.7767150  
H   12.9512565   -0.0054713   -1.6729619  
C    6.5698745   -0.0006427    0.9721610  
C    7.6069601   -0.0018567    0.1026612  
C    6.9912940   -0.0024304   -1.2154643  
C    5.5370524   -0.0015106   -0.9475764  
N    5.2839240   -0.0003802    0.3330154  
C    4.5679461   -0.0016854   -2.0086701  
C    5.0305960   -0.0023424   -3.2796107  
O    4.2398095   -0.0025848   -4.3662099  
C    6.4922749   -0.0029068   -3.5823560  
O    6.8417602   -0.0036170   -4.7626442  
C    7.4664609   -0.0027578   -2.4765143  
H    8.6597324   -0.0022169    0.3279336  
H    4.8556978   -0.0030410   -5.1210839  
H    6.6068538    0.0001032    2.0499390  
C    3.1301149   -0.0010311   -1.7028252  
C    2.5367768   -0.0002767   -0.4864665  
C    1.1089904    0.0001028   -0.7656183  
C    1.0177872   -0.0004148   -2.2415132  
N    2.1993578   -0.0011611   -2.7963820  
C   -0.2459209   -0.0002877   -2.9257118  
C   -1.3675319   -0.0000605   -2.1698524  
O   -2.6129313    0.0000867   -2.6748490  
C   -1.3083584    0.0000910   -0.6783232  
O   -2.3693261    0.0004206   -0.0541692  
C    0.0000000    0.0000000    0.0000000  
H    3.0096017   -0.0001007    0.4807525  
H   -0.2829630   -0.0004687   -4.0053125  
H   -3.1967441    0.0002094   -1.8949034  
C    0.0000000    0.0000000    1.4700000  
C    1.0662921    0.0000102    2.3034270  
C    0.4961870   -0.0000064    3.6418889  
C   -0.9663858    0.0000850    3.4240247  
N   -1.2632773    0.0000084    2.1528658  
C   -1.8985362    0.0000517    4.5177257  
C   -1.3925775   -0.0004564    5.7720543  
O   -2.1456383   -0.0005410    6.8851312  
C    0.0786232   -0.0009323    6.0245000  
O    0.4683759   -0.0012588    7.1921102  
C    1.0143166   -0.0008442    4.8859032  
H    2.1107198   -0.0000632    2.0421868  
H   -2.9622183    0.0003270    4.3293377  
H   -1.5042274   -0.0009692    7.6184419  
H    2.0724152   -0.0013148    5.1109744  
