62

C    1.3109482   -2.3016103   -7.3441161  
C    2.2498500   -2.5038316   -8.3290203  
C    2.3951857   -1.2677309   -9.0258217  
C    1.5123598   -0.3399451   -8.4161027  
N    0.8680465   -1.0008110   -7.3998672  
C    1.3918598    0.9847060   -8.8468789  
C    2.1770899    1.3800466   -9.9123814  
O    2.0993623    2.6624442  -10.3732802  
C    3.0636829    0.4688859  -10.5341191  
O    3.7765476    1.0141579  -11.5819002  
C    3.1828790   -0.8381384  -10.1098476  
H    2.7656461   -3.4288208   -8.5222661  
H    0.7207835    1.6966965   -8.3865212  
H    2.7208514    2.7258894  -11.1101585  
H    4.3508724    0.3334975  -11.9458452  
H    3.8704726   -1.5131519  -10.6058822  
H    0.9211172   -2.9827363   -6.6071908  
C   -0.2208272   -0.6524176   -5.1346212  
C   -1.2456329    0.0471727   -4.5828766  
C   -1.8635343    0.7999336   -5.6488900  
C   -1.1093182    0.4792271   -6.8757132  
N   -0.1268911   -0.4059223   -6.4959277  
C   -1.3831929    0.9908180   -8.1024863  
C   -2.4948521    1.9194408   -8.2225243  
O   -2.8209724    2.4343803   -9.2840247  
C   -3.3072325    2.2735258   -6.9362635  
O   -4.2451139    3.0544077   -7.0249352  
C   -2.9168444    1.6579633   -5.6703520  
H   -0.8175713    0.7423918   -8.9897665  
H   -3.4845597    1.9082094   -4.7844623  
H    0.4738209   -1.3271520   -4.6612429  
C    1.1243410    0.0099923   -0.7919003  
C    0.7474076    0.0234544   -2.1148543  
C   -0.6787381    0.0234490   -2.1414700  
C   -1.1201745    0.0098592   -0.7935546  
N    0.0000000    0.0000000    0.0000000  
C   -2.4730816    0.0063709   -0.4408240  
C   -3.3971958    0.0170982   -1.4675058  
O   -4.7313517    0.0146259   -1.1793471  
C   -2.9763648    0.0303504   -2.8186324  
O   -4.0166480    0.0395118   -3.7247624  
C   -1.6418562    0.0335260   -3.1673481  
H    1.4178717    0.0310972   -2.9571209  
H   -2.8160166   -0.0041111    0.5845966  
H   -5.1938818    0.0230867   -2.0274384  
H   -3.6464675    0.0482293   -4.6127343  
H    2.1062467    0.0052819   -0.3505407  
C    0.0000000    0.0000000    1.4700000  
C    1.0662921    0.0000102    2.3034270  
C    0.4961870   -0.0000064    3.6418889  
C   -0.9663858    0.0000850    3.4240247  
N   -1.2632773    0.0000084    2.1528658  
C   -1.8985362    0.0000517    4.5177257  
C   -1.3925775   -0.0004564    5.7720543  
O   -2.1456383   -0.0005410    6.8851312  
C    0.0786232   -0.0009323    6.0245000  
O    0.4683759   -0.0012588    7.1921102  
C    1.0143166   -0.0008442    4.8859032  
H    2.1107198   -0.0000632    2.0421868  
H   -2.9622183    0.0003270    4.3293377  
H   -1.5042274   -0.0009692    7.6184419  
H    2.0724152   -0.0013148    5.1109744  
