62

C    9.6876636    0.7155362   -4.6424292  
C   11.0404480    0.4673623   -4.6132482  
C   11.2739111   -0.4416973   -3.5391412  
C   10.0155863   -0.7151517   -2.9443565  
N    9.0743779    0.0050263   -3.6372398  
C    9.8661699   -1.5755521   -1.8524887  
C   11.0077835   -2.1709808   -1.3521260  
O   10.9189516   -3.0200896   -0.2871678  
C   12.2722967   -1.9103958   -1.9317096  
O   13.3125598   -2.5788969   -1.3199066  
C   12.4204808   -1.0614904   -3.0087089  
H   11.7694662    0.8904476   -5.2829681  
H    8.9099564   -1.7880055   -1.3945359  
H   11.8182978   -3.3198644   -0.1012172  
H   14.1300003   -2.3479735   -1.7716457  
H   13.4019668   -0.8810777   -3.4313383  
H    9.1119207    1.3442657   -5.2998308  
C    6.6317370    0.0027575   -4.3241615  
C    5.4016575    0.0020952   -3.7488541  
C    5.6054515    0.0015083   -2.3194126  
C    7.0655600    0.0019150   -2.1075798  
N    7.6303538    0.0022713   -3.3621306  
C    7.6659167    0.0019591   -0.8905027  
C    6.8173812    0.0013545    0.2895490  
O    7.2622819    0.0012817    1.4298836  
C    5.2683493    0.0006644    0.0887880  
O    4.5438183   -0.0001546    1.0748485  
C    4.7390840    0.0009613   -1.2727298  
H    4.4591018    0.0018434   -4.2667371  
H    8.7388159    0.0023907   -0.7570952  
H    6.8927419    0.0033433   -5.3699943  
C    3.2798077    0.0005856   -1.4499661  
C    2.5571132    0.0005565   -2.5996564  
C    1.1637425    0.0001547   -2.2210366  
C    1.1336959   -0.0000200   -0.7459475  
N    2.4483509   -0.0001429   -0.3402730  
C    0.0000000    0.0000000    0.0000000  
C   -1.2757370   -0.0000187   -0.6964411  
O   -2.3524597   -0.0000640   -0.1142306  
C   -1.2676502   -0.0000874   -2.2584078  
O   -2.3355774   -0.0004102   -2.8557287  
C    0.0181551    0.0001758   -2.9516297  
H    2.9547342    0.0006074   -3.5989118  
H    0.0150776    0.0003317   -4.0331632  
H    2.7563626    0.0012823    0.6148051  
C    0.8576279    0.7185626    2.2703808  
C    0.0000000    0.0000000    1.4700000  
C   -0.8668858   -0.7285659    2.3373528  
C   -0.4876752   -0.4117774    3.6669281  
N    0.5635254    0.4678311    3.5902241  
C   -1.1297612   -0.9515493    4.7854808  
C   -2.1738724   -1.8268314    4.5576857  
O   -2.8357962   -2.3827064    5.6140350  
C   -2.5667212   -2.1555554    3.2384331  
O   -3.6226318   -3.0413663    3.1773122  
C   -1.9335634   -1.6236449    2.1344818  
H    1.0363952    0.8769718    4.3757045  
H   -0.8454472   -0.7142436    5.8013813  
H   -3.5178062   -2.9546422    5.2385129  
H   -3.8247440   -3.2102924    2.2519915  
H   -2.2566033   -1.8942483    1.1360343  
H    1.6567807    1.3889844    2.0042067  
