60

C    1.4926193   -2.9435932   -9.4401035  
C    0.7403770   -1.9818569   -8.8063351  
C    0.9620459   -0.7555633   -9.5003587  
C    1.8660568   -1.0331638  -10.5575374  
N    2.1695493   -2.3703593  -10.4910650  
C    2.3089430   -0.0530702  -11.4508780  
C    1.8302834    1.2305822  -11.2739619  
O    2.2299792    2.2259397  -12.1180710  
C    0.9280173    1.5273426  -10.2248357  
O    0.5432704    2.8514826  -10.1804767  
C    0.4908844    0.5610108   -9.3429946  
H    0.1103348   -2.1439663   -7.9485714  
H    2.7802015   -2.8588740  -11.1206980  
H    2.9979636   -0.2581723  -12.2585818  
H    1.7847200    3.0304354  -11.8217692  
H   -0.0653243    2.9668753   -9.4443378  
H    1.6009611   -3.9928032   -9.2247455  
C    0.2653132   -0.7042848   -5.1440086  
C   -0.8287665    0.0000939   -4.7555305  
C   -1.2825954    0.7423468   -5.9078915  
C   -0.3566072    0.4102558   -7.0074602  
N    0.5584967   -0.4707817   -6.4790217  
C   -0.4467549    0.9099655   -8.2659785  
C   -1.5278135    1.8369015   -8.5569048  
O   -1.6939210    2.3415171   -9.6596613  
C   -2.5200358    2.2029120   -7.4074112  
O   -3.4339545    2.9824917   -7.6403703  
C   -2.3204910    1.5996617   -6.0920693  
H   -3.0119743    1.8581181   -5.3016423  
H    0.8822126   -1.3741500   -4.5672890  
H    1.3206155   -0.8824729   -6.9857086  
C    1.0672569   -0.0000698   -0.8321910  
C    0.0000000    0.0000000    0.0000000  
C   -1.1601223   -0.0000736   -0.8778472  
C   -0.5938729   -0.0000768   -2.2438435  
N    0.7113367   -0.0001553   -2.2234123  
C   -1.4286985   -0.0001877   -3.4135239  
C   -2.7683113   -0.0006798   -3.2270524  
O   -3.6653902   -0.0008302   -4.2276970  
C   -3.3702024   -0.0010610   -1.8610774  
O   -4.5974910   -0.0013779   -1.7662963  
C   -2.4926825   -0.0008943   -0.6770658  
H   -4.5324245   -0.0012258   -3.7833954  
H   -2.9677772   -0.0012974    0.2947961  
H    2.1134391   -0.0000547   -0.5705119  
C    2.5128556    2.1077716    2.9199648  
C    1.9592212    1.6432552    4.0696553  
C    0.8915788    0.7479214    3.6910360  
C    0.8684491    0.7287414    2.2159470  
N    1.8754542    1.5738793    1.8102719  
C    0.0000000    0.0000000    1.4700000  
C   -0.9772830   -0.8200135    2.1664417  
O   -1.8021297   -1.5120829    1.5842315  
C   -0.9711318   -0.8147624    3.7284083  
O   -1.7894187   -1.5009653    4.3257297  
C    0.0140216    0.0115358    4.4216297  
H    2.2638494    1.8988021    5.0689105  
H    0.0117648    0.0094386    5.5031631  
H    3.3327358    2.7953732    2.7900019  
H    2.1123206    1.7707734    0.8551938  
