62

C    3.2646377   -3.6245708   -3.9691296  
C    2.8914949   -3.0241931   -5.1492902  
C    3.7922663   -3.4858829   -6.1543043  
C    4.7008124   -4.3734992   -5.5229509  
N    4.3533844   -4.4335358   -4.1961855  
C    5.7306525   -5.0192711   -6.2137448  
C    5.8452235   -4.7645916   -7.5665906  
O    6.8328476   -5.3689206   -8.2893593  
C    4.9486044   -3.8818159   -8.2143539  
O    5.1937406   -3.7318776   -9.5637129  
C    3.9325745   -3.2441881   -7.5334423  
H    4.8133802   -4.9925063   -3.5005302  
H    6.4264681   -5.6967892   -5.7383378  
H    6.7351537   -5.0577215   -9.1986862  
H    4.5445465   -3.1204395   -9.9246752  
H    3.2612374   -2.5732246   -8.0565024  
H    2.8411834   -3.5386367   -2.9830969  
C    1.7720686   -2.0859332   -5.3149827  
C    0.8968260   -1.6247189   -4.3847634  
C   -0.0065340   -0.7270826   -5.0652228  
C    0.4171834   -0.7029976   -6.4782599  
N    1.5002587   -1.5471464   -6.5634088  
C   -0.1857670    0.0284590   -7.4494066  
C   -1.3281512    0.8467742   -7.0781198  
O   -1.9388962    1.5411253   -7.8800975  
C   -1.7940049    0.8367264   -5.5872527  
O   -2.7544408    1.5219332   -5.2627290  
C   -1.0641734    0.0073898   -4.6315339  
H    0.8854569   -1.8836207   -3.3409943  
H    0.1408060    0.0318502   -8.4800608  
H    2.0129022   -1.7433385   -7.4034994  
C    1.1319248    0.0015675   -0.8009270  
C    0.7969916    0.0034959   -2.1169404  
C   -0.6453336    0.0035703   -2.1842672  
C   -1.1266831    0.0015415   -0.7896027  
N    0.0000000    0.0000000    0.0000000  
C   -2.4346129    0.0013924   -0.4276297  
C   -3.4350110    0.0031352   -1.4820184  
O   -4.6384610    0.0030897   -1.2583919  
C   -2.9478958    0.0050460   -2.9661075  
O   -3.7809377    0.0062160   -3.8623775  
C   -1.5113821    0.0053068   -3.2312125  
H    1.4821240    0.0045436   -2.9459192  
H   -2.7664565    0.0000185    0.6013447  
H    2.1104318    0.0009428   -0.3488058  
C    2.5311839    2.1237619    3.0120429  
C    1.9795631    1.6616747    1.8395852  
C    0.9223175    0.7739173    2.1983588  
C    0.8753926    0.7337535    3.6154372  
N    1.8668922    1.5631002    4.0777464  
C   -0.0496243   -0.0427881    4.3197917  
C   -0.9437528   -0.7922060    3.5801400  
O   -1.8685244   -1.5680278    4.2172520  
C   -0.9124520   -0.7656372    2.1655264  
O   -1.8671164   -1.5663939    1.5732860  
C    0.0000000    0.0000000    1.4700000  
H    2.3005065    1.9304404    0.8477417  
H    2.0679347    1.7444845    5.0445261  
H   -0.0904770   -0.0778569    5.3997470  
H   -2.3849669   -2.0011402    3.5251786  
H   -1.7775064   -1.4909735    0.6183591  
H    3.3468514    2.8078103    3.1724291  
