60

C    0.7994104   -0.7303988   -9.5897463  
C    0.2970127    0.5329591   -9.3800051  
C    0.8435907    1.3722920  -10.3955715  
C    1.6791852    0.5586687  -11.2028651  
N    1.6312120   -0.7117277  -10.6847829  
C    2.3831945    1.0556582  -12.3038471  
C    2.2408477    2.3983932  -12.5953588  
O    2.9054819    2.9356597  -13.6596049  
C    1.4120472    3.2264546  -11.8014955  
O    1.3747903    4.5404909  -12.2201408  
C    0.7174415    2.7368980  -10.7150403  
H    2.1166965   -1.5084398  -11.0556406  
H    3.0217725    0.4408086  -12.9230232  
H    2.6701996    3.8723114  -13.6838719  
H    0.7933689    5.0309949  -11.6311077  
H    0.0903518    3.3953998  -10.1254545  
H    0.6313413   -1.6430259   -9.0440147  
C    0.1961175   -0.6857269   -5.1976468  
C   -0.8712826    0.0001710   -4.7267111  
C   -1.3726388    0.7456798   -5.8709829  
C   -0.4644983    0.3818146   -6.9797964  
N    0.4570580   -0.4570291   -6.5911259  
C   -0.6264066    0.9182525   -8.3030899  
C   -1.6492906    1.7787628   -8.5093994  
O   -1.9180360    2.3551729   -9.6932768  
C   -2.5830256    2.1652383   -7.4107923  
O   -3.4919438    2.9537009   -7.6704371  
C   -2.3959896    1.6014058   -6.0620765  
H   -2.6997675    2.9120521   -9.5261428  
H   -3.0937610    1.9063895   -5.2937467  
H    0.8441376   -1.3580427   -4.6581707  
C    1.0965514    0.0001359   -0.8010305  
C    0.0000000    0.0000000    0.0000000  
C   -1.1546563    0.0001470   -0.8669513  
C   -0.6372014    0.0003519   -2.2486282  
N    0.7342871    0.0007337   -2.1395014  
C   -1.4147739    0.0001352   -3.3608717  
C   -2.8576049   -0.0001048   -3.1854462  
O   -3.6427779   -0.0002494   -4.1244907  
C   -3.4275840   -0.0000725   -1.7311666  
O   -4.6406831    0.0000333   -1.5710060  
C   -2.4891867   -0.0001091   -0.6116744  
H   -2.8919122   -0.0002918    0.3920866  
H    2.1388272    0.0000663   -0.5261648  
H    1.3735872   -0.0006099   -2.9130262  
C    0.0000000    0.0000000    1.4700000  
C    1.0541688    0.0001722    2.3260392  
C    0.5103138    0.0000454    3.6635956  
C   -0.9576371   -0.0002459    3.5155732  
N   -1.2018458    0.0001392    2.1615969  
C   -1.8348311   -0.0008317    4.5510609  
C   -1.2972847   -0.0009736    5.9014604  
O   -2.0050672   -0.0014265    6.9001319  
C    0.2542623   -0.0004184    6.0817573  
O    0.7184670   -0.0002256    7.2139121  
C    1.0974552   -0.0000873    4.8889129  
H    2.0940752    0.0005483    2.0517982  
H   -2.9081052   -0.0011668    4.4207061  
H    2.1707277    0.0000911    5.0223670  
H   -2.1128194   -0.0014912    1.7406791  
