62

C    7.9541845   -5.3081591   -6.8867546  
C    8.6065722   -4.7845838   -7.9788734  
C    8.2982532   -3.3925222   -8.0201412  
C    7.4467338   -3.1219886   -6.9184830  
N    7.2564295   -4.3071640   -6.2523288  
C    6.9437607   -1.8460484   -6.6468525  
C    7.3072539   -0.8245433   -7.5027597  
O    6.8448238    0.4408415   -7.2837307  
C    8.1556011   -1.0747010   -8.6075425  
O    8.4252907    0.0456203   -9.3661537  
C    8.6519504   -2.3332501   -8.8762751  
H    9.2273354   -5.3381345   -8.6624152  
H    6.7047773   -4.4239162   -5.4216481  
H    7.2128876    0.9915858   -7.9869190  
H    9.0040347   -0.2099502  -10.0909594  
H    9.2995942   -2.4944280   -9.7301239  
H    7.9302294   -6.3167095   -6.5109759  
C    6.1923726   -2.0934461   -4.2359240  
C    5.2191581   -1.6310079   -3.4094380  
C    4.3967567   -0.7348790   -4.1875410  
C    4.9747504   -0.7130128   -5.5448307  
N    6.0607561   -1.5568759   -5.5077372  
C    4.4832125    0.0165646   -6.5781807  
C    3.3064978    0.8350542   -6.3374477  
O    2.7884372    1.5278082   -7.2034758  
C    2.6779834    0.8273398   -4.9075121  
O    1.6873116    1.5127139   -4.6928203  
C    3.2973506   -0.0000934   -3.8752374  
H    5.0920136   -1.8881512   -2.3729410  
H    4.9222075    0.0183442   -7.5662032  
H    6.9947907   -2.7809153   -4.0228480  
C    3.3321174    0.0004714   -1.3379332  
C    2.6974186    0.0000115   -2.5332308  
C    1.2800441   -0.0002119   -2.2052838  
C    1.2395035    0.0000643   -0.7271293  
N    2.4394063    0.0005458   -0.2131034  
C    0.0000000    0.0000000    0.0000000  
C   -1.1468701    0.0000634   -0.7169542  
O   -2.3742201    0.0000072   -0.1695492  
C   -1.1388767    0.0001606   -2.2096354  
O   -2.2206229    0.0000903   -2.7970413  
C    0.1454526    0.0001815   -2.9324239  
H   -2.9844344    0.0001023   -0.9290168  
H    0.1083580    0.0003680   -4.0135594  
H    4.3940040    0.0007617   -1.1498630  
C    0.8576279    0.7185626    2.2703808  
C    0.0000000    0.0000000    1.4700000  
C   -0.8668858   -0.7285659    2.3373528  
C   -0.4876752   -0.4117774    3.6669281  
N    0.5635254    0.4678311    3.5902241  
C   -1.1297612   -0.9515493    4.7854808  
C   -2.1738724   -1.8268314    4.5576857  
O   -2.8357962   -2.3827064    5.6140350  
C   -2.5667212   -2.1555554    3.2384331  
O   -3.6226318   -3.0413663    3.1773122  
C   -1.9335634   -1.6236449    2.1344818  
H    1.0363952    0.8769718    4.3757045  
H   -0.8454472   -0.7142436    5.8013813  
H   -3.5178062   -2.9546422    5.2385129  
H   -3.8247440   -3.2102924    2.2519915  
H   -2.2566033   -1.8942483    1.1360343  
H    1.6567807    1.3889844    2.0042067  
