62

C    5.6303355   -4.5543542   -2.2260876  
C    6.9664099   -4.3427877   -1.9758651  
C    7.2403642   -2.9811933   -2.3008407  
C    6.0227963   -2.4068201   -2.7475514  
N    5.0660557   -3.3897357   -2.6914917  
C    5.9196297   -1.0724476   -3.1520212  
C    7.0664163   -0.3038191   -3.1043885  
O    7.0219187    1.0054280   -3.4876715  
C    8.2907335   -0.8589357   -2.6619951  
O    9.3420519    0.0343516   -2.6724705  
C    8.3933037   -2.1753226   -2.2630835  
H    7.6586870   -5.0795349   -1.6057973  
H    4.0997984   -3.2738471   -2.9382642  
H    7.9169213    1.3523804   -3.3787707  
H   10.1303817   -0.4200453   -2.3599594  
H    9.3447044   -2.5726167   -1.9292101  
H    5.0355610   -5.4442417   -2.1107562  
C    3.4106845   -0.7032175   -3.0670122  
C    2.4521483    0.0014840   -3.7217481  
C    3.1158557    0.7444933   -4.7668628  
C    4.5499134    0.4124942   -4.6666320  
N    4.6621247   -0.4692175   -3.6164499  
C    5.5136820    0.9128420   -5.4805768  
C    5.1117778    1.8404164   -6.5249019  
O    5.9049340    2.3456315   -7.3084581  
C    3.5983551    2.2063420   -6.6492182  
O    3.2480947    2.9864551   -7.5244334  
C    2.6531312    1.6023762   -5.7134675  
H    6.5600546    0.6562475   -5.3901707  
H    1.6070339    1.8607778   -5.8063813  
H    3.3081788   -1.3736416   -2.2292093  
C    0.0000000    0.0000000    0.0000000  
C    1.0662923   -0.0000101   -0.8334270  
C    0.4961873    0.0000065   -2.1718887  
C   -0.9663854   -0.0000848   -1.9540250  
N   -1.2632773   -0.0000083   -0.6828660  
C   -1.8985359   -0.0000514   -3.0477261  
C   -1.3925770    0.0004566   -4.3020547  
O   -2.1456378    0.0005414   -5.4151314  
C    0.0786240    0.0009326   -4.5545000  
O    0.4683767    0.0012591   -5.7221100  
C    1.0143171    0.0008444   -3.4159031  
H    2.1107200    0.0000633   -0.5721865  
H   -2.9622181   -0.0003268   -2.8593381  
H   -1.5042265    0.0009697   -6.1484419  
C    1.1243417   -0.0099156    2.2619005  
C    0.7474090   -0.0234034    3.5848544  
C   -0.6787367   -0.0234952    3.6114698  
C   -1.1201739   -0.0099357    2.2635546  
N    0.0000000    0.0000000    1.4700000  
C   -2.4730812   -0.0065396    1.9108239  
C   -3.3971947   -0.0173298    2.9375057  
O   -4.7313508   -0.0149487    2.6493466  
C   -2.9763630   -0.0305536    4.2886322  
O   -4.0166453   -0.0397858    5.1947621  
C   -1.6418541   -0.0336380    4.6373480  
H    1.4178735   -0.0310004    4.4271209  
H   -2.8160170    0.0039190    0.8854031  
H   -5.1938803   -0.0234410    3.4974381  
H   -3.6464643   -0.0484781    6.0827341  
H   -1.3497443   -0.0436789    5.6809233  
H    2.1062470   -0.0051382    1.8205408  
