62

C    7.6338945   -0.6934827   -4.5254453  
C    7.1645721    0.5593762   -4.8456778  
C    8.2945620    1.4287686   -4.8890123  
C    9.4358244    0.6434595   -4.5844856  
N    8.9989694   -0.6397315   -4.3672393  
C   10.7284211    1.1742658   -4.5372766  
C   10.8715630    2.5223330   -4.8026120  
O   12.1114528    3.0921131   -4.7704094  
C    9.7449367    3.3224726   -5.1080720  
O   10.0517083    4.6460081   -5.3478388  
C    8.4694309    2.7995464   -5.1545556  
H    9.5860657   -1.4223001   -4.1416616  
H   11.6023302    0.5811064   -4.3056555  
H   11.9880038    4.0267477   -4.9813190  
H    9.2360910    5.1161632   -5.5461450  
H    7.6256850    3.4371833   -5.3911771  
H    7.1027355   -1.6208792   -4.3959686  
C    3.4546603   -0.7051940   -2.8655879  
C    2.5562217   -0.0001543   -3.6003001  
C    3.3075553    0.7421849   -4.5848131  
C    4.7275393    0.4094242   -4.3618644  
N    4.7487509   -0.4720442   -3.3057142  
C    5.7578599    0.9090037   -5.0902629  
C    5.4475471    1.8364959   -6.1654369  
O    6.3052803    2.3410463   -6.8781952  
C    3.9505757    2.2032202   -6.4191985  
O    3.6771258    2.9832721   -7.3214208  
C    2.9282239    1.6000479   -5.5678277  
H    1.8941006    1.8589998   -5.7501908  
H    3.2802844   -1.3753180   -2.0395027  
H    5.5766095   -0.8842294   -2.9160992  
C    0.0000000    0.0000000    0.0000000  
C    1.0541688   -0.0001719   -0.8560391  
C    0.5103141   -0.0000449   -2.1935955  
C   -0.9576367    0.0002461   -2.0455733  
N   -1.2018459   -0.0001392   -0.6915970  
C   -1.8348306    0.0008319   -3.0810611  
C   -1.2972842    0.0009739   -4.4314605  
O   -2.0050664    0.0014267   -5.4301321  
C    0.2542628    0.0004190   -4.6117571  
O    0.7184677    0.0002263   -5.7439119  
C    1.0974556    0.0000880   -3.4189127  
H    2.0940752   -0.0005479   -0.5817978  
H   -2.9081050    0.0011669   -2.9507065  
H   -2.1128195    0.0014911   -0.2706793  
C    3.3041272   -0.0001177    3.0120429  
C    2.5845372    0.0004780    1.8395852  
C    1.2040006    0.0000008    2.1983588  
C    1.1422373   -0.0006037    3.6154372  
N    2.4348639   -0.0026109    4.0777464  
C   -0.0655181   -0.0008797    4.3197917  
C   -1.2321768   -0.0002324    3.5801400  
O   -2.4392816   -0.0001146    4.2172520  
C   -1.1911209    0.0000007    2.1655264  
O   -2.4371527    0.0002320    1.5732860  
C    0.0000000    0.0000000    1.4700000  
H    3.0031534    0.0000661    0.8477417  
H    2.7054629    0.0071099    5.0445261  
H   -0.1193549   -0.0014844    5.3997470  
H   -3.1132988    0.0000648    3.5251786  
H   -2.3200282    0.0004071    0.6183591  
H    4.3686625   -0.0004071    3.1724291  
