64

C    7.3389628   -0.3758619   -5.3431772  
C    8.7057386   -0.2281429   -5.3938828  
C    8.9659172    1.1463865   -5.6724067  
C    7.7087613    1.7940650   -5.7819460  
N    6.7422192    0.8406274   -5.5785494  
C    7.5827546    3.1600015   -6.0523704  
C    8.7470526    3.8853826   -6.2148798  
O    8.6816711    5.2226790   -6.4801663  
C   10.0107457    3.2570299   -6.1096742  
O   11.0751789    4.1144194   -6.2973116  
C   10.1358044    1.9094882   -5.8431822  
H    9.4265393   -1.0145843   -5.2491452  
H    6.6275422    3.6595703   -6.1372330  
H    9.5940830    5.5309256   -6.5560075  
H   11.8903357    3.6109530   -6.2098681  
H   11.1172457    1.4559705   -5.7685316  
H    6.7425418   -1.2530033   -5.1591560  
C    3.4075051   -0.7135436   -3.0380983  
C    4.6431440   -0.4602656   -3.5872018  
C    4.4415535    0.4568466   -4.6609182  
C    3.0508655    0.7297251   -4.7196559  
N    2.4521483    0.0014840   -3.7217481  
C    2.4894551    1.5969074   -5.6617819  
C    3.3476058    2.1998352   -6.5607998  
O    2.8524827    3.0557657   -7.5016764  
C    4.7381013    1.9399506   -6.5183756  
O    5.4595883    2.6163301   -7.4803063  
C    5.2926064    1.0843579   -5.5893912  
H    5.5750094   -0.8851980   -3.2554603  
H    1.4303405    1.8089636   -5.7118855  
H    3.6093213    3.3600514   -8.0192390  
H    6.3883749    2.3853431   -7.3823091  
H    3.1318943   -1.3487722   -2.2137910  
C    0.0000000    0.0000000    0.0000000  
C    1.0662923   -0.0000101   -0.8334270  
C    0.4961873    0.0000065   -2.1718887  
C   -0.9663854   -0.0000848   -1.9540250  
N   -1.2632773   -0.0000083   -0.6828660  
C   -1.8985359   -0.0000514   -3.0477261  
C   -1.3925770    0.0004566   -4.3020547  
O   -2.1456378    0.0005414   -5.4151314  
C    0.0786240    0.0009326   -4.5545000  
O    0.4683767    0.0012591   -5.7221100  
C    1.0143171    0.0008444   -3.4159031  
H    2.1107200    0.0000633   -0.5721865  
H   -2.9622181   -0.0003268   -2.8593381  
H   -1.5042265    0.0009697   -6.1484419  
C    1.1243417   -0.0099156    2.2619005  
C    0.7474090   -0.0234034    3.5848544  
C   -0.6787367   -0.0234952    3.6114698  
C   -1.1201739   -0.0099357    2.2635546  
N    0.0000000    0.0000000    1.4700000  
C   -2.4730812   -0.0065396    1.9108239  
C   -3.3971947   -0.0173298    2.9375057  
O   -4.7313508   -0.0149487    2.6493466  
C   -2.9763630   -0.0305536    4.2886322  
O   -4.0166453   -0.0397858    5.1947621  
C   -1.6418541   -0.0336380    4.6373480  
H    1.4178735   -0.0310004    4.4271209  
H   -2.8160170    0.0039190    0.8854031  
H   -5.1938803   -0.0234410    3.4974381  
H   -3.6464643   -0.0484781    6.0827341  
H   -1.3497443   -0.0436789    5.6809233  
H    2.1062470   -0.0051382    1.8205408  
