62

C    4.6074523   -4.2430251   -8.9362635  
C    5.4296464   -4.9069671   -8.0555567  
C    5.0240032   -4.5287712   -6.7413949  
C    3.9404383   -3.6246728   -6.8842927  
N    3.7145910   -3.4716893   -8.2297316  
C    3.2884234   -3.0467755   -5.7908117  
C    3.7382625   -3.3880075   -4.5301041  
O    3.1372103   -2.8530417   -3.4275787  
C    4.8181953   -4.2879997   -4.3670830  
O    5.1485138   -4.5269455   -3.0490777  
C    5.4620694   -4.8582811   -5.4453832  
H    6.2247637   -5.5801181   -8.3269431  
H    2.9989751   -2.8968006   -8.6363981  
H    3.5986243   -3.2175989   -2.6611196  
H    5.8861204   -5.1442578   -3.0274875  
H    6.2864880   -5.5441918   -5.2893798  
H    4.5882031   -4.2575415  -10.0125432  
C    2.1650260   -2.1089222   -5.9297644  
C    1.5723593   -1.6445155   -7.0598740  
C    0.5184562   -0.7489596   -6.6450216  
C    0.5459251   -0.7295293   -5.1700098  
N    1.5661282   -1.5747494   -4.7989591  
C   -0.2963293   -0.0005341   -4.3948471  
C   -1.2968021    0.8195083   -5.0575083  
O   -2.1011000    1.5117977   -4.4474750  
C   -1.3442169    0.8139950   -6.6187661  
O   -2.1824072    1.5002198   -7.1877946  
C   -0.3835323   -0.0125658   -7.3452196  
H    1.8425064   -1.9002750   -8.0689433  
H   -0.4228746   -0.0106490   -8.4260399  
H    1.8355779   -1.7715191   -3.8525310  
C    3.1301146   -0.0010313   -1.7028256  
C    2.5367765   -0.0002766   -0.4864669  
C    1.1089901    0.0001027   -0.7656184  
C    1.0177865   -0.0004150   -2.2415133  
N    2.1993571   -0.0011612   -2.7963824  
C   -0.2459219   -0.0002879   -2.9257116  
C   -1.3675326   -0.0000606   -2.1698520  
O   -2.6129318    0.0000865   -2.6748483  
C   -1.3083588    0.0000910   -0.6783229  
O   -2.3693264    0.0004206   -0.0541685  
C    0.0000000    0.0000000    0.0000000  
H    3.0096016   -0.0001007    0.4807518  
H   -3.1967444    0.0002093   -1.8949026  
H    4.1849275   -0.0015114   -1.9271979  
C    2.5285572    2.1210227    2.9438989  
C    1.9331703    1.6216660    4.0790748  
C    0.8903039    0.7472258    3.6520102  
C    0.8972198    0.7527806    2.2336141  
N    1.9028376    1.5986179    1.8362361  
C    0.0000000    0.0000000    1.4700000  
C   -0.9207814   -0.7726952    2.1506477  
O   -1.8198395   -1.5274828    1.4542253  
C   -0.9436862   -0.7911793    3.5655508  
O   -1.9197945   -1.6098497    4.0950179  
C   -0.0590329   -0.0485852    4.3195194  
H    2.2150357    1.8593692    5.0905303  
H    2.1533708    1.7953814    0.8841339  
H   -2.3621246   -1.9821033    2.1118817  
H   -1.8668290   -1.5649508    5.0545920  
H   -0.1007624   -0.0827977    5.4019087  
H    3.3491200    2.8096064    2.8367138  
