60

C    9.7884325   -0.7227891   -2.5733638  
C    8.8049643   -0.0042791   -3.2128964  
C    9.4376452    0.7231867   -4.2641375  
C   10.8193017    0.4058123   -4.2169635  
N   10.9983111   -0.4730711   -3.1776671  
C   11.7499481    0.9444723   -5.1105701  
C   11.2771593    1.8192240   -6.0694541  
O   12.1426602    2.3740130   -6.9673032  
C    9.9022326    2.1485185   -6.1323649  
O    9.5883428    3.0336875   -7.1429551  
C    8.9836041    1.6177053   -5.2509546  
H   11.8745490   -0.8823974   -2.9081484  
H   12.8043317    0.7067153   -5.0798005  
H   11.6138200    2.9457440   -7.5388944  
H    8.6416760    3.2030610   -7.1157752  
H    7.9368197    1.8887237   -5.3235437  
H    9.7228089   -1.3925296   -1.7330659  
C    6.8847525   -0.0023787    0.6986608  
C    5.5715637   -0.0012903    0.3713797  
C    5.5475442   -0.0015351   -1.0832416  
C    6.9721655   -0.0027416   -1.4795204  
N    7.7607270   -0.0033211   -0.4392514  
C    7.3784667   -0.0033614   -2.8579272  
C    6.4057883   -0.0031904   -3.7977309  
O    6.6406184   -0.0037041   -5.1209446  
C    4.9592105   -0.0023543   -3.4295276  
O    4.1279725   -0.0021183   -4.3374176  
C    4.5679461   -0.0016854   -2.0086701  
H    4.7238861   -0.0005185    1.0350949  
H    5.7562738   -0.0034385   -5.5297077  
H    7.3236768   -0.0025893    1.6837085  
C    3.1301149   -0.0010311   -1.7028252  
C    2.5367768   -0.0002767   -0.4864665  
C    1.1089904    0.0001028   -0.7656183  
C    1.0177872   -0.0004148   -2.2415132  
N    2.1993578   -0.0011611   -2.7963820  
C   -0.2459209   -0.0002877   -2.9257118  
C   -1.3675319   -0.0000605   -2.1698524  
O   -2.6129313    0.0000867   -2.6748490  
C   -1.3083584    0.0000910   -0.6783232  
O   -2.3693261    0.0004206   -0.0541692  
C    0.0000000    0.0000000    0.0000000  
H    3.0096017   -0.0001007    0.4807525  
H   -0.2829630   -0.0004687   -4.0053125  
H   -3.1967441    0.0002094   -1.8949034  
C    0.0000000    0.0000000    1.4700000  
C    1.0541688    0.0001722    2.3260392  
C    0.5103138    0.0000454    3.6635956  
C   -0.9576371   -0.0002459    3.5155732  
N   -1.2018458    0.0001392    2.1615969  
C   -1.8348311   -0.0008317    4.5510609  
C   -1.2972847   -0.0009736    5.9014604  
O   -2.0050672   -0.0014265    6.9001319  
C    0.2542623   -0.0004184    6.0817573  
O    0.7184670   -0.0002256    7.2139121  
C    1.0974552   -0.0000873    4.8889129  
H    2.0940752    0.0005483    2.0517982  
H   -2.9081052   -0.0011668    4.4207061  
H    2.1707277    0.0000911    5.0223670  
H   -2.1128194   -0.0014912    1.7406791  
