62

C    0.0000000    0.0000000    0.0000000  
C   -0.0973410    1.0476553   -0.8862342  
C   -0.0448554    0.4896738   -2.1979131  
C    0.0857176   -0.9147347   -2.0478688  
N    0.1117434   -1.1780297   -0.7007916  
C    0.1670695   -1.7873781   -3.1372099  
C    0.1153665   -1.2321932   -4.4010430  
O    0.1901909   -2.0385676   -5.4997587  
C   -0.0143223    0.1667510   -4.5711966  
O   -0.0510690    0.5650550   -5.8915550  
C   -0.0943611    1.0282602   -3.4969889  
H   -0.1931545    2.0863865   -0.6200559  
H    0.1863571   -2.0907131   -0.2891836  
H    0.2668168   -2.8586682   -3.0295528  
H    0.1363934   -1.4571170   -6.2693602  
H   -0.1398841    1.5226646   -5.9180043  
C    0.3879217    3.4539848   -3.0037675  
C   -0.2282894    2.4756720   -3.7159915  
C   -1.0332087    3.1296715   -4.7205930  
C   -0.8339747    4.5795874   -4.5339393  
N    0.0377946    4.7092697   -3.4774875  
C   -1.4239254    5.5402968   -5.2893860  
C   -2.3147256    5.1181037   -6.3574518  
O   -2.8937296    5.9069627   -7.0928121  
C   -2.5405453    3.5876250   -6.5729657  
O   -3.2885929    3.2201900   -7.4688886  
C   -1.8486435    2.6475783   -5.6946517  
H   -1.2641973    6.5985254   -5.1359289  
H   -2.0102066    1.5896077   -5.8505989  
H    1.0681954    3.3635447   -2.1725409  
C    1.7736200    6.2885788   -2.5121820  
C    0.5247534    5.9868178   -2.9374492  
C   -0.2422822    7.2079373   -2.7450337  
C    0.7265573    8.1714651   -2.1797473  
N    1.9099585    7.6382541   -2.0410519  
C    0.3528250    9.5177495   -1.8436993  
C   -0.9303483    9.8849025   -2.0627877  
O   -1.4168316   11.1088792   -1.7958518  
C   -1.9315873    8.9355837   -2.6324158  
O   -3.0820067    9.3380099   -2.8050700  
C   -1.5236853    7.5599660   -2.9688926  
H    1.0814599   10.2006428   -1.4318055  
H   -2.3545191   11.0652887   -2.0566095  
H   -2.2787441    6.9030932   -3.3795440  
H    2.6408889    5.6479760   -2.4910570  
C    0.0000000    0.0000000    1.4700000  
C    1.0521667    0.0011902    2.3562342  
C    0.4917218    0.0011957    3.6679131  
C   -0.9187428   -0.0003148    3.5178682  
N   -1.1833171    0.0009411    2.1707914  
C   -1.7951701   -0.0010350    4.6072090  
C   -1.2375837   -0.0005224    5.8710424  
O   -2.0474215   -0.0015360    6.9697579  
C    0.1673580    0.0013566    6.0411963  
O    0.5673524    0.0020687    7.3615553  
C    1.0325770    0.0023412    4.9669890  
H    2.0953057    0.0030649    2.0900562  
H   -2.0989778   -0.0102372    1.7591824  
H   -2.8710934   -0.0020419    4.4995513  
H   -1.4634884   -0.0006497    7.7393593  
H    1.5290710    0.0033153    7.3880045  
H    2.1042148    0.0039609    5.1284455  
