60

C    7.0068754   -2.1178765    1.9933133  
C    8.0131701   -1.6184808    2.7873173  
C    8.7926756   -0.7456271    1.9717831  
C    8.2090525   -0.7521447    0.6790077  
N    7.1280385   -1.5970068    0.7262843  
C    8.7184379   -0.0010002   -0.3845224  
C    9.8371911    0.7710189   -0.1384420  
O   10.3756059    1.5242139   -1.1413486  
C   10.4340087    0.7904434    1.1446208  
O   11.5418052    1.6082654    1.2300384  
C    9.9321842    0.0494633    2.1942141  
H    8.1671767   -1.8551420    3.8261955  
H    6.5115133   -1.7941113   -0.0411965  
H   11.1390028    1.9786125   -0.7618581  
H   11.8839434    1.5640894    2.1281438  
H   10.4108728    0.0843655    3.1658704  
H    6.2131415   -2.8055154    2.2301625  
C    4.5679461   -0.0016854   -2.0086701  
C    5.6049853   -0.0016935   -1.1391130  
C    6.7955416   -0.0024722   -1.9752193  
C    6.2781458   -0.0029787   -3.3604575  
N    4.9730339   -0.0024401   -3.3863778  
C    7.1539718   -0.0037587   -4.4997622  
C    8.4861199   -0.0036316   -4.2658482  
O    9.4181587   -0.0043060   -5.2340138  
C    9.0391358   -0.0027531   -2.8793658  
O   10.2622858   -0.0028100   -2.7410729  
C    8.1201342   -0.0020069   -1.7272552  
H    5.5667631   -0.0011381   -0.0631881  
H    6.7483989   -0.0043224   -5.5009717  
H   10.2688728   -0.0039801   -4.7592100  
C    3.1301149   -0.0010311   -1.7028252  
C    2.5367768   -0.0002767   -0.4864665  
C    1.1089904    0.0001028   -0.7656183  
C    1.0177872   -0.0004148   -2.2415132  
N    2.1993578   -0.0011611   -2.7963820  
C   -0.2459209   -0.0002877   -2.9257118  
C   -1.3675319   -0.0000605   -2.1698524  
O   -2.6129313    0.0000867   -2.6748490  
C   -1.3083584    0.0000910   -0.6783232  
O   -2.3693261    0.0004206   -0.0541692  
C    0.0000000    0.0000000    0.0000000  
H    3.0096017   -0.0001007    0.4807525  
H   -0.2829630   -0.0004687   -4.0053125  
H   -3.1967441    0.0002094   -1.8949034  
C    2.4951002    2.0940188    2.9809380  
C    1.9440701    1.6314916    1.8291961  
C    0.8759964    0.7350050    2.2038498  
C    0.8497377    0.7130254    3.6788474  
N    1.8560616    1.5571714    4.0882609  
C   -0.0205033   -0.0168748    4.4215661  
C   -0.9962600   -0.8356168    3.7214979  
O   -1.8224391   -1.5286685    4.3006425  
C   -0.9864710   -0.8277881    2.1595606  
O   -1.8030528   -1.5133726    1.5592035  
C    0.0000000    0.0000000    1.4700000  
H    2.2509283    1.8888011    0.8310761  
H   -0.0229599   -0.0187323    5.5027230  
H    3.3143982    2.7817323    3.1139444  
H    2.0889452    1.7545833    5.0442112  
