64

C    5.9562971   -1.0678178   -2.7577252  
C    6.1237631   -1.9539254   -1.7188628  
C    7.5229013   -2.2097199   -1.6112421  
C    8.1645184   -1.4451519   -2.6190565  
N    7.1841811   -0.7651349   -3.2981246  
C    9.5499552   -1.4524161   -2.8069428  
C   10.3013991   -2.2457283   -1.9618595  
O   11.6584884   -2.2897430   -2.1010845  
C    9.6795299   -3.0160275   -0.9505563  
O   10.5637835   -3.7540789   -0.1911367  
C    8.3127899   -3.0095563   -0.7648010  
H    5.3344721   -2.3661809   -1.1138360  
H    7.3394630   -0.1328674   -4.0623932  
H   10.0450499   -0.8720754   -3.5732902  
H   11.9831782   -2.8949416   -1.4216899  
H   10.0629825   -4.2446319    0.4677719  
H    7.8648598   -3.6101676    0.0182077  
C    3.4561763   -0.7190145   -2.8481106  
C    2.5562217   -0.0001543   -3.6003001  
C    3.3101154    0.7284359   -4.5674613  
C    4.6762622    0.4113550   -4.3552630  
N    4.7296901   -0.4684438   -3.3027817  
C    5.7071396    0.9510665   -5.1303709  
C    5.3524130    1.8265877   -6.1382449  
O    6.3191172    2.3824164   -6.9253605  
C    3.9948298    2.1556050   -6.3652492  
O    3.8040501    3.0416300   -7.4053970  
C    2.9773420    1.6237544   -5.6008013  
H    6.7503139    0.7135386   -4.9736252  
H    5.8624174    2.9545454   -7.5557237  
H    2.8608931    3.2107477   -7.4917577  
H    1.9467145    1.8945846   -5.7981250  
H    3.2905204   -1.3895464   -2.0223359  
C    0.0000000    0.0000000    0.0000000  
C    1.0541688   -0.0001719   -0.8560391  
C    0.5103141   -0.0000449   -2.1935955  
C   -0.9576367    0.0002461   -2.0455733  
N   -1.2018459   -0.0001392   -0.6915970  
C   -1.8348306    0.0008319   -3.0810611  
C   -1.2972842    0.0009739   -4.4314605  
O   -2.0050664    0.0014267   -5.4301321  
C    0.2542628    0.0004190   -4.6117571  
O    0.7184677    0.0002263   -5.7439119  
C    1.0974556    0.0000880   -3.4189127  
H    2.0940752   -0.0005479   -0.5817978  
H   -2.9081050    0.0011669   -2.9507065  
H   -2.1128195    0.0014911   -0.2706793  
C    3.3041272   -0.0001177    3.0120429  
C    2.5845372    0.0004780    1.8395852  
C    1.2040006    0.0000008    2.1983588  
C    1.1422373   -0.0006037    3.6154372  
N    2.4348639   -0.0026109    4.0777464  
C   -0.0655181   -0.0008797    4.3197917  
C   -1.2321768   -0.0002324    3.5801400  
O   -2.4392816   -0.0001146    4.2172520  
C   -1.1911209    0.0000007    2.1655264  
O   -2.4371527    0.0002320    1.5732860  
C    0.0000000    0.0000000    1.4700000  
H    3.0031534    0.0000661    0.8477417  
H    2.7054629    0.0071099    5.0445261  
H   -0.1193549   -0.0014844    5.3997470  
H   -3.1132988    0.0000648    3.5251786  
H   -2.3200282    0.0004071    0.6183591  
H    4.3686625   -0.0004071    3.1724291  
