60

C    0.9325845    0.0103071   -7.5332649  
C   -0.3571128    0.0105096   -7.0545710  
C   -1.2221804    0.0119072   -8.1887030  
C   -0.3964486    0.0122247   -9.3419995  
N    0.9060467    0.0131831   -8.9082692  
C   -0.9123208    0.0132146  -10.6414859  
C   -2.2868031    0.0135894  -10.7792345  
O   -2.8436534    0.0142007  -12.0254019  
C   -3.1273096    0.0136576   -9.6406540  
O   -4.4733038    0.0144718   -9.9433846  
C   -2.6190817    0.0129547   -8.3583794  
H   -0.6396439    0.0108493   -6.0157403  
H    1.7154941    0.0030390   -9.5021323  
H   -0.2883559    0.0136054  -11.5245883  
H   -3.8010888    0.0146736  -11.8966339  
H   -4.9703211    0.0144351   -9.1196261  
H   -3.2877451    0.0132085   -7.5055210  
C    1.7334697    0.0049246   -3.2500361  
C    3.0863255    0.0047397   -3.2131616  
C    3.4995612    0.0065858   -4.6080573  
C    2.2333965    0.0076343   -5.3718701  
N    1.1947440    0.0067484   -4.5811811  
C    2.2116347    0.0095933   -6.8087448  
C    3.4007174    0.0108544   -7.4532722  
O    3.5293445    0.0127180   -8.7909914  
C    4.6955627    0.0102160   -6.7106176  
O    5.7398275    0.0113184   -7.3623314  
C    4.6914543    0.0081551   -5.2368798  
H    3.7249597    0.0035937   -2.3464319  
H    4.4909160    0.0132669   -8.9476200  
H    5.6504359    0.0078667   -4.7362957  
C    1.1319247    0.0015655   -0.8009267  
C    0.7969916    0.0034943   -2.1169401  
C   -0.6453337    0.0035710   -2.1842668  
C   -1.1266832    0.0015433   -0.7896026  
N    0.0000000    0.0000000    0.0000000  
C   -2.4346130    0.0013964   -0.4276294  
C   -3.4350109    0.0031408   -1.4820183  
O   -4.6384610    0.0030973   -1.2583915  
C   -2.9478956    0.0050505   -2.9661075  
O   -3.7809378    0.0062218   -3.8623775  
C   -1.5113821    0.0053090   -3.2312122  
H   -2.7664565    0.0000232    0.6013446  
H   -1.1823527    0.0068407   -4.2614846  
H    2.1104317    0.0009391   -0.3488056  
C    0.0000000    0.0000000    1.4700000  
C    1.0541688    0.0001722    2.3260392  
C    0.5103138    0.0000454    3.6635956  
C   -0.9576371   -0.0002459    3.5155732  
N   -1.2018458    0.0001392    2.1615969  
C   -1.8348311   -0.0008317    4.5510609  
C   -1.2972847   -0.0009736    5.9014604  
O   -2.0050672   -0.0014265    6.9001319  
C    0.2542623   -0.0004184    6.0817573  
O    0.7184670   -0.0002256    7.2139121  
C    1.0974552   -0.0000873    4.8889129  
H    2.0940752    0.0005483    2.0517982  
H   -2.9081052   -0.0011668    4.4207061  
H    2.1707277    0.0000911    5.0223670  
H   -2.1128194   -0.0014912    1.7406791  
