62

C    9.8055100   -0.7236649    0.8959225  
C    9.0957054   -0.0045218   -0.0376080  
C   10.0463179    0.7215397   -0.8146354  
C   11.3310139    0.4026956   -0.3049107  
N   11.1485292   -0.4756740    0.7342155  
C   12.5088782    0.9397349   -0.8331284  
C   12.3876594    1.8143471   -1.8954549  
O   13.5056294    2.3675834   -2.4496068  
C   11.1146124    2.1450933   -2.4177344  
O   11.1604351    3.0299143   -3.4752480  
C    9.9521810    1.6158793   -1.8969570  
H   11.8823381   -0.8857691    1.2831471  
H   13.4910368    0.7008528   -0.4490683  
H   13.2008475    2.9394996   -3.1660448  
H   10.2601075    3.2003357   -3.7684538  
H    8.9913010    1.8879863   -2.3178448  
H    9.4599436   -1.3927614    1.6652420  
C    6.7235409   -0.0015093    0.8630514  
C    5.4473221   -0.0011276    0.3990037  
C    5.5236520   -0.0015785   -1.0428731  
C    6.9592466   -0.0022884   -1.3832521  
N    7.6329842   -0.0018116   -0.1836825  
C    7.4493968   -0.0032608   -2.6487388  
C    6.4996350   -0.0034067   -3.7489603  
O    6.8417408   -0.0041914   -4.9242316  
C    4.9744857   -0.0024120   -3.4117302  
O    4.1654301   -0.0022186   -4.3297117  
C    4.5679461   -0.0016854   -2.0086701  
H    4.5543636   -0.0004091    0.9983692  
H    8.5062544   -0.0038994   -2.8766905  
H    7.0761901   -0.0013786    1.8816429  
C    3.1301149   -0.0010311   -1.7028252  
C    2.5367768   -0.0002767   -0.4864665  
C    1.1089904    0.0001028   -0.7656183  
C    1.0177872   -0.0004148   -2.2415132  
N    2.1993578   -0.0011611   -2.7963820  
C   -0.2459209   -0.0002877   -2.9257118  
C   -1.3675319   -0.0000605   -2.1698524  
O   -2.6129313    0.0000867   -2.6748490  
C   -1.3083584    0.0000910   -0.6783232  
O   -2.3693261    0.0004206   -0.0541692  
C    0.0000000    0.0000000    0.0000000  
H    3.0096017   -0.0001007    0.4807525  
H   -0.2829630   -0.0004687   -4.0053125  
H   -3.1967441    0.0002094   -1.8949034  
C    0.8676693    0.7151171    2.2619005  
C    0.5875920    0.4624972    3.5848544  
C   -0.5048400   -0.4542819    3.6114698  
C   -0.8517165   -0.7276451    2.2635546  
N    0.0000000    0.0000000    1.4700000  
C   -1.8902865   -1.5946756    1.9108239  
C   -2.5912627   -2.1969500    2.9375057  
O   -3.6148162   -3.0527051    2.6493466  
C   -2.2603868   -1.9365747    4.2886322  
O   -3.0513550   -2.6123276    5.1947621  
C   -1.2361111   -1.0811317    4.6373480  
H    1.1060808    0.8876438    4.4271209  
H   -2.1597133   -1.8070987    0.8854031  
H   -3.9636755   -3.3565188    3.4974381  
H   -2.7621927   -2.3810384    6.0827341  
H   -1.0058879   -0.9010589    5.6809233  
H    1.6167816    1.3499334    1.8205408  
