66

C    1.1188643    0.0008226   -0.8003809  
C    0.0000000    0.0000000    0.0000000  
C   -1.1323862    0.0008893   -0.8673527  
C   -0.6382661    0.0019674   -2.1969282  
N    0.7324019    0.0038481   -2.1202243  
C   -1.4770916    0.0027306   -3.3154811  
C   -2.8395474    0.0020924   -3.0876858  
O   -3.7039196    0.0024401   -4.1440351  
C   -3.3517873    0.0013913   -1.7684329  
O   -4.7300492    0.0012340   -1.7073128  
C   -2.5248542    0.0009110   -0.6644820  
H   -1.1067564    0.0036975   -4.3313811  
H   -4.5940030    0.0021801   -3.7685135  
H   -4.9934603    0.0007236   -0.7819913  
H   -2.9462576    0.0005588    0.3339653  
H    2.1619897    0.0009363   -0.5342071  
C    4.5426446   -2.1280460   -2.8244673  
C    4.7840764   -1.6433654   -4.0890868  
C    3.7027654   -0.7718616   -4.4144297  
C    2.8248674   -0.7639989   -3.3003566  
N    3.3636328   -1.5993764   -2.3535230  
C    1.6478436   -0.0100096   -3.2703001  
C    1.3518117    0.7501216   -4.3850837  
O    0.2151945    1.5054722   -4.4087633  
C    2.2150333    0.7551145   -5.5065294  
O    1.7815966    1.5622772   -6.5380165  
C    3.3762254    0.0113188   -5.5369822  
H    2.9665981   -1.7854927   -1.4503587  
H    0.2007685    1.9502728   -5.2662070  
H    2.4205812    1.5086862   -7.2552545  
H    4.0176563    0.0350491   -6.4101841  
H    5.1174447   -2.8101409   -2.2217151  
C    5.9450624   -1.9783883   -4.9262080  
C    7.0121955   -2.8080141   -4.6704440  
C    7.8522285   -2.7731258   -5.8227145  
C    7.2414415   -1.8976129   -6.7567073  
N    6.0844209   -1.4339770   -6.1814149  
C    7.7957856   -1.6232762   -8.0105937  
C    8.9885961   -2.2438371   -8.3272702  
O    9.5737692   -2.0110754   -9.5382241  
C    9.6131488   -3.1209271   -7.4088671  
O   10.7954135   -3.6606535   -7.8717793  
C    9.0667059   -3.3922403   -6.1718078  
H    7.1656684   -3.3701474   -3.7652117  
H    5.4448914   -0.7861389   -6.6048410  
H    7.3351650   -0.9570835   -8.7269863  
H   10.3852633   -2.5349791   -9.5545424  
H   11.1518545   -4.2404960   -7.1918262  
H    9.5680091   -4.0686134   -5.4893907  
C    2.5311839    2.1237619    3.0120429  
C    1.9795631    1.6616747    1.8395852  
C    0.9223175    0.7739173    2.1983588  
C    0.8753926    0.7337535    3.6154372  
N    1.8668922    1.5631002    4.0777464  
C   -0.0496243   -0.0427881    4.3197917  
C   -0.9437528   -0.7922060    3.5801400  
O   -1.8685244   -1.5680278    4.2172520  
C   -0.9124520   -0.7656372    2.1655264  
O   -1.8671164   -1.5663939    1.5732860  
C    0.0000000    0.0000000    1.4700000  
H    2.3005065    1.9304404    0.8477417  
H    2.0679347    1.7444845    5.0445261  
H   -0.0904770   -0.0778569    5.3997470  
H   -2.3849669   -2.0011402    3.5251786  
H   -1.7775064   -1.4909735    0.6183591  
H    3.3468514    2.8078103    3.1724291  
