60

C    6.0059282    0.7079770   -5.8568930  
C    5.8856236    0.4573336   -7.2041761  
C    6.9280600   -0.4515294   -7.5533107  
C    7.6584766   -0.7223243   -6.3679464  
N    7.0732907   -0.0008200   -5.3572005  
C    8.7608393   -1.5818139   -6.3385953  
C    9.1324392   -2.1790498   -7.5274614  
O   10.2013539   -3.0273750   -7.5553703  
C    8.4164564   -1.9211265   -8.7206346  
O    8.9100703   -2.5911835   -9.8209580  
C    7.3290159   -1.0731208   -8.7503835  
H    5.1391100    0.8786889   -7.8554598  
H    9.3218280   -1.7922434   -5.4384770  
H   10.2870101   -3.3286946   -8.4692279  
H    8.3705801   -2.3620257  -10.5838741  
H    6.8003670   -0.8947584   -9.6794665  
H    5.4156899    1.3373817   -5.2131332  
C    4.7161325   -0.0005435   -1.6923264  
C    5.6747634   -0.0008964   -0.7370224  
C    6.9326495   -0.0010016   -1.4679276  
C    6.5359790   -0.0007816   -2.8924403  
N    5.2379004   -0.0004319   -3.0302106  
C    7.5063012   -0.0007606   -3.9524225  
C    8.8134761   -0.0005619   -3.6051057  
O    9.8251245   -0.0005266   -4.4897574  
C    9.2455282   -0.0004050   -2.1762981  
O   10.4523082   -0.0003511   -1.9335990  
C    8.2310910   -0.0004739   -1.1072606  
H    5.5443949   -0.0009741    0.3316587  
H   10.6319759   -0.0003444   -3.9437338  
H    8.5850041   -0.0002400   -0.0850199  
C    3.2573665   -0.0002920   -1.5109385  
C    2.5379463   -0.0001709   -0.3591964  
C    1.1435038    0.0000331   -0.7338500  
C    1.1092599   -0.0000083   -2.2088477  
N    2.4227553    0.0001909   -2.6182613  
C   -0.0265539   -0.0002524   -2.9515660  
C   -1.3003040   -0.0002640   -2.2514977  
O   -2.3786790   -0.0004133   -2.8306421  
C   -1.2877727    0.0000311   -0.6895603  
O   -2.3539959    0.0003306   -0.0892030  
C    0.0000000    0.0000000    0.0000000  
H    2.9384091   -0.0000367    0.6389234  
H   -0.0296303   -0.0004086   -4.0327229  
H    2.7280482   -0.0013407   -3.5742119  
C    0.8175213    0.6860729    2.3021913  
C    0.0000000    0.0000000    1.4700000  
C   -0.8887526   -0.7456559    2.3478473  
C   -0.4549825   -0.3816753    3.7138435  
N    0.5448156    0.4573574    3.6934124  
C   -1.0945674   -0.9182058    4.8835240  
C   -2.1210866   -1.7789155    4.6970523  
O   -2.8083856   -2.3554314    5.6976972  
C   -2.5824069   -2.1655116    3.3310774  
O   -3.5227682   -2.9541547    3.2362962  
C   -1.9100805   -1.6015804    2.1470656  
H   -0.7567140   -0.6349833    5.8697035  
H   -3.4728268   -2.9124471    5.2533954  
H   -2.2742832   -1.9066565    1.1752040  
H    1.6189533    1.3585343    2.0405121  
