64

C   -0.4587412    0.0945611   -8.6252931  
C    0.2646015   -0.5522830   -9.6004018  
C   -0.2771207   -0.1493916  -10.8569096  
C   -1.3376291    0.7518961  -10.5831802  
N   -1.4221842    0.8762762   -9.2186294  
C   -2.1001783    1.3507722  -11.5904806  
C   -1.7862378    1.0342687  -12.8979378  
O   -2.4986857    1.5909492  -13.9204544  
C   -0.7319326    0.1369058  -13.1911911  
O   -0.5431300   -0.0767611  -14.5410217  
C    0.0205841   -0.4544815  -12.1979604  
H    1.0814246   -1.2318698   -9.4273249  
H   -2.0766298    1.4588344   -8.7284177  
H   -2.9098379    2.0384009  -11.3884386  
H   -2.1216833    1.2409512  -14.7381549  
H    0.1864686   -0.6939679  -14.6521315  
H    0.8218796   -1.1380552  -12.4531679  
C    2.3128798   -2.1207449   -5.9853286  
C    1.8202491   -1.6594120   -4.7865984  
C    0.7463180   -0.7716431   -5.0917841  
C    0.6288904   -0.7306954   -6.5047453  
N    1.5962672   -1.5596062   -7.0163180  
C   -0.3301654    0.0460748   -7.1617306  
C   -1.1864713    0.7949190   -6.3780533  
O   -2.1419342    1.5709320   -6.9678911  
C   -1.0847732    0.7675649   -4.9667678  
O   -2.0088870    1.5678196   -4.3272760  
C   -0.1387079    0.0017019   -4.3179684  
H    2.1902178   -1.9286750   -3.8121171  
H    1.7489526   -1.7404140   -7.9920112  
H   -2.6233436    2.0035648   -6.2507177  
H   -1.8718319    1.4918814   -3.3780376  
H    3.1196533   -2.8045580   -6.1865151  
C    3.3041273    0.0001178   -1.5420428  
C    2.5845373   -0.0004780   -0.3695851  
C    1.2040007   -0.0000007   -0.7283589  
C    1.1422374    0.0006038   -2.1454372  
N    2.4348641    0.0026111   -2.6077464  
C   -0.0655179    0.0008799   -2.8497918  
C   -1.2321766    0.0002325   -2.1101402  
O   -2.4392814    0.0001148   -2.7472522  
C   -1.1911209   -0.0000007   -0.6955266  
O   -2.4371528   -0.0002320   -0.1032862  
C    0.0000000    0.0000000    0.0000000  
H    3.0031533   -0.0000660    0.6222584  
H    2.7054631   -0.0071097   -3.5745261  
H   -3.1132988   -0.0000648   -2.0551787  
H   -2.3200282   -0.0004072    0.8516409  
H    4.3686625    0.0004073   -1.7024290  
C    0.8175213    0.6860729    2.3021913  
C    0.0000000    0.0000000    1.4700000  
C   -0.8887526   -0.7456559    2.3478473  
C   -0.4549825   -0.3816753    3.7138435  
N    0.5448156    0.4573574    3.6934124  
C   -1.0945674   -0.9182058    4.8835240  
C   -2.1210866   -1.7789155    4.6970523  
O   -2.8083856   -2.3554314    5.6976972  
C   -2.5824069   -2.1655116    3.3310774  
O   -3.5227682   -2.9541547    3.2362962  
C   -1.9100805   -1.6015804    2.1470656  
H   -0.7567140   -0.6349833    5.8697035  
H   -3.4728268   -2.9124471    5.2533954  
H   -2.2742832   -1.9066565    1.1752040  
H    1.6189533    1.3585343    2.0405121  
