62

C    5.0027704   -0.9914688   -7.2004748  
C    5.7546706   -0.5785092   -8.2759185  
C    5.5396190    0.8241745   -8.4202485  
C    4.6398114    1.2148823   -7.3957381  
N    4.3323457    0.0879876   -6.6744965  
C    4.2038038    2.5334730   -7.2344766  
C    4.6851479    3.4748496   -8.1234631  
O    4.2921409    4.7771442   -8.0112672  
C    5.5832999    3.1044324   -9.1525061  
O    5.9714644    4.1560722   -9.9566992  
C    6.0136461    1.8037492   -9.3123558  
H    6.3802413   -1.2107142   -8.8825242  
H    3.5180143    2.8376694   -6.4557858  
H    4.7382117    5.2589805   -8.7198711  
H    6.5769182    3.8206183  -10.6249051  
H    6.7018810    1.5499863  -10.1101114  
H    4.8905445   -1.9708654   -6.7678704  
C    4.5568119   -2.1244626   -2.7957930  
C    4.8215153   -1.6265710   -4.0505851  
C    3.7464017   -0.7514632   -4.3866172  
C    2.8481251   -0.7551197   -3.2888864  
N    3.3693346   -1.6005173   -2.3411203  
C    1.6707636   -0.0012343   -3.2725974  
C    1.3953391    0.7706342   -4.3845946  
O    0.2593678    1.5264367   -4.4212710  
C    2.2790781    0.7872261   -5.4898315  
O    1.8647381    1.6052772   -6.5205876  
C    3.4406176    0.0435413   -5.5067010  
H    5.6829186   -1.8656541   -4.6504331  
H    2.9557219   -1.7960290   -1.4474308  
H    0.2607526    1.9802267   -5.2741120  
H    2.5168286    1.5590890   -7.2264548  
H    5.1203940   -2.8129781   -2.1897558  
C    1.0965514    0.0001358   -0.8010306  
C    0.0000000    0.0000000    0.0000000  
C   -1.1546565    0.0001470   -0.8669508  
C   -0.6372019    0.0003520   -2.2486278  
N    0.7342867    0.0007338   -2.1395012  
C   -1.4147744    0.0001354   -3.3608712  
C   -2.8576052   -0.0001047   -3.1854454  
O   -3.6427785   -0.0002490   -4.1244896  
C   -3.4275841   -0.0000727   -1.7311660  
O   -4.6406832    0.0000333   -1.5710049  
C   -2.4891868   -0.0001090   -0.6116739  
H   -1.0150456    0.0001617   -4.3654239  
H   -2.8919122   -0.0002919    0.3920871  
H    2.1388270    0.0000663   -0.5261650  
C    0.0000000    0.0000000    1.4700000  
C    1.0662921    0.0000102    2.3034270  
C    0.4961870   -0.0000064    3.6418889  
C   -0.9663858    0.0000850    3.4240247  
N   -1.2632773    0.0000084    2.1528658  
C   -1.8985362    0.0000517    4.5177257  
C   -1.3925775   -0.0004564    5.7720543  
O   -2.1456383   -0.0005410    6.8851312  
C    0.0786232   -0.0009323    6.0245000  
O    0.4683759   -0.0012588    7.1921102  
C    1.0143166   -0.0008442    4.8859032  
H    2.1107198   -0.0000632    2.0421868  
H   -2.9622183    0.0003270    4.3293377  
H   -1.5042274   -0.0009692    7.6184419  
H    2.0724152   -0.0013148    5.1109744  
