64

C    7.0211681   -0.7308387   -5.8269217  
C    6.3687792   -0.0125562   -6.8020763  
C    7.3644221    0.7126434   -7.5213684  
C    8.6161632    0.3941844   -6.9351475  
N    8.3715094   -0.4831353   -5.9079807  
C    9.8236877    0.9305876   -7.3922535  
C    9.7665762    1.8041556   -8.4608023  
O   10.9158749    2.3567357   -8.9474056  
C    8.5272198    2.1345029   -9.0588670  
O    8.6365621    3.0182690  -10.1125964  
C    7.3355471    1.6059163   -8.6082700  
H    9.0709901   -0.8927542   -5.3155956  
H   10.7809894    0.6919942   -6.9497068  
H   10.6547257    2.9279684   -9.6814078  
H    7.7554797    3.1884838  -10.4594739  
H    6.4017009    1.8776957   -9.0863336  
H    6.6299508   -1.3991381   -5.0790686  
C    2.8699641   -0.0020527   -4.0185824  
C    4.1418711   -0.0047199   -4.5427127  
C    4.0070340   -0.0066609   -5.9627180  
C    2.6177782   -0.0047543   -6.2488845  
N    1.9559320   -0.0039232   -5.0461476  
C    2.1142961   -0.0055928   -7.5532209  
C    3.0299402   -0.0081002   -8.5875165  
O    2.5927437   -0.0086675   -9.8805249  
C    4.4200523   -0.0104052   -8.3221857  
O    5.2027708   -0.0131798   -9.4582705  
C    4.9174612   -0.0098529   -7.0356748  
H    5.0545875   -0.0063119   -3.9718018  
H    0.9584585    0.0079917   -4.9326308  
H    1.0566197   -0.0042943   -7.7779891  
H    3.3831284   -0.0107971  -10.4359999  
H    6.1269502   -0.0145805   -9.1908868  
C    3.2573673   -0.0002921   -1.5109381  
C    2.5379469   -0.0001710   -0.3591962  
C    1.1435042    0.0000332   -0.7338498  
C    1.1092607   -0.0000083   -2.2088474  
N    2.4227562    0.0001908   -2.6182610  
C   -0.0265532   -0.0002523   -2.9515663  
C   -1.3003033   -0.0002639   -2.2514979  
O   -2.3786784   -0.0004132   -2.8306425  
C   -1.2877726    0.0000312   -0.6895609  
O   -2.3539956    0.0003308   -0.0892035  
C    0.0000000    0.0000000    0.0000000  
H    2.9384091   -0.0000368    0.6389240  
H   -0.0296292   -0.0004086   -4.0327231  
H    4.3270395   -0.0004765   -1.6439444  
C    0.8576279    0.7185626    2.2703808  
C    0.0000000    0.0000000    1.4700000  
C   -0.8668858   -0.7285659    2.3373528  
C   -0.4876752   -0.4117774    3.6669281  
N    0.5635254    0.4678311    3.5902241  
C   -1.1297612   -0.9515493    4.7854808  
C   -2.1738724   -1.8268314    4.5576857  
O   -2.8357962   -2.3827064    5.6140350  
C   -2.5667212   -2.1555554    3.2384331  
O   -3.6226318   -3.0413663    3.1773122  
C   -1.9335634   -1.6236449    2.1344818  
H    1.0363952    0.8769718    4.3757045  
H   -0.8454472   -0.7142436    5.8013813  
H   -3.5178062   -2.9546422    5.2385129  
H   -3.8247440   -3.2102924    2.2519915  
H   -2.2566033   -1.8942483    1.1360343  
H    1.6567807    1.3889844    2.0042067  
