62

C   -0.8087166    0.6302883   -9.0697818  
C    0.1638894   -0.2006129   -9.5758538  
C    0.0566241   -0.1497611  -10.9972992  
C   -1.0079516    0.7363541  -11.3029201  
N   -1.5126911    1.1906858  -10.1098414  
C   -1.3969688    1.0274107  -12.6139277  
C   -0.6983834    0.4129770  -13.6350197  
O   -1.0363789    0.6619765  -14.9337770  
C    0.3665542   -0.4744945  -13.3502061  
O    0.9628534   -1.0062797  -14.4749178  
C    0.7506983   -0.7623027  -12.0571002  
H    0.8637872   -0.7738151   -8.9922649  
H   -2.2696875    1.8426731  -10.0105934  
H   -2.2075693    1.7017500  -12.8535034  
H   -0.4327130    0.1397454  -15.4779529  
H    1.6711024   -1.5940006  -14.1946126  
H    1.5701749   -1.4463227  -11.8698747  
C    0.9246153   -0.7181122   -5.2309988  
C    0.0950446    0.0004351   -4.4015596  
C   -0.8009651    0.7292745   -5.2385542  
C   -0.4676169    0.4126609   -6.5804038  
N    0.5854648   -0.4671111   -6.5399388  
C   -1.1476013    0.9527176   -7.6761906  
C   -2.1831565    1.8281095   -7.4125793  
O   -2.8808317    2.3842616   -8.4455168  
C   -2.5304871    2.1566623   -6.0805765  
O   -3.5835492    3.0426138   -5.9831350  
C   -1.8599255    1.6244708   -4.9990750  
H    1.0310607   -0.8761839   -7.3412410  
H   -3.5494784    2.9562300   -8.0467325  
H   -3.7537874    3.2114092   -5.0513997  
H   -2.1484974    1.8949483   -3.9900921  
H    1.7323259   -1.3886943   -4.9924974  
C    3.3321173    0.0004713   -1.3379338  
C    2.6974181    0.0000116   -2.5332314  
C    1.2800438   -0.0002119   -2.2052841  
C    1.2395034    0.0000643   -0.7271299  
N    2.4394062    0.0005460   -0.2131038  
C    0.0000000    0.0000000    0.0000000  
C   -1.1468702    0.0000634   -0.7169543  
O   -2.3742203    0.0000074   -0.1695487  
C   -1.1388770    0.0001607   -2.2096355  
O   -2.2206234    0.0000905   -2.7970411  
C    0.1454522    0.0001815   -2.9324241  
H    3.1367984   -0.0000653   -3.5160950  
H   -2.9844346    0.0001026   -0.9290167  
H    4.3940038    0.0007618   -1.1498640  
C    2.5128556    2.1077716    2.9199648  
C    1.9592212    1.6432552    4.0696553  
C    0.8915788    0.7479214    3.6910360  
C    0.8684491    0.7287414    2.2159470  
N    1.8754542    1.5738793    1.8102719  
C    0.0000000    0.0000000    1.4700000  
C   -0.9772830   -0.8200135    2.1664417  
O   -1.8021297   -1.5120829    1.5842315  
C   -0.9711318   -0.8147624    3.7284083  
O   -1.7894187   -1.5009653    4.3257297  
C    0.0140216    0.0115358    4.4216297  
H    2.2638494    1.8988021    5.0689105  
H    0.0117648    0.0094386    5.5031631  
H    3.3327358    2.7953732    2.7900019  
H    2.1123206    1.7707734    0.8551938  
