62

C    2.7174884   -3.3037447   -7.9108686  
C    3.4373938   -3.2822850   -9.0829377  
C    3.3949075   -1.9434677   -9.5732065  
C    2.6285086   -1.1864462   -8.6504515  
N    2.2309525   -2.0432767   -7.6542542  
C    2.3785172    0.1791737   -8.8159075  
C    2.9121737    0.7918094   -9.9330775  
O    2.6991059    2.1235015  -10.1433404  
C    3.6792233    0.0533398  -10.8653406  
O    4.1409753    0.8059631  -11.9253808  
C    3.9260205   -1.2939641  -10.7028918  
H    3.9313640   -4.1278395   -9.5301770  
H    1.7950778    0.7617565   -8.1163377  
H    3.1516308    2.3456408  -10.9674409  
H    4.6488374    0.2323161  -12.5072820  
H    4.5170059   -1.8333058  -11.4338657  
H    2.5113765   -4.1187504   -7.2383792  
C    1.5730419   -2.0888202   -5.2039074  
C    1.4267859   -1.6687785   -6.4820906  
C    0.2928029   -0.7579751   -6.4501588  
C   -0.1353499   -0.7453433   -5.0348459  
N    0.6114415   -1.5235254   -4.2995057  
C   -1.2456329    0.0471727   -4.5828766  
C   -1.8982730    0.7934562   -5.5029073  
O   -2.9511437    1.5798092   -5.2215673  
C   -1.4899800    0.8022327   -6.9386581  
O   -2.1295865    1.5052151   -7.7209243  
C   -0.3478308   -0.0192632   -7.3774789  
H   -3.1964700    1.9804400   -6.0750677  
H   -0.0836672    0.0148374   -8.4259470  
H    2.3057726   -2.7751200   -4.8101162  
C    1.1243410    0.0099923   -0.7919003  
C    0.7474076    0.0234544   -2.1148543  
C   -0.6787381    0.0234490   -2.1414700  
C   -1.1201745    0.0098592   -0.7935546  
N    0.0000000    0.0000000    0.0000000  
C   -2.4730816    0.0063709   -0.4408240  
C   -3.3971958    0.0170982   -1.4675058  
O   -4.7313517    0.0146259   -1.1793471  
C   -2.9763648    0.0303504   -2.8186324  
O   -4.0166480    0.0395118   -3.7247624  
C   -1.6418562    0.0335260   -3.1673481  
H    1.4178717    0.0310972   -2.9571209  
H   -2.8160166   -0.0041111    0.5845966  
H   -5.1938818    0.0230867   -2.0274384  
H   -3.6464675    0.0482293   -4.6127343  
H    2.1062467    0.0052819   -0.3505407  
C    0.8175213    0.6860729    2.3021913  
C    0.0000000    0.0000000    1.4700000  
C   -0.8887526   -0.7456559    2.3478473  
C   -0.4549825   -0.3816753    3.7138435  
N    0.5448156    0.4573574    3.6934124  
C   -1.0945674   -0.9182058    4.8835240  
C   -2.1210866   -1.7789155    4.6970523  
O   -2.8083856   -2.3554314    5.6976972  
C   -2.5824069   -2.1655116    3.3310774  
O   -3.5227682   -2.9541547    3.2362962  
C   -1.9100805   -1.6015804    2.1470656  
H   -0.7567140   -0.6349833    5.8697035  
H   -3.4728268   -2.9124471    5.2533954  
H   -2.2742832   -1.9066565    1.1752040  
H    1.6189533    1.3585343    2.0405121  
