64

C   -1.6470930   -0.0507007   -3.2703005  
C   -3.0213931   -0.0987808   -3.3084456  
C   -3.4000715   -0.0966480   -4.6836537  
C   -2.2041039   -0.0461438   -5.4445980  
N   -1.1585564   -0.0173000   -4.5554329  
C   -2.1973263   -0.0305323   -6.8426322  
C   -3.4201362   -0.0668675   -7.4841877  
O   -3.4712344   -0.0540357   -8.8480928  
C   -4.6243214   -0.1170795   -6.7424103  
O   -5.7591543   -0.1483947   -7.5263220  
C   -4.6317712   -0.1322343   -5.3631930  
H   -3.6710842   -0.1302760   -2.4505980  
H   -0.1861317    0.0095446   -4.8037283  
H   -4.4069061   -0.0842489   -9.0865679  
H   -6.5273930   -0.1815887   -6.9481254  
H   -5.5700060   -0.1707761   -4.8221678  
C   -1.1180740   -0.0420388   -0.8003810  
C    0.0000000    0.0000000    0.0000000  
C    1.1316506    0.0408260   -0.8673525  
C    0.6379058    0.0215462   -2.1969283  
N   -0.7317622   -0.0308259   -2.1202246  
C    1.4761903    0.0516837   -3.3154805  
C    2.8376980    0.1025114   -3.0876854  
O    3.7014972    0.1340056   -4.1440342  
C    3.3495632    0.1220824   -1.7684326  
O    4.7268849    0.1730117   -1.7073119  
C    2.5231743    0.0920998   -0.6644816  
H    1.1061430    0.0370750   -4.3313814  
H    4.5909664    0.1670544   -3.7685122  
H    4.9900975    0.1832252   -0.7819908  
H    2.9442785    0.1079755    0.3339665  
H   -2.1604876   -0.0805790   -0.5342075  
C   -0.9628332    0.0219146   -7.6389837  
C    0.3514766    0.0628473   -7.2347792  
C    1.1493899    0.1040456   -8.4164039  
C    0.2592048    0.0861222   -9.5205663  
N   -1.0153484    0.0341650   -9.0131889  
C    0.6991900    0.1169589  -10.8473113  
C    2.0626392    0.1671038  -11.0633413  
O    2.5465624    0.1992329  -12.3391940  
C    2.9667329    0.1853212   -9.9747186  
O    4.2922826    0.2357104  -10.3538256  
C    2.5333940    0.1546484   -8.6655956  
H    0.6931342    0.0618900   -6.2138662  
H   -1.8574727    0.0215099   -9.5596758  
H    0.0258583    0.1033840  -11.6932672  
H    3.5092461    0.2316340  -12.2653415  
H    4.8355537    0.2450084   -9.5598648  
H    3.2496058    0.1694876   -7.8523923  
C    2.4951002    2.0940188    2.9809380  
C    1.9440701    1.6314916    1.8291961  
C    0.8759964    0.7350050    2.2038498  
C    0.8497377    0.7130254    3.6788474  
N    1.8560616    1.5571714    4.0882609  
C   -0.0205033   -0.0168748    4.4215661  
C   -0.9962600   -0.8356168    3.7214979  
O   -1.8224391   -1.5286685    4.3006425  
C   -0.9864710   -0.8277881    2.1595606  
O   -1.8030528   -1.5133726    1.5592035  
C    0.0000000    0.0000000    1.4700000  
H    2.2509283    1.8888011    0.8310761  
H   -0.0229599   -0.0187323    5.5027230  
H    3.3143982    2.7817323    3.1139444  
H    2.0889452    1.7545833    5.0442112  
