62

C    0.0000000    0.0000000    0.0000000  
C    1.0521658   -0.0011915   -0.8862348  
C    0.4917204   -0.0011962   -2.1979134  
C   -0.9187438    0.0003156   -2.0478678  
N   -1.1833172   -0.0009399   -0.7007906  
C   -1.7951720    0.0010369   -3.1372081  
C   -1.2375860    0.0005237   -4.4010417  
O   -2.0474242    0.0015383   -5.4997568  
C    0.1673556   -0.0013570   -4.5711965  
O    0.5673491   -0.0020698   -5.8915554  
C    1.0325755   -0.0023424   -3.4969898  
H    2.0953050   -0.0030673   -0.6200571  
H   -2.0989779    0.0102395   -0.2891812  
H   -1.4634918    0.0006513   -6.2693586  
H    1.5290676   -0.0033171   -5.9180051  
H    2.1042130   -0.0039634   -3.6584468  
C   -4.3329808    2.1449891   -0.3175463  
C   -5.5711572    1.7385073   -0.6826093  
C   -5.3538080    0.8273651   -1.7957482  
C   -3.8860978    0.7997184   -1.9736433  
N   -3.2823588    1.5700994   -1.1099296  
C   -3.2578670    0.0024074   -2.9908491  
C   -4.0594148   -0.7341158   -3.7935875  
O   -3.6090807   -1.5234538   -4.7836302  
C   -5.5440578   -0.7276609   -3.6388152  
O   -6.2117031   -1.4223443   -4.4048992  
C   -6.1645263    0.0984905   -2.5879030  
H   -4.4116756   -1.9150295   -5.1730682  
H   -7.2431293    0.0755131   -2.5084157  
H   -4.0641993    2.8271115    0.4733005  
C   -6.9529691    5.6148943    0.7497729  
C   -8.2072796    5.3320115    1.1719826  
C   -8.3794147    3.9111963    0.9109215  
C   -7.0960850    3.4838868    0.3133784  
N   -6.2559562    4.4782615    0.2164671  
C   -6.8603848    2.1254410   -0.0917833  
C   -7.8610946    1.2343000    0.0920147  
O   -7.7790723   -0.0653975   -0.2397981  
C   -9.1675866    1.6347094    0.6927728  
O  -10.0336065    0.7708144    0.8303101  
C   -9.3849582    3.0342277    1.1002318  
H   -8.9268061    6.0044390    1.6069520  
H   -8.6430116   -0.4400623    0.0099771  
H  -10.3451060    3.2838383    1.5315571  
H   -6.4435397    6.5651569    0.7711301  
C    1.1243417   -0.0099156    2.2619005  
C    0.7474090   -0.0234034    3.5848544  
C   -0.6787367   -0.0234952    3.6114698  
C   -1.1201739   -0.0099357    2.2635546  
N    0.0000000    0.0000000    1.4700000  
C   -2.4730812   -0.0065396    1.9108239  
C   -3.3971947   -0.0173298    2.9375057  
O   -4.7313508   -0.0149487    2.6493466  
C   -2.9763630   -0.0305536    4.2886322  
O   -4.0166453   -0.0397858    5.1947621  
C   -1.6418541   -0.0336380    4.6373480  
H    1.4178735   -0.0310004    4.4271209  
H   -2.8160170    0.0039190    0.8854031  
H   -5.1938803   -0.0234410    3.4974381  
H   -3.6464643   -0.0484781    6.0827341  
H   -1.3497443   -0.0436789    5.6809233  
H    2.1062470   -0.0051382    1.8205408  
