62

C    5.1419940   -0.6928030   -8.6805495  
C    5.9921119   -0.6468555   -9.7611306  
C    5.9936568    0.6993193  -10.2327350  
C    5.1186666    1.4353859   -9.3933761  
N    4.6170335    0.5595433   -8.4628486  
C    4.8763606    2.8015097   -9.5659512  
C    5.5294803    3.4362046  -10.6045923  
O    5.3293457    4.7694161  -10.8179160  
C    6.4060363    2.7188456  -11.4530398  
O    6.9798003    3.4920263  -12.4411332  
C    6.6453413    1.3710584  -11.2835439  
H    6.5424791   -1.4812243  -10.1610293  
H    4.2105278    3.3681856   -8.9297534  
H    5.8718018    5.0083225  -11.5807599  
H    7.5568994    2.9318002  -12.9690617  
H    7.3218793    0.8481815  -11.9494072  
H    4.8674731   -1.5201204   -8.0487725  
C    4.3913908   -0.7046356   -4.2635301  
C    3.2973506   -0.0000934   -3.8752374  
C    2.8435635    0.7418820   -5.0277935  
C    3.7695332    0.4094498   -6.1272747  
N    4.6845877   -0.4715001   -5.5986045  
C    3.6794138    0.9088337   -7.3859249  
C    2.5984069    1.8357536   -7.6770941  
O    2.4323277    2.3400889   -8.7799838  
C    1.6062052    2.2021221   -6.5276973  
O    0.6923303    2.9816918   -6.7608615  
C    1.8057158    1.5992067   -5.2121969  
H    1.1142471    1.8579096   -4.4218379  
H    5.0082528   -1.3743838   -3.6866343  
H    5.4466834   -0.8833671   -6.1051831  
C    3.3321174    0.0004714   -1.3379332  
C    2.6974186    0.0000115   -2.5332308  
C    1.2800441   -0.0002119   -2.2052838  
C    1.2395035    0.0000643   -0.7271293  
N    2.4394063    0.0005458   -0.2131034  
C    0.0000000    0.0000000    0.0000000  
C   -1.1468701    0.0000634   -0.7169542  
O   -2.3742201    0.0000072   -0.1695492  
C   -1.1388767    0.0001606   -2.2096354  
O   -2.2206229    0.0000903   -2.7970413  
C    0.1454526    0.0001815   -2.9324239  
H   -2.9844344    0.0001023   -0.9290168  
H    0.1083580    0.0003680   -4.0135594  
H    4.3940040    0.0007617   -1.1498630  
C    0.8676693    0.7151171    2.2619005  
C    0.5875920    0.4624972    3.5848544  
C   -0.5048400   -0.4542819    3.6114698  
C   -0.8517165   -0.7276451    2.2635546  
N    0.0000000    0.0000000    1.4700000  
C   -1.8902865   -1.5946756    1.9108239  
C   -2.5912627   -2.1969500    2.9375057  
O   -3.6148162   -3.0527051    2.6493466  
C   -2.2603868   -1.9365747    4.2886322  
O   -3.0513550   -2.6123276    5.1947621  
C   -1.2361111   -1.0811317    4.6373480  
H    1.1060808    0.8876438    4.4271209  
H   -2.1597133   -1.8070987    0.8854031  
H   -3.9636755   -3.3565188    3.4974381  
H   -2.7621927   -2.3810384    6.0827341  
H   -1.0058879   -0.9010589    5.6809233  
H    1.6167816    1.3499334    1.8205408  
