62

C    6.7983741    0.1789853   -4.5956020  
C    7.8253123   -0.4798831   -3.9601833  
C    9.0340844   -0.0929912   -4.6111716  
C    8.6791773    0.8113779   -5.6446531  
N    7.3141526    0.9529028   -5.6087028  
C    9.6227059    1.3973154   -6.4939001  
C   10.9486959    1.0644643   -6.2960575  
O   11.9112698    1.6080316   -7.0966819  
C   11.3225481    0.1637722   -5.2704821  
O   12.6809914   -0.0668183   -5.2011695  
C   10.3922436   -0.4148567   -4.4324803  
H    7.7164693   -1.1570114   -3.1303378  
H    6.7754539    1.5414054   -6.2181701  
H    9.3586576    2.0872092   -7.2835376  
H   12.7545935    1.2478715   -6.7927821  
H   12.8482902   -0.6851734   -4.4833592  
H   10.7085600   -1.1013675   -3.6558690  
C    4.5241710   -2.0197346   -1.5987491  
C    3.2543047   -1.6359766   -1.8666077  
C    3.3687740   -0.7183910   -2.9897433  
C    4.8178232   -0.6623649   -3.2790556  
N    5.5001626   -1.4232182   -2.4669566  
C    5.3513652    0.1489627   -4.3383795  
C    4.4770152    0.8711786   -5.0754344  
O    4.8354295    1.6710202   -6.0941754  
C    3.0088452    0.8354824   -4.8082935  
O    2.2716040    1.5186018   -5.5189579  
C    2.4861704   -0.0045255   -3.7159919  
H    2.3514149   -1.9383096   -1.3641538  
H    3.9981217    2.0475216   -6.4202357  
H    4.8653811   -2.6984179   -0.8332835  
C    0.0000000    0.0000000    0.0000000  
C    1.0521669   -0.0011848   -0.8862341  
C    0.4917221   -0.0011931   -2.1979130  
C   -0.9187427    0.0003100   -2.0478683  
N   -1.1833170   -0.0009472   -0.7007915  
C   -1.7951698    0.0010259   -3.1372090  
C   -1.2375835    0.0005161   -4.4010425  
O   -2.0474208    0.0015256   -5.4997580  
C    0.1673584   -0.0013557   -4.5711962  
O    0.5673529   -0.0020659   -5.8915551  
C    1.0325773   -0.0023359   -3.4969890  
H    2.0953059   -0.0030542   -0.6200560  
H   -2.0989777    0.0102265   -0.2891825  
H   -2.8710930    0.0020274   -3.0295514  
H   -1.4634881    0.0006427   -6.2693593  
H    1.5290715   -0.0033076   -5.9180042  
C    3.2798086   -0.0005857    2.9199648  
C    2.5571146   -0.0005566    4.0696553  
C    1.1637436   -0.0001548    3.6910360  
C    1.1336965    0.0000200    2.2159470  
N    2.4483514    0.0001428    1.8102719  
C    0.0000000    0.0000000    1.4700000  
C   -1.2757367    0.0000186    2.1664417  
O   -2.3524596    0.0000640    1.5842315  
C   -1.2676493    0.0000873    3.7284083  
O   -2.3355761    0.0004100    4.3257297  
C    0.0181563   -0.0001760    4.4216297  
H    2.9547357   -0.0006076    5.0689105  
H    0.0150794   -0.0003319    5.5031631  
H    4.3498549   -0.0008612    2.7900019  
H    2.7563627   -0.0012824    0.8551938  
