64

C    7.2229154   -3.3866961   -6.9869517  
C    6.7270327   -2.1230168   -6.7640572  
C    7.2436215   -1.2849779   -7.7962518  
C    8.0550468   -2.0996857   -8.6267737  
N    8.0221825   -3.3694539   -8.1059794  
C    8.7264532   -1.6041142   -9.7485635  
C    8.5757446   -0.2617093  -10.0373776  
O    9.2088771    0.2741883  -11.1213391  
C    7.7707175    0.5674198   -9.2204982  
O    7.7213149    1.8809589   -9.6394461  
C    7.1082849    0.0792626   -8.1135160  
H    8.4964752   -4.1666783   -8.4899868  
H    9.3464955   -2.2197953  -10.3854971  
H    8.9730826    1.2108443  -11.1398073  
H    7.1575057    2.3722497   -9.0341721  
H    6.4988613    0.7385584   -7.5065484  
H    7.0708574   -4.2986451   -6.4354218  
C    5.8833910   -2.1427757   -4.3709413  
C    5.8356981   -1.7363035   -5.6609362  
C    4.7031565   -0.8254389   -5.7255535  
C    4.1678913   -0.7979256   -4.3473962  
N    4.8557055   -1.5681393   -3.5488520  
C    3.0267438   -0.0008951   -3.9901699  
C    2.4469276    0.7354873   -4.9653053  
O    1.3760859    1.5245623   -4.7737362  
C    2.9639695    0.7291613   -6.3655868  
O    2.3865732    1.4237044   -7.2019148  
C    4.1358654   -0.0967023   -6.7069580  
H    1.1970817    1.9160958   -5.6476994  
H    4.4795601   -0.0736389   -7.7324192  
H    6.5833960   -2.8247270   -3.9149717  
C    3.3003547    0.0005277   -1.4738986  
C    2.5232816    0.0003497   -2.6090746  
C    1.1623203   -0.0001319   -2.1820102  
C    1.1711884    0.0000584   -0.7636141  
N    2.4852301   -0.0014919   -0.3662359  
C    0.0000000    0.0000000    0.0000000  
C   -1.2020383    0.0000520   -0.6806479  
O   -2.3759248    0.0003493    0.0157745  
C   -1.2314655   -0.0005115   -2.0955511  
O   -2.5054388   -0.0008040   -2.6250184  
C   -0.0764513   -0.0007274   -2.8495195  
H    2.8036266    0.0088183    0.5858662  
H   -3.0835639    0.0000346   -0.6418822  
H   -2.4360043   -0.0011529   -3.5845924  
H   -0.1304091   -0.0013423   -3.9319089  
H    4.3715553    0.0004897   -1.3667133  
C    2.5311839    2.1237619    3.0120429  
C    1.9795631    1.6616747    1.8395852  
C    0.9223175    0.7739173    2.1983588  
C    0.8753926    0.7337535    3.6154372  
N    1.8668922    1.5631002    4.0777464  
C   -0.0496243   -0.0427881    4.3197917  
C   -0.9437528   -0.7922060    3.5801400  
O   -1.8685244   -1.5680278    4.2172520  
C   -0.9124520   -0.7656372    2.1655264  
O   -1.8671164   -1.5663939    1.5732860  
C    0.0000000    0.0000000    1.4700000  
H    2.3005065    1.9304404    0.8477417  
H    2.0679347    1.7444845    5.0445261  
H   -0.0904770   -0.0778569    5.3997470  
H   -2.3849669   -2.0011402    3.5251786  
H   -1.7775064   -1.4909735    0.6183591  
H    3.3468514    2.8078103    3.1724291  
