62

C    4.6566632   -0.6143433   -8.8948101  
C    4.1463349    0.6296484   -8.6040918  
C    4.6237644    1.5210432   -9.6101122  
C    5.4272862    0.7576772  -10.4952957  
N    5.4276054   -0.5341826  -10.0308439  
C    6.0627165    1.3135750  -11.6097450  
C    5.8834874    2.6646382  -11.8348737  
O    6.4809526    3.2584974  -12.9088298  
C    5.0857931    3.4431192  -10.9628272  
O    5.0050651    4.7728110  -11.3216397  
C    4.4588475    2.8954337   -9.8630515  
H    5.9049157   -1.3055086  -10.4612063  
H    6.6765528    0.7372194  -12.2881394  
H    6.2298467    4.1909009  -12.8799569  
H    4.4486398    5.2272687  -10.6817466  
H    3.8541865    3.5168561   -9.2129004  
H    4.5328879   -1.5521703   -8.3808862  
C    4.1935185   -0.7177393   -4.3920614  
C    3.1006054    0.0006263   -3.9654951  
C    2.6156860    0.7290725   -5.0919140  
C    3.4596598    0.4124174   -6.1870685  
N    4.4081829   -0.4669997   -5.7271260  
C    3.2765215    0.9521232   -7.4637702  
C    2.2220064    1.8272008   -7.6381678  
O    1.9974349    2.3830030   -8.8644086  
C    1.3691749    2.1557893   -6.5576472  
O    0.3653173    3.0414015   -6.8912722  
C    1.5494147    1.6239438   -5.2978137  
H    5.1380334   -0.8760155   -6.2821089  
H    1.2248027    2.9547944   -8.7676627  
H   -0.1646173    3.2102460   -6.1062470  
H    0.8800653    1.8944399   -4.4895553  
H    4.8377625   -1.3880253   -3.8492672  
C    3.2798083    0.0005857   -1.4499652  
C    2.5571142    0.0005565   -2.5996556  
C    1.1637432    0.0001548   -2.2210361  
C    1.1336964   -0.0000200   -0.7459473  
N    2.4483512   -0.0001428   -0.3402723  
C    0.0000000    0.0000000    0.0000000  
C   -1.2757368   -0.0000186   -0.6964415  
O   -2.3524598   -0.0000639   -0.1142311  
C   -1.2676497   -0.0000872   -2.2584083  
O   -2.3355766   -0.0004101   -2.8557295  
C    0.0181558    0.0001758   -2.9516296  
H    0.0150788    0.0003319   -4.0331631  
H    4.3498547    0.0008612   -1.3200026  
H    2.7563626    0.0012823    0.6148059  
C    0.0000000    0.0000000    1.4700000  
C    1.0541688    0.0001722    2.3260392  
C    0.5103138    0.0000454    3.6635956  
C   -0.9576371   -0.0002459    3.5155732  
N   -1.2018458    0.0001392    2.1615969  
C   -1.8348311   -0.0008317    4.5510609  
C   -1.2972847   -0.0009736    5.9014604  
O   -2.0050672   -0.0014265    6.9001319  
C    0.2542623   -0.0004184    6.0817573  
O    0.7184670   -0.0002256    7.2139121  
C    1.0974552   -0.0000873    4.8889129  
H    2.0940752    0.0005483    2.0517982  
H   -2.9081052   -0.0011668    4.4207061  
H    2.1707277    0.0000911    5.0223670  
H   -2.1128194   -0.0014912    1.7406791  
