62

C   -0.4077243   -0.6163651   -9.5626956  
C   -0.1055149   -0.5446083  -10.9028398  
C   -0.3066374    0.8096289  -11.3030796  
C   -0.7348492    1.5237870  -10.1548022  
N   -0.7874008    0.6277176   -9.1160936  
C   -1.0273508    2.8907563  -10.1798520  
C   -0.8846895    3.5488372  -11.3859833  
O   -1.1566785    4.8839539  -11.4665928  
C   -0.4589697    2.8535557  -12.5427746  
O   -0.3661280    3.6485723  -13.6664606  
C   -0.1704958    1.5049502  -12.5188576  
H    0.2188175   -1.3673812  -11.5167185  
H   -1.3542857    3.4408034   -9.3082073  
H   -0.9953298    5.1405809  -12.3838569  
H   -0.0726785    3.1023581  -14.4020847  
H    0.1533482    0.9993010  -13.4210338  
H   -0.3838607   -1.4568439   -8.8903962  
C    0.8246865   -0.7190543   -5.2242741  
C   -0.0307352   -0.0004646   -4.4215603  
C   -0.9001604    0.7278868   -5.2865486  
C   -0.5247010    0.4109452   -6.6171514  
N    0.5268046   -0.4685439   -6.5433115  
C   -1.1700225    0.9504894   -7.7339507  
C   -2.2135719    1.8256968   -7.5033123  
O   -2.8785559    2.3813509   -8.5578538  
C   -2.6027001    2.1545709   -6.1829949  
O   -3.6585241    3.0402816   -6.1189979  
C   -1.9663491    1.6228849   -5.0807725  
H    0.9974802   -0.8777492   -7.3300751  
H   -3.5595538    2.9532703   -8.1804759  
H   -3.8580207    3.2093203   -5.1931304  
H   -2.2865752    1.8935993   -4.0814492  
H    1.6246627   -1.3893551   -4.9602782  
C    3.2573670   -0.0002920   -1.5109380  
C    2.5379468   -0.0001709   -0.3591961  
C    1.1435043    0.0000332   -0.7338500  
C    1.1092609   -0.0000082   -2.2088477  
N    2.4227562    0.0001909   -2.6182613  
C   -0.0265532   -0.0002522   -2.9515663  
C   -1.3003035   -0.0002639   -2.2514981  
O   -2.3786784   -0.0004131   -2.8306429  
C   -1.2877725    0.0000312   -0.6895608  
O   -2.3539958    0.0003307   -0.0892036  
C    0.0000000    0.0000000    0.0000000  
H    2.9384091   -0.0000369    0.6389239  
H    4.3270394   -0.0004765   -1.6439446  
H    2.7280494   -0.0013406   -3.5742113  
C    2.5528530    2.1414826    2.8079335  
C    2.0663498    1.7338582    4.0032312  
C    0.9804344    0.8229586    3.6752840  
C    0.9495562    0.7966882    2.1971295  
N    1.8690446    1.5676019    1.6831036  
C    0.0000000    0.0000000    1.4700000  
C   -0.8785127   -0.7372425    2.1869543  
O   -1.8187535   -1.5261249    1.6395491  
C   -0.8723269   -0.7321790    3.6796354  
O   -1.7010379   -1.4274584    4.2670412  
C    0.1115397    0.0933559    4.4024240  
H    2.4028853    2.0163452    4.9860947  
H   -2.2861435   -1.9184361    2.3990168  
H    0.0832434    0.0693689    5.4835595  
H    3.3664920    2.8238276    2.6198634  
