64

C    0.6932996   -0.6148933   -9.6385849  
C    1.4727871   -0.5428839  -10.7698143  
C    1.4349689    0.8114036  -11.2159935  
C    0.6098720    1.5253307  -10.3096539  
N    0.1744505    0.6290811   -9.3653221  
C    0.3475372    2.8922787  -10.4416489  
C    0.9289648    3.5505759  -11.5078395  
O    0.7063600    4.8856830  -11.6837647  
C    1.7549162    2.8555267  -12.4230064  
O    2.2593876    3.6507413  -13.4312145  
C    2.0139324    1.5069420  -12.2935601  
H    2.0024998   -1.3655248  -11.2188799  
H   -0.2805344    3.4421503   -9.7543571  
H    1.1976248    5.1424789  -12.4749530  
H    2.8057324    3.1046766  -14.0047356  
H    2.6504979    1.0014733  -13.0103332  
H    0.4652274   -1.4554836   -9.0058515  
C    0.2216275   -0.7182092   -5.1532606  
C   -0.8712826    0.0001710   -4.7267111  
C   -1.3561987    0.7285934   -5.8531470  
C   -0.5122259    0.4119091   -6.9482939  
N    0.4362931   -0.4675016   -6.4883311  
C   -0.6953620    0.9515862   -8.2250078  
C   -1.7498730    1.8266644   -8.3994262  
O   -1.9744423    2.3824392   -9.6256790  
C   -2.6027032    2.1552817   -7.3189133  
O   -3.6065569    3.0408906   -7.6525589  
C   -2.4224660    1.6234646   -6.0590675  
H    1.1661418   -0.8765333   -7.0433044  
H   -2.7470716    2.9542363   -9.5289473  
H   -4.1364908    3.2097556   -6.8675377  
H   -3.0918143    1.8939823   -5.2508155  
H    0.8658683   -1.3884854   -4.6104509  
C    1.0965514    0.0001359   -0.8010305  
C    0.0000000    0.0000000    0.0000000  
C   -1.1546563    0.0001470   -0.8669513  
C   -0.6372014    0.0003519   -2.2486282  
N    0.7342871    0.0007337   -2.1395014  
C   -1.4147739    0.0001352   -3.3608717  
C   -2.8576049   -0.0001048   -3.1854462  
O   -3.6427779   -0.0002494   -4.1244907  
C   -3.4275840   -0.0000725   -1.7311666  
O   -4.6406831    0.0000333   -1.5710060  
C   -2.4891867   -0.0001091   -0.6116744  
H   -2.8919122   -0.0002918    0.3920866  
H    2.1388272    0.0000663   -0.5261648  
H    1.3735872   -0.0006099   -2.9130262  
C    2.5311839    2.1237619    3.0120429  
C    1.9795631    1.6616747    1.8395852  
C    0.9223175    0.7739173    2.1983588  
C    0.8753926    0.7337535    3.6154372  
N    1.8668922    1.5631002    4.0777464  
C   -0.0496243   -0.0427881    4.3197917  
C   -0.9437528   -0.7922060    3.5801400  
O   -1.8685244   -1.5680278    4.2172520  
C   -0.9124520   -0.7656372    2.1655264  
O   -1.8671164   -1.5663939    1.5732860  
C    0.0000000    0.0000000    1.4700000  
H    2.3005065    1.9304404    0.8477417  
H    2.0679347    1.7444845    5.0445261  
H   -0.0904770   -0.0778569    5.3997470  
H   -2.3849669   -2.0011402    3.5251786  
H   -1.7775064   -1.4909735    0.6183591  
H    3.3468514    2.8078103    3.1724291  
