60

C    4.8041503   -1.0679540   -4.9591845  
C    5.6234070   -1.9548385   -4.2998506  
C    6.7323568   -2.2146421   -5.1585303  
C    6.5335094   -1.4516068   -6.3375821  
N    5.3525604   -0.7686058   -6.1843324  
C    7.4345713   -1.4627560   -7.4065777  
C    8.5569646   -2.2584491   -7.2829522  
O    9.4695800   -2.3062824   -8.2967854  
C    8.7727812   -3.0272730   -6.1145558  
O    9.9362817   -3.7680584   -6.1436577  
C    7.8841492   -3.0169693   -5.0596852  
H    5.4432858   -2.3650248   -3.3209241  
H    4.9562733   -0.1365588   -6.8562356  
H    7.2887068   -0.8836013   -8.3079691  
H   10.1648238   -2.9126009   -8.0099417  
H   10.0060251   -4.2573780   -5.3182454  
H    8.0761162   -3.6165340   -4.1775577  
C    2.8912669   -0.6998115   -3.3332351  
C    1.7334695    0.0049281   -3.2500363  
C    1.6041098    0.7488997   -4.4807302  
C    2.7899380    0.4174240   -5.2935810  
N    3.5303611   -0.4649345   -4.5411804  
C    3.0393019    0.9187051   -6.5298007  
C    2.0755504    1.8468032   -7.0975612  
O    2.2101242    2.3528617   -8.2039496  
C    0.8125763    2.2121888   -6.2542377  
O   -0.0056411    2.9927354   -6.7217073  
C    0.6534232    1.6072170   -4.9341878  
H    3.9152831    0.6624811   -7.1093830  
H   -0.2239006    1.8652504   -4.3567397  
H    3.3315066   -1.3708303   -2.6136437  
C    1.1319246    0.0015678   -0.8009268  
C    0.7969914    0.0034958   -2.1169401  
C   -0.6453340    0.0035696   -2.1842669  
C   -1.1266832    0.0015410   -0.7896025  
N    0.0000000    0.0000000    0.0000000  
C   -2.4346129    0.0013913   -0.4276292  
C   -3.4350111    0.0031335   -1.4820181  
O   -4.6384614    0.0030875   -1.2583914  
C   -2.9478961    0.0050442   -2.9661074  
O   -3.7809382    0.0062135   -3.8623773  
C   -1.5113825    0.0053055   -3.2312122  
H   -2.7664565    0.0000174    0.6013448  
H   -1.1823533    0.0068381   -4.2614848  
H    2.1104316    0.0009435   -0.3488059  
C    0.8400945    0.7047457    2.2710304  
C    0.0000000    0.0000000    1.4700000  
C   -0.8844236   -0.7423113    2.3369512  
C   -0.4878984   -0.4098547    3.7186280  
N    0.5629682    0.4714286    3.6095011  
C   -1.0836927   -0.9095027    4.8308716  
C   -2.1891196   -1.8367527    4.6554461  
O   -2.7906899   -2.3413415    5.5944904  
C   -2.6257283   -2.2031529    3.2011665  
O   -3.5549479   -2.9829990    3.0410059  
C   -1.9068976   -1.5999348    2.0816745  
H   -0.7774656   -0.6525820    5.8354244  
H   -2.2155208   -1.8586617    1.0779135  
H    1.6384792    1.3747609    1.9961646  
H    1.0518368    0.8833920    4.3830260  
