62

C    8.3214066   -3.1025988   -4.5629213  
C    9.3642395   -2.3014721   -4.9668567  
C    8.8505646   -0.9757428   -5.0816611  
C    7.4770026   -1.0298521   -4.7319079  
N    7.1879707   -2.3361527   -4.4242437  
C    6.6512658    0.0983966   -4.7331416  
C    7.2226104    1.3032697   -5.0937294  
O    6.4618603    2.4363874   -5.1115496  
C    8.5911919    1.3774366   -5.4462923  
O    9.0107041    2.6482094   -5.7816869  
C    9.4063331    0.2647506   -5.4455585  
H   10.3710380   -2.6321427   -5.1566112  
H    6.2912800   -2.6782153   -4.1294221  
H    7.0470917    3.1538620   -5.3872273  
H    9.9454262    2.6105334   -6.0063647  
H   10.4509368    0.3524058   -5.7205059  
H    8.2960889   -4.1603344   -4.3641454  
C    4.4206220   -2.1198138   -1.5561253  
C    5.4069067   -1.6197474   -2.3744427  
C    4.7719050   -0.7451150   -3.3052442  
C    3.3859892   -0.7512895   -3.0033736  
N    3.2068301   -1.5976640   -1.9374612  
C    2.4521483    0.0014840   -3.7217481  
C    2.9260544    0.7748090   -4.7636496  
O    2.0575520    1.5296191   -5.4978009  
C    4.3052229    0.7939172   -5.0804267  
O    4.6197291    1.6131716   -6.1449695  
C    5.2270108    0.0513305   -4.3723324  
H    6.4549560   -1.8571123   -2.3092927  
H    2.3277576   -1.7949326   -1.4944060  
H    2.5878303    1.9847230   -6.1648475  
H    5.5693400    1.5686713   -6.2928301  
H    4.4867485   -2.8087414   -0.7315251  
C    0.0000000    0.0000000    0.0000000  
C    1.0662923   -0.0000101   -0.8334270  
C    0.4961873    0.0000065   -2.1718887  
C   -0.9663854   -0.0000848   -1.9540250  
N   -1.2632773   -0.0000083   -0.6828660  
C   -1.8985359   -0.0000514   -3.0477261  
C   -1.3925770    0.0004566   -4.3020547  
O   -2.1456378    0.0005414   -5.4151314  
C    0.0786240    0.0009326   -4.5545000  
O    0.4683767    0.0012591   -5.7221100  
C    1.0143171    0.0008444   -3.4159031  
H    2.1107200    0.0000633   -0.5721865  
H   -2.9622181   -0.0003268   -2.8593381  
H   -1.5042265    0.0009697   -6.1484419  
C    1.0965515   -0.0001358    2.2710304  
C    0.0000000    0.0000000    1.4700000  
C   -1.1546562   -0.0001469    2.3369512  
C   -0.6372014   -0.0003519    3.7186280  
N    0.7342871   -0.0007337    3.6095011  
C   -1.4147739   -0.0001353    4.8308716  
C   -2.8576048    0.0001048    4.6554461  
O   -3.6427778    0.0002493    5.5944904  
C   -3.4275839    0.0000726    3.2011665  
O   -4.6406829   -0.0000333    3.0410059  
C   -2.4891866    0.0001091    2.0816745  
H   -1.0150448   -0.0001615    5.8354244  
H   -2.8919121    0.0002919    1.0779135  
H    2.1388271   -0.0000662    1.9961646  
H    1.3735872    0.0006099    4.3830260  
