64

C   -7.5649325   -0.0839758   -2.6655748  
C   -8.4204355    0.5643654   -1.8052053  
C   -9.7442227    0.1633369   -2.1535766  
C   -9.6328765   -0.7384093   -3.2427882  
N   -8.2963378   -0.8648428   -3.5296591  
C  -10.7434267   -1.3358065   -3.8465966  
C  -11.9890518   -1.0173253   -3.3414579  
O  -13.1071197   -1.5725018   -3.8934687  
C  -12.1206319   -0.1194748   -2.2554708  
O  -13.4269537    0.0962279   -1.8677326  
C  -11.0255021    0.4704544   -1.6594845  
H   -8.1265948    1.2437285   -1.0234659  
H   -7.9099583   -1.4481665   -4.2496771  
H  -10.6652810   -2.0237750   -4.6771360  
H  -13.8590107   -1.2212588   -3.3989457  
H  -13.4272129    0.7136343   -1.1298892  
H  -11.1574720    1.1544473   -0.8292941  
C   -4.5382360    2.1274890   -0.3187874  
C   -3.4269599    1.6643335   -0.9843849  
C   -3.8900485    0.7769751   -2.0006251  
C   -5.3047945    0.7381442   -1.9062259  
N   -5.6653098    1.5678667   -0.8736531  
C   -6.0984769   -0.0376821   -2.7564909  
C   -5.4522277   -0.7877416   -3.7197925  
O   -6.1789766   -1.5629116   -4.5765088  
C   -4.0415024   -0.7625026   -3.8294924  
O   -3.5480074   -1.5637590   -4.8383502  
C   -3.2578655    0.0024282   -2.9908505  
H   -2.4078383    1.9321494   -0.7637975  
H   -6.6070984    1.7501468   -0.5773599  
H   -5.5421683   -1.9966430   -5.1592751  
H   -2.5888327   -1.4892405   -4.8442645  
H   -4.6159714    2.8116403    0.5087717  
C    0.0000000    0.0000000    0.0000000  
C    1.0521666   -0.0011982   -0.8862343  
C    0.4917215   -0.0011996   -2.1979132  
C   -0.9187429    0.0003215   -2.0478682  
N   -1.1833171   -0.0009323   -0.7007913  
C   -1.7951703    0.0010483   -3.1372089  
C   -1.2375841    0.0005313   -4.4010422  
O   -2.0474218    0.0015510   -5.4997578  
C    0.1673576   -0.0013585   -4.5711963  
O    0.5673520   -0.0020735   -5.8915554  
C    1.0325768   -0.0023493   -3.4969892  
H    2.0953056   -0.0030808   -0.6200564  
H   -2.0989778    0.0102529   -0.2891822  
H   -1.4634888    0.0006601   -6.2693595  
H    1.5290707   -0.0033271   -5.9180047  
H    2.1042146   -0.0039770   -3.6584456  
C    3.2573670    0.0002920    2.9809380  
C    2.5379467    0.0001709    1.8291961  
C    1.1435042   -0.0000331    2.2038498  
C    1.1092607    0.0000083    3.6788474  
N    2.4227561   -0.0001909    4.0882609  
C   -0.0265533    0.0002524    4.4215661  
C   -1.3003036    0.0002640    3.7214979  
O   -2.3786784    0.0004133    4.3006425  
C   -1.2877726   -0.0000311    2.1595606  
O   -2.3539958   -0.0003306    1.5592035  
C    0.0000000    0.0000000    1.4700000  
H    2.9384090    0.0000368    0.8310761  
H   -0.0296291    0.0004086    5.5027230  
H    4.3270393    0.0004765    3.1139444  
H    2.7280493    0.0013407    5.0442112  
