64

C    5.9544420   -0.0109776   -4.5530911  
C    6.1720646   -0.0122767   -3.1947445  
C    7.5850229   -0.0154092   -2.9994501  
C    8.1829660   -0.0156061   -4.2856802  
N    7.1646431   -0.0148273   -5.2063504  
C    9.5681229   -0.0180584   -4.4757509  
C   10.3641587   -0.0200467   -3.3468130  
O   11.7230492   -0.0221292   -3.4749796  
C    9.7862938   -0.0202620   -2.0549578  
O   10.7119567   -0.0227715   -1.0319786  
C    8.4198831   -0.0181169   -1.8666985  
H    5.4065806   -0.0122153   -2.4377589  
H    7.2835379   -0.0041964   -6.2032114  
H   10.0300703   -0.0183661   -5.4534035  
H   12.0818976   -0.0235719   -2.5780448  
H   10.2392320   -0.0227185   -0.1940438  
H    8.0062533   -0.0185240   -0.8650060  
C    1.6707638   -0.0012342   -3.2725973  
C    3.0463716   -0.0037083   -3.2854242  
C    3.4499897   -0.0054180   -4.6535213  
C    2.2671975   -0.0035760   -5.4364169  
N    1.2050910   -0.0030039   -4.5666199  
C    2.2856101   -0.0042331   -6.8344329  
C    3.5205418   -0.0064893   -7.4533968  
O    3.5962555   -0.0068717   -8.8162179  
C    4.7118874   -0.0087263   -6.6895196  
O    5.8613546   -0.0112432   -7.4524488  
C    4.6944759   -0.0083529   -5.3103087  
H    3.6808654   -0.0053233   -2.4157071  
H    0.2370776    0.0088102   -4.8326878  
H    1.3876895   -0.0029823   -7.4368772  
H    4.5366398   -0.0088425   -9.0374357  
H    6.6195102   -0.0126142   -6.8601634  
C    1.0965515    0.0001359   -0.8010305  
C    0.0000000    0.0000000    0.0000000  
C   -1.1546564    0.0001470   -0.8669509  
C   -0.6372018    0.0003521   -2.2486279  
N    0.7342868    0.0007339   -2.1395011  
C   -1.4147743    0.0001355   -3.3608714  
C   -2.8576049   -0.0001046   -3.1854455  
O   -3.6427782   -0.0002491   -4.1244898  
C   -3.4275842   -0.0000725   -1.7311664  
O   -4.6406831    0.0000334   -1.5710053  
C   -2.4891868   -0.0001091   -0.6116742  
H   -1.0150456    0.0001619   -4.3654242  
H   -2.8919123   -0.0002920    0.3920869  
H    2.1388270    0.0000663   -0.5261648  
C    0.8576279    0.7185626    2.2703808  
C    0.0000000    0.0000000    1.4700000  
C   -0.8668858   -0.7285659    2.3373528  
C   -0.4876752   -0.4117774    3.6669281  
N    0.5635254    0.4678311    3.5902241  
C   -1.1297612   -0.9515493    4.7854808  
C   -2.1738724   -1.8268314    4.5576857  
O   -2.8357962   -2.3827064    5.6140350  
C   -2.5667212   -2.1555554    3.2384331  
O   -3.6226318   -3.0413663    3.1773122  
C   -1.9335634   -1.6236449    2.1344818  
H    1.0363952    0.8769718    4.3757045  
H   -0.8454472   -0.7142436    5.8013813  
H   -3.5178062   -2.9546422    5.2385129  
H   -3.8247440   -3.2102924    2.2519915  
H   -2.2566033   -1.8942483    1.1360343  
H    1.6567807    1.3889844    2.0042067  
