62

C   -9.1411904    3.2397696   -1.8522463  
C   -7.9859765    2.5321545   -2.0914735  
C   -8.3653015    1.1722782   -2.2950661  
C   -9.7765945    1.1102462   -2.1672798  
N  -10.2156384    2.3824795   -1.8965760  
C  -10.4970880   -0.0797141   -2.3075355  
C   -9.7798526   -1.2279179   -2.5820877  
O  -10.4334499   -2.4171169   -2.7291596  
C   -8.3713116   -1.1863445   -2.7128548  
O   -7.8020296   -2.4128996   -2.9863951  
C   -7.6598464   -0.0128202   -2.5743482  
H   -6.9920393    2.9450971   -2.1151162  
H  -11.1743921    2.6498942   -1.7651927  
H  -11.5727300   -0.1336778   -2.2111800  
H   -9.7555656   -3.0802995   -2.9133477  
H   -6.8497597   -2.2967845   -3.0592092  
H   -9.2835936    4.2879186   -1.6520859  
C   -4.5109061    2.0977189   -0.3577879  
C   -3.4201849    1.6341429   -1.0207351  
C   -3.9001607    0.7380706   -2.0461681  
C   -5.3704639    0.7174771   -1.9254392  
N   -5.6768567    1.5619484   -0.8833829  
C   -6.1968217   -0.0116748   -2.7173826  
C   -5.5981518   -0.8310167   -3.7579633  
O   -6.2573275   -1.5234763   -4.5223509  
C   -4.0429941   -0.8246549   -3.9037354  
O   -3.5275665   -1.5107550   -4.7760092  
C   -3.2578655    0.0024282   -2.9908505  
H   -2.3962310    1.8904976   -0.8147872  
H   -4.5610332    2.7855092    0.4706573  
H   -6.6046839    1.7602441   -0.5564855  
C    0.0000000    0.0000000    0.0000000  
C    1.0521666   -0.0011982   -0.8862343  
C    0.4917215   -0.0011996   -2.1979132  
C   -0.9187429    0.0003215   -2.0478682  
N   -1.1833171   -0.0009323   -0.7007913  
C   -1.7951703    0.0010483   -3.1372089  
C   -1.2375841    0.0005313   -4.4010422  
O   -2.0474218    0.0015510   -5.4997578  
C    0.1673576   -0.0013585   -4.5711963  
O    0.5673520   -0.0020735   -5.8915554  
C    1.0325768   -0.0023493   -3.4969892  
H    2.0953056   -0.0030808   -0.6200564  
H   -2.0989778    0.0102529   -0.2891822  
H   -1.4634888    0.0006601   -6.2693595  
H    1.5290707   -0.0033271   -5.9180047  
H    2.1042146   -0.0039770   -3.6584456  
C    3.2798086   -0.0005857    2.9199648  
C    2.5571146   -0.0005566    4.0696553  
C    1.1637436   -0.0001548    3.6910360  
C    1.1336965    0.0000200    2.2159470  
N    2.4483514    0.0001428    1.8102719  
C    0.0000000    0.0000000    1.4700000  
C   -1.2757367    0.0000186    2.1664417  
O   -2.3524596    0.0000640    1.5842315  
C   -1.2676493    0.0000873    3.7284083  
O   -2.3355761    0.0004100    4.3257297  
C    0.0181563   -0.0001760    4.4216297  
H    2.9547357   -0.0006076    5.0689105  
H    0.0150794   -0.0003319    5.5031631  
H    4.3498549   -0.0008612    2.7900019  
H    2.7563627   -0.0012824    0.8551938  
