64

C    5.0774382   -1.0387129   -7.2345154  
C    4.4251619    0.0565994   -6.7175106  
C    4.8082454    1.1806396   -7.5076880  
C    5.7031640    0.7058863   -8.5004907  
N    5.8462267   -0.6453613   -8.3048366  
C    6.2827166    1.5428607   -9.4588136  
C    5.9526077    2.8834661   -9.4142814  
O    6.4896743    3.7449847  -10.3266185  
C    5.0618898    3.3762341   -8.4311139  
O    4.8334988    4.7340089   -8.5184491  
C    4.4899835    2.5511611   -7.4852257  
H    6.4131527   -1.2560433   -8.8648755  
H    6.9656193    1.1872440  -10.2180118  
H    6.1333209    4.6187647  -10.1197745  
H    4.2219751    4.9851441   -7.8194690  
H    3.8113446    2.9573710   -6.7443344  
H    5.0562235   -2.0691645   -6.9235839  
C    4.5310506   -2.0790479   -2.8543219  
C    4.8140929   -1.6029425   -4.0941952  
C    3.7433602   -0.7037141   -4.4544101  
C    2.8066152   -0.6948785   -3.3145761  
N    3.3414836   -1.5491125   -2.3780458  
C    1.6628945    0.0339172   -3.2649299  
C    1.3323529    0.8649109   -4.4106728  
O    0.3247031    1.5579297   -4.4623209  
C    2.3099254    0.8707265   -5.6289185  
O    2.0419947    1.5662240   -6.5993602  
C    3.5120773    0.0432791   -5.5655567  
H    5.6746401   -1.8532646   -4.6886789  
H    5.0912897   -2.7726313   -2.2485460  
H    2.9319190   -1.7542583   -1.4851743  
C    1.1243410    0.0100105   -0.7919003  
C    0.7474072    0.0234665   -2.1148542  
C   -0.6787384    0.0234379   -2.1414698  
C   -1.1201748    0.0098411   -0.7935547  
N    0.0000000    0.0000000    0.0000000  
C   -2.4730818    0.0063307   -0.4408240  
C   -3.3971962    0.0170429   -1.4675058  
O   -4.7313520    0.0145490   -1.1793468  
C   -2.9763654    0.0303020   -2.8186325  
O   -4.0166484    0.0394464   -3.7247625  
C   -1.6418567    0.0334992   -3.1673480  
H   -2.8160166   -0.0041569    0.5845966  
H   -5.1938823    0.0230023   -2.0274386  
H   -3.6464680    0.0481700   -4.6127343  
H   -1.3497475    0.0435647   -4.2109234  
H    2.1062466    0.0053162   -0.3505405  
C    2.5311839    2.1237619    3.0120429  
C    1.9795631    1.6616747    1.8395852  
C    0.9223175    0.7739173    2.1983588  
C    0.8753926    0.7337535    3.6154372  
N    1.8668922    1.5631002    4.0777464  
C   -0.0496243   -0.0427881    4.3197917  
C   -0.9437528   -0.7922060    3.5801400  
O   -1.8685244   -1.5680278    4.2172520  
C   -0.9124520   -0.7656372    2.1655264  
O   -1.8671164   -1.5663939    1.5732860  
C    0.0000000    0.0000000    1.4700000  
H    2.3005065    1.9304404    0.8477417  
H    2.0679347    1.7444845    5.0445261  
H   -0.0904770   -0.0778569    5.3997470  
H   -2.3849669   -2.0011402    3.5251786  
H   -1.7775064   -1.4909735    0.6183591  
H    3.3468514    2.8078103    3.1724291  
