62

C   -8.4886136    0.8945838   -1.9168130  
C   -9.7965856    0.4922097   -1.7761924  
C   -9.8304478   -0.9106318   -2.0321000  
C   -8.5021477   -1.3123407   -2.3256570  
N   -7.7131165   -0.1915623   -2.2488359  
C   -8.1610896   -2.6341337   -2.6278684  
C   -9.1794445   -3.5674601   -2.6335464  
O   -8.9019751   -4.8724306   -2.9217763  
C  -10.5110792   -3.1860213   -2.3435951  
O  -11.4110958   -4.2306155   -2.3898413  
C  -10.8483123   -1.8821733   -2.0456358  
H  -10.6246333    1.1313918   -1.5216814  
H   -7.1506505   -2.9467008   -2.8526262  
H   -9.7416567   -5.3475386   -2.8720427  
H  -12.2857603   -3.8878933   -2.1822197  
H  -11.8770337   -1.6199065   -1.8278552  
H   -8.0477543    1.8706724   -1.8079447  
C   -4.6051151    2.0113810   -0.1334484  
C   -3.4864975    1.6298262   -0.7927588  
C   -3.9518793    0.7119509   -1.8210703  
C   -5.4173875    0.6533628   -1.6328199  
N   -5.8061459    1.4130851   -0.6450558  
C   -6.2597398   -0.1589839   -2.4668592  
C   -5.6651263   -0.8797267   -3.4447650  
O   -6.3285769   -1.6802773   -4.2962297  
C   -4.1885397   -0.8414367   -3.6601392  
O   -3.7155084   -1.5233211   -4.5692574  
C   -3.3460097   -0.0004262   -2.7913647  
H   -2.4709784    1.9337813   -0.6045895  
H   -5.6384844   -2.0553379   -4.8726450  
H   -4.6853284    2.6895276    0.7012110  
C    0.0000000    0.0000000    0.0000000  
C    1.0662919   -0.0000103   -0.8334272  
C    0.4961868    0.0000066   -2.1718889  
C   -0.9663860   -0.0000849   -1.9540248  
N   -1.2632775   -0.0000084   -0.6828659  
C   -1.8985364   -0.0000515   -3.0477258  
C   -1.3925778    0.0004567   -4.3020543  
O   -2.1456385    0.0005412   -5.4151314  
C    0.0786229    0.0009326   -4.5544999  
O    0.4683756    0.0012594   -5.7221104  
C    1.0143162    0.0008443   -3.4159034  
H    2.1107195    0.0000631   -0.5721869  
H   -1.5042277    0.0009692   -6.1484420  
H    2.0724151    0.0013151   -3.6409746  
C    3.3003543   -0.0005276    2.9438989  
C    2.5232812   -0.0003497    4.0790748  
C    1.1623199    0.0001319    3.6520102  
C    1.1711883   -0.0000583    2.2336141  
N    2.4852299    0.0014920    1.8362361  
C    0.0000000    0.0000000    1.4700000  
C   -1.2020384   -0.0000520    2.1506477  
O   -2.3759250   -0.0003494    1.4542253  
C   -1.2314658    0.0005113    3.5655508  
O   -2.5054393    0.0008037    4.0950179  
C   -0.0764518    0.0007272    4.3195194  
H    2.8919952    0.0005619    5.0905303  
H    2.8036267   -0.0088181    0.8841339  
H   -3.0835639   -0.0000348    2.1118817  
H   -2.4360050    0.0011527    5.0545920  
H   -0.1304098    0.0013421    5.4019087  
H    4.3715549   -0.0004895    2.8367138  
