62

C    1.6934339   -2.3689416   -7.7807254  
C    1.2606618   -1.0658930   -7.6956373  
C    1.6105599   -0.4299389   -8.9235349  
C    2.2599206   -1.4028316   -9.7258673  
N    2.2952291   -2.5682399   -9.0011639  
C    2.7423812   -1.1256383  -11.0085143  
C    2.5658337    0.1569690  -11.4901022  
O    3.0174686    0.4817038  -12.7365331  
C    1.9207244    1.1415826  -10.7044905  
O    1.8219371    2.3702281  -11.3241807  
C    1.4447551    0.8689043   -9.4389370  
H    2.6868753   -3.4368185   -9.3176550  
H    3.2383041   -1.8626680  -11.6249974  
H    2.7959887    1.4120136  -12.8734076  
H    1.3743114    2.9770927  -10.7267270  
H    0.9549631    1.6435920   -8.8606292  
H    1.6217248   -3.1715605   -7.0668490  
C    0.8693957   -0.7179708   -5.2245448  
C    0.0139741    0.0003876   -4.4216236  
C   -0.8554509    0.7289888   -5.2864016  
C   -0.4799916    0.4124310   -6.6170959  
N    0.5715136   -0.4670795   -6.5435098  
C   -1.1253130    0.9522976   -7.7337394  
C   -2.1688623    1.8274387   -7.5028483  
O   -2.8338459    2.3833974   -8.5572304  
C   -2.5579902    2.1559321   -6.1824361  
O   -3.6138140    3.0416245   -6.1181834  
C   -1.9216393    1.6239279   -5.0803672  
H   -0.8438659    0.7151677   -8.7504785  
H   -3.5148435    2.9552085   -8.1796864  
H   -3.8133103    3.2103963   -5.1922676  
H   -2.2418655    1.8943540   -4.0809657  
H    1.6693716   -1.3883483   -4.9607419  
C    3.2798085    0.0005853   -1.4499648  
C    2.5571144    0.0005562   -2.5996554  
C    1.1637436    0.0001546   -2.2210360  
C    1.1336965   -0.0000201   -0.7459470  
N    2.4483513   -0.0001430   -0.3402717  
C    0.0000000    0.0000000    0.0000000  
C   -1.2757367   -0.0000188   -0.6964414  
O   -2.3524597   -0.0000640   -0.1142313  
C   -1.2676494   -0.0000875   -2.2584081  
O   -2.3355762   -0.0004102   -2.8557294  
C    0.0181562    0.0001757   -2.9516296  
H    2.9547357    0.0006072   -3.5989105  
H    4.3498550    0.0008609   -1.3200021  
H    2.7563627    0.0012824    0.6148063  
C    2.3971438    2.0127888    3.1728260  
C    1.9431056    1.6308205    1.9564670  
C    0.8496017    0.7127664    2.2356185  
C    0.7794028    0.6545384    3.7115134  
N    1.6840587    1.4146091    4.2663826  
C   -0.1885723   -0.1578550    4.3957118  
C   -1.0476298   -0.8789867    3.6398520  
O   -2.0015663   -1.6796266    4.1448486  
C   -1.0022026   -0.8410666    2.1483229  
O   -1.8147390   -1.5232959    1.5241687  
C    0.0000000    0.0000000    1.4700000  
H    2.3054237    1.9346118    0.9892483  
H   -0.2170646   -0.1815267    5.4753125  
H   -2.4487139   -2.0549881    3.3649027  
H    3.2048689    2.6911772    3.3971983  
