62

C   -6.3769111    2.4149630   -0.7482224  
C   -6.3595653    1.1123801   -1.1903132  
C   -7.5256035    0.4793864   -0.6666021  
C   -8.2221602    1.4535225    0.0935252  
N   -7.4964281    2.6167866    0.0246274  
C   -9.4220189    1.1792296    0.7567702  
C   -9.9280789   -0.1017014    0.6504887  
O  -11.0967253   -0.4235897    1.2779192  
C   -9.2474839   -1.0875175   -0.1030189  
O   -9.8787262   -2.3142166   -0.1122495  
C   -8.0636103   -0.8177008   -0.7573648  
H   -7.7500308    3.4856329    0.4591080  
H   -9.9576974    1.9172196    1.3378214  
H  -11.2671667   -1.3531412    1.0775519  
H   -9.3544620   -2.9220663   -0.6425977  
H   -7.5649261   -1.5932491   -1.3268527  
H   -5.6785437    3.2156447   -0.9218636  
C   -3.9842745    0.7276660   -1.9452914  
C   -5.3215475    0.5113816   -2.0401478  
C   -5.5219108   -0.4154368   -3.1290451  
C   -4.1821416   -0.7236113   -3.6646171  
N   -3.2941076    0.0012878   -2.9038237  
C   -3.9439115   -1.5640342   -4.7031937  
C   -5.0830927   -2.2078593   -5.3358780  
O   -4.9725191   -2.9811841   -6.2782386  
C   -6.5111098   -1.8958617   -4.7852141  
O   -7.4778756   -2.4317610   -5.3100340  
C   -6.6412648   -0.9729317   -3.6604425  
H   -2.9532728   -1.7765304   -5.0805396  
H   -7.6334407   -0.7623650   -3.2849791  
H   -3.4449077    1.3567548   -1.2559294  
C    0.0000000    0.0000000    0.0000000  
C    1.0541688   -0.0001723   -0.8560392  
C    0.5103136   -0.0000455   -2.1935956  
C   -0.9576373    0.0002461   -2.0455730  
N   -1.2018460   -0.0001389   -0.6915968  
C   -1.8348314    0.0008319   -3.0810607  
C   -1.2972851    0.0009739   -4.4314603  
O   -2.0050676    0.0014268   -5.4301316  
C    0.2542619    0.0004184   -4.6117572  
O    0.7184666    0.0002257   -5.7439122  
C    1.0974551    0.0000873   -3.4189129  
H    2.0940752   -0.0005484   -0.5817983  
H    2.1707276   -0.0000912   -3.5523673  
H   -2.1128194    0.0014915   -0.2706789  
C    3.3003543   -0.0005276    2.9438989  
C    2.5232812   -0.0003497    4.0790748  
C    1.1623199    0.0001319    3.6520102  
C    1.1711883   -0.0000583    2.2336141  
N    2.4852299    0.0014920    1.8362361  
C    0.0000000    0.0000000    1.4700000  
C   -1.2020384   -0.0000520    2.1506477  
O   -2.3759250   -0.0003494    1.4542253  
C   -1.2314658    0.0005113    3.5655508  
O   -2.5054393    0.0008037    4.0950179  
C   -0.0764518    0.0007272    4.3195194  
H    2.8919952    0.0005619    5.0905303  
H    2.8036267   -0.0088181    0.8841339  
H   -3.0835639   -0.0000348    2.1118817  
H   -2.4360050    0.0011527    5.0545920  
H   -0.1304098    0.0013421    5.4019087  
H    4.3715549   -0.0004895    2.8367138  
