62

C   -0.6971192   -0.6970645   -9.4495478  
C   -1.0515834    0.5558366   -9.0056318  
C   -1.0116871    1.4248085  -10.1360717  
C   -0.6234455    0.6392110  -11.2514334  
N   -0.4385794   -0.6437390  -10.7992372  
C   -0.4811241    1.1695739  -12.5372211  
C   -0.7356567    2.5174862  -12.7000813  
O   -0.6122068    3.0868361  -13.9344288  
C   -1.1237538    3.3179085  -11.5993904  
O   -1.3406980    4.6412407  -11.9235365  
C   -1.2640930    2.7954201  -10.3305965  
H   -0.1699870   -1.4264290  -11.3677753  
H   -0.1853979    0.5761930  -13.3914159  
H   -0.8319948    4.0214323  -13.8272483  
H   -1.5988517    5.1116096  -11.1249674  
H   -1.5625949    3.4332656   -9.5068689  
H   -0.6068750   -1.6242208   -8.9099225  
C    0.6496545   -0.7066349   -5.1591666  
C   -0.1496415   -0.0015615   -4.3176961  
C   -1.0762654    0.7401246   -5.1399526  
C   -0.7489650    0.4069439   -6.5394722  
N    0.3061891   -0.4741191   -6.4823099  
C   -1.3994872    0.9058709   -7.6209515  
C   -2.4949747    1.8330539   -7.3912239  
O   -3.1426431    2.3370191   -8.2994341  
C   -2.8587000    2.2002134   -5.9172149  
O   -3.7789323    2.9800102   -5.7114236  
C   -2.0849149    1.5977389   -4.8345636  
H   -2.3432251    1.8569888   -3.8168265  
H    1.4608540   -1.3763737   -4.9240181  
H    0.7560120   -0.8864478   -7.2789846  
C    3.3003543    0.0005276   -1.4738987  
C    2.5232814    0.0003497   -2.6090747  
C    1.1623200   -0.0001320   -2.1820103  
C    1.1711883    0.0000582   -0.7636140  
N    2.4852300   -0.0014919   -0.3662360  
C    0.0000000    0.0000000    0.0000000  
C   -1.2020384    0.0000519   -0.6806477  
O   -2.3759249    0.0003493    0.0157743  
C   -1.2314656   -0.0005115   -2.0955510  
O   -2.5054392   -0.0008039   -2.6250180  
C   -0.0764516   -0.0007274   -2.8495195  
H    2.8919955   -0.0005620   -3.6205304  
H    2.8036267    0.0088183    0.5858662  
H   -3.0835638    0.0000347   -0.6418818  
H   -2.4360047   -0.0011529   -3.5845921  
H    4.3715549    0.0004895   -1.3667136  
C    0.8175213    0.6860729    2.3021913  
C    0.0000000    0.0000000    1.4700000  
C   -0.8887526   -0.7456559    2.3478473  
C   -0.4549825   -0.3816753    3.7138435  
N    0.5448156    0.4573574    3.6934124  
C   -1.0945674   -0.9182058    4.8835240  
C   -2.1210866   -1.7789155    4.6970523  
O   -2.8083856   -2.3554314    5.6976972  
C   -2.5824069   -2.1655116    3.3310774  
O   -3.5227682   -2.9541547    3.2362962  
C   -1.9100805   -1.6015804    2.1470656  
H   -0.7567140   -0.6349833    5.8697035  
H   -3.4728268   -2.9124471    5.2533954  
H   -2.2742832   -1.9066565    1.1752040  
H    1.6189533    1.3585343    2.0405121  
