60

C    2.8862276   -3.3831649   -8.6711696  
C    3.2597610   -3.3730986   -9.9951188  
C    3.0815368   -2.0391837  -10.4678851  
C    2.5931426   -1.2732716   -9.3784929  
N    2.4843054   -2.1203324   -8.3036623  
C    2.3036108    0.0906001   -9.4824866  
C    2.5111741    0.6923150  -10.7084708  
O    2.2450694    2.0218268  -10.8653103  
C    2.9975522   -0.0551395  -11.8073633  
O    3.1510784    0.6871038  -12.9601193  
C    3.2831392   -1.4007262  -11.7055659  
H    3.6157399   -4.2229133  -10.5519727  
H    1.9310015    0.6799221   -8.6560098  
H    2.4554845    2.2359337  -11.7835423  
H    3.4829768    0.1078602  -13.6528849  
H    3.6543346   -1.9471173  -12.5647208  
H    2.8733473   -4.1915507   -7.9603218  
C    2.5185218   -2.1418784   -5.7664424  
C    2.0285782   -1.7344766   -6.9604095  
C    0.9435061   -0.8236411   -6.6295061  
C    0.9168305   -0.7971604   -5.1512734  
N    1.8378571   -1.5679055   -4.6397540  
C   -0.0307352   -0.0004646   -4.4215603  
C   -0.9113601    0.7365843   -5.1361187  
O   -1.8501209    1.5254492   -4.5861545  
C   -0.9094202    0.7313056   -6.6288105  
O   -1.7398706    1.4264149   -7.2139564  
C    0.0724713   -0.0942327   -7.3542759  
H   -2.3197102    1.9176027   -5.3443459  
H    0.0410970   -0.0704047   -8.4353302  
H    3.3327630   -2.8241129   -5.5805892  
C    3.2573670   -0.0002920   -1.5109380  
C    2.5379468   -0.0001709   -0.3591961  
C    1.1435043    0.0000332   -0.7338500  
C    1.1092609   -0.0000082   -2.2088477  
N    2.4227562    0.0001909   -2.6182613  
C   -0.0265532   -0.0002522   -2.9515663  
C   -1.3003035   -0.0002639   -2.2514981  
O   -2.3786784   -0.0004131   -2.8306429  
C   -1.2877725    0.0000312   -0.6895608  
O   -2.3539958    0.0003307   -0.0892036  
C    0.0000000    0.0000000    0.0000000  
H    2.9384091   -0.0000369    0.6389239  
H    4.3270394   -0.0004765   -1.6439446  
H    2.7280494   -0.0013406   -3.5742113  
C    0.8175213    0.6860729    2.3021913  
C    0.0000000    0.0000000    1.4700000  
C   -0.8887526   -0.7456559    2.3478473  
C   -0.4549825   -0.3816753    3.7138435  
N    0.5448156    0.4573574    3.6934124  
C   -1.0945674   -0.9182058    4.8835240  
C   -2.1210866   -1.7789155    4.6970523  
O   -2.8083856   -2.3554314    5.6976972  
C   -2.5824069   -2.1655116    3.3310774  
O   -3.5227682   -2.9541547    3.2362962  
C   -1.9100805   -1.6015804    2.1470656  
H   -0.7567140   -0.6349833    5.8697035  
H   -3.4728268   -2.9124471    5.2533954  
H   -2.2742832   -1.9066565    1.1752040  
H    1.6189533    1.3585343    2.0405121  
