62

C   -4.3568013    2.1196432   -0.0439428  
C   -5.5783088    1.6201330   -0.4323710  
C   -5.3394751    0.7460400   -1.5339700  
C   -3.9416102    0.7519549   -1.7745203  
N   -3.3751252    1.5976639   -0.8533857  
C   -3.3460098   -0.0004261   -2.7913644  
C   -4.1766441   -0.7730844   -3.5795417  
O   -3.6475263   -1.5274888   -4.5864783  
C   -5.5738556   -0.7919239   -3.3553479  
O   -6.2652643   -1.6105060   -4.2243818  
C   -6.1621474   -0.0497243   -2.3525626  
H   -6.5251584    1.8575141    0.0216323  
H   -2.3939630    1.7946128   -0.7726811  
H   -4.3895800   -1.9821531   -5.0058840  
H   -7.2009062   -1.5658640   -4.0048706  
H   -7.2352194   -0.0842032   -2.2048984  
H   -4.1083016    2.8080659    0.7455375  
C    0.0000000    0.0000000    0.0000000  
C    1.0662918   -0.0000103   -0.8334272  
C    0.4961866    0.0000066   -2.1718888  
C   -0.9663862   -0.0000848   -1.9540246  
N   -1.2632777   -0.0000084   -0.6828658  
C   -1.8985367   -0.0000514   -3.0477256  
C   -1.3925783    0.0004569   -4.3020543  
O   -2.1456389    0.0005417   -5.4151310  
C    0.0786225    0.0009329   -4.5544999  
O    0.4683752    0.0012595   -5.7221105  
C    1.0143159    0.0008446   -3.4159033  
H    2.1107193    0.0000632   -0.5721869  
H   -1.5042282    0.0009699   -6.1484418  
C    2.4521470    0.0014842   -3.7217487  
C    3.4891862    0.0014500   -2.8521921  
C    4.6797426    0.0022557   -3.6882989  
C    4.1623460    0.0025999   -5.0735370  
N    2.8572342    0.0022310   -5.0994564  
C    5.0381712    0.0034470   -6.2128418  
C    6.3703193    0.0043175   -5.9789284  
O    7.3023583    0.0051594   -6.9470943  
C    6.9233359    0.0043698   -4.5924458  
O    8.1464856    0.0050630   -4.4541529  
C    6.0043346    0.0034470   -3.4403348  
H    3.4509648    0.0010311   -1.7762669  
H    4.6325983    0.0034755   -7.2140512  
H    8.1530722    0.0056742   -6.4722908  
H    6.4446261    0.0036318   -2.4522189  
C    1.1188642   -0.0008217    2.2703808  
C    0.0000000    0.0000000    1.4700000  
C   -1.1323862   -0.0008904    2.3373528  
C   -0.6382662   -0.0019682    3.6669281  
N    0.7324016   -0.0038477    3.5902241  
C   -1.4770914   -0.0027325    4.7854808  
C   -2.8395474   -0.0020958    4.5576857  
O   -3.7039201   -0.0024443    5.6140350  
C   -3.3517868   -0.0013946    3.2384331  
O   -4.7300496   -0.0012389    3.1773122  
C   -2.5248543   -0.0009135    2.1344818  
H    1.3576314    0.0056174    4.3757045  
H   -1.1067570   -0.0036993    5.8013813  
H   -4.5940033   -0.0021850    5.2385129  
H   -4.9934601   -0.0007286    2.2519915  
H   -2.9462578   -0.0005617    1.1360343  
H    2.1619896   -0.0009344    2.0042067  
