60

C   -0.6742160    0.1888313   -8.7793463  
C    0.0749128   -0.4689725   -9.7272738  
C   -0.4326719   -0.0802815  -11.0023732  
C   -1.4998893    0.8240374  -10.7674676  
N   -1.6211026    0.9638036   -9.4071783  
C   -2.2348686    1.4115120  -11.8016183  
C   -1.8859483    1.0802787  -13.0965005  
O   -2.5704478    1.6253886  -14.1440350  
C   -0.8244051    0.1796642  -13.3511298  
O   -0.5994054   -0.0492172  -14.6928947  
C   -0.0990737   -0.4004810  -12.3313989  
H    0.8865749   -1.1465638   -9.5246224  
H   -2.2883279    1.5518553   -8.9413598  
H   -3.0494639    2.1013765  -11.6292120  
H   -2.1716802    1.2661880  -14.9472934  
H    0.1327316   -0.6676386  -14.7773583  
H    0.7085926   -1.0868906  -12.5572199  
C    2.0407257   -2.0139649   -6.1785238  
C    1.6287192   -1.6317253   -4.9473771  
C    0.5264170   -0.7135551   -5.1890257  
C    0.4056583   -0.6555639   -6.6616555  
N    1.2906467   -1.4158622   -7.2470885  
C   -0.5850930    0.1568590   -7.3123990  
C   -1.4176233    0.8782450   -6.5276508  
O   -2.3882009    1.6789423   -6.9997770  
C   -1.3210824    0.8405679   -5.0385497  
O   -2.1116406    1.5230226   -4.3870179  
C   -0.2963293   -0.0005341   -4.3948471  
H    2.0239472   -1.9354084   -3.9930991  
H   -2.8082867    2.0545009   -6.2050211  
H    2.8401844   -2.6925107   -6.4303447  
C    3.1301146   -0.0010313   -1.7028256  
C    2.5367765   -0.0002766   -0.4864669  
C    1.1089901    0.0001027   -0.7656184  
C    1.0177865   -0.0004150   -2.2415133  
N    2.1993571   -0.0011612   -2.7963824  
C   -0.2459219   -0.0002879   -2.9257116  
C   -1.3675326   -0.0000606   -2.1698520  
O   -2.6129318    0.0000865   -2.6748483  
C   -1.3083588    0.0000910   -0.6783229  
O   -2.3693264    0.0004206   -0.0541685  
C    0.0000000    0.0000000    0.0000000  
H    3.0096016   -0.0001007    0.4807518  
H   -3.1967444    0.0002093   -1.8949026  
H    4.1849275   -0.0015114   -1.9271979  
C    2.3971438    2.0127888    3.1728260  
C    1.9431056    1.6308205    1.9564670  
C    0.8496017    0.7127664    2.2356185  
C    0.7794028    0.6545384    3.7115134  
N    1.6840587    1.4146091    4.2663826  
C   -0.1885723   -0.1578550    4.3957118  
C   -1.0476298   -0.8789867    3.6398520  
O   -2.0015663   -1.6796266    4.1448486  
C   -1.0022026   -0.8410666    2.1483229  
O   -1.8147390   -1.5232959    1.5241687  
C    0.0000000    0.0000000    1.4700000  
H    2.3054237    1.9346118    0.9892483  
H   -0.2170646   -0.1815267    5.4753125  
H   -2.4487139   -2.0549881    3.3649027  
H    3.2048689    2.6911772    3.3971983  
