64

C    9.8694545    0.7157395   -0.7569282  
C    9.2840101   -0.0022190    0.2600569  
C   10.3249670   -0.7310734    0.9079602  
C   11.5340993   -0.4150755    0.2370867  
N   11.2214880    0.4643599   -0.7696331  
C   12.7688409   -0.9553169    0.6090328  
C   12.7832757   -1.8302640    1.6778814  
O   13.9619231   -2.3865704    2.0832559  
C   11.5872849   -2.1581994    2.3597010  
O   11.7667255   -3.0437624    3.4022574  
C   10.3687865   -1.6258263    1.9931435  
H   11.8795029    0.8729824   -1.4084016  
H   13.6939410   -0.7186139    0.1017251  
H   13.7505299   -2.9581655    2.8328266  
H   10.9112408   -3.2121509    3.8089455  
H    9.4694465   -1.8958278    2.5342218  
H    9.4293492    1.3861409   -1.4751405  
C    5.6685262    0.0007277   -2.2869310  
C    4.7390840    0.0009613   -1.2727298  
C    5.4635794   -0.0000956   -0.0440289  
C    6.8430309   -0.0006642   -0.3742391  
N    6.9321467   -0.0020935   -1.7441565  
C    7.8522877   -0.0014302    0.5933291  
C    7.4618845   -0.0013188    1.9183810  
O    8.4063109   -0.0016935    2.9038108  
C    6.0904957   -0.0011304    2.2678231  
O    5.8636451   -0.0014626    3.6286619  
C    5.0942998   -0.0006479    1.3138209  
H    7.7872775    0.0077866   -2.2701178  
H    7.9262124   -0.0018351    3.7421244  
H    4.9133155   -0.0012788    3.7785862  
H    4.0523279   -0.0006957    1.6117685  
H    5.5300625    0.0009044   -3.3545388  
C    3.2798077    0.0005856   -1.4499661  
C    2.5571132    0.0005565   -2.5996564  
C    1.1637425    0.0001547   -2.2210366  
C    1.1336959   -0.0000200   -0.7459475  
N    2.4483509   -0.0001429   -0.3402730  
C    0.0000000    0.0000000    0.0000000  
C   -1.2757370   -0.0000187   -0.6964411  
O   -2.3524597   -0.0000640   -0.1142306  
C   -1.2676502   -0.0000874   -2.2584078  
O   -2.3355774   -0.0004102   -2.8557287  
C    0.0181551    0.0001758   -2.9516297  
H    2.9547342    0.0006074   -3.5989118  
H    0.0150776    0.0003317   -4.0331632  
H    2.7563626    0.0012823    0.6148051  
C    2.5285572    2.1210227    2.9438989  
C    1.9331703    1.6216660    4.0790748  
C    0.8903039    0.7472258    3.6520102  
C    0.8972198    0.7527806    2.2336141  
N    1.9028376    1.5986179    1.8362361  
C    0.0000000    0.0000000    1.4700000  
C   -0.9207814   -0.7726952    2.1506477  
O   -1.8198395   -1.5274828    1.4542253  
C   -0.9436862   -0.7911793    3.5655508  
O   -1.9197945   -1.6098497    4.0950179  
C   -0.0590329   -0.0485852    4.3195194  
H    2.2150357    1.8593692    5.0905303  
H    2.1533708    1.7953814    0.8841339  
H   -2.3621246   -1.9821033    2.1118817  
H   -1.8668290   -1.5649508    5.0545920  
H   -0.1007624   -0.0827977    5.4019087  
H    3.3491200    2.8096064    2.8367138  
