62

C    0.7834015    0.0740363   -7.5325246  
C   -0.4972766    0.0706809   -7.0302103  
C   -1.3830490    0.0814742   -8.1481956  
C   -0.5786597    0.0909259   -9.3164403  
N    0.7315893    0.0880516   -8.9067398  
C   -1.1183363    0.1025642  -10.6061700  
C   -2.4951186    0.1043930  -10.7186147  
O   -3.0747853    0.1152312  -11.9542867  
C   -3.3145499    0.0954498   -9.5648082  
O   -4.6658819    0.0990467   -9.8427212  
C   -2.7828329    0.0842396   -8.2921431  
H   -0.7606610    0.0626792   -5.9863916  
H    1.5299777    0.0825165   -9.5154495  
H   -0.5107127    0.1099513  -11.5005644  
H   -4.0296915    0.1148975  -11.8079353  
H   -5.1476702    0.0924629   -9.0099902  
H   -3.4357034    0.0777530   -7.4271597  
C    1.6628972    0.0337774   -3.2649299  
C    3.0162021    0.0329605   -3.2529405  
C    3.4037229    0.0459985   -4.6551379  
C    2.1237301    0.0535432   -5.3955064  
N    1.0997899    0.0465115   -4.5858855  
C    2.0755556    0.0671413   -6.8316755  
C    3.2525880    0.0733277   -7.4979273  
O    3.3565991    0.0859905   -8.8377259  
C    4.5608680    0.0663574   -6.7792371  
O    5.5929747    0.0724790   -7.4500122  
C    4.5838545    0.0523654   -5.3057378  
H    3.6706628    0.0246396   -2.3981381  
H    4.3151288    0.0875705   -9.0119995  
H    5.5518769    0.0477876   -4.8228903  
C    1.1243417    0.0099160   -0.7919004  
C    0.7474091    0.0234036   -2.1148543  
C   -0.6787366    0.0234950   -2.1414699  
C   -1.1201739    0.0099353   -0.7935547  
N    0.0000000    0.0000000    0.0000000  
C   -2.4730814    0.0065387   -0.4408241  
C   -3.3971947    0.0173286   -1.4675058  
O   -4.7313509    0.0149470   -1.1793468  
C   -2.9763629    0.0305525   -2.8186324  
O   -4.0166449    0.0397843   -3.7247623  
C   -1.6418539    0.0336374   -3.1673480  
H   -2.8160170   -0.0039200    0.5845965  
H   -5.1938800    0.0234391   -2.0274383  
H   -3.6464639    0.0484767   -4.6127342  
H   -1.3497441    0.0436783   -4.2109235  
H    2.1062470    0.0051389   -0.3505406  
C    2.5528530    2.1414826    2.8079335  
C    2.0663498    1.7338582    4.0032312  
C    0.9804344    0.8229586    3.6752840  
C    0.9495562    0.7966882    2.1971295  
N    1.8690446    1.5676019    1.6831036  
C    0.0000000    0.0000000    1.4700000  
C   -0.8785127   -0.7372425    2.1869543  
O   -1.8187535   -1.5261249    1.6395491  
C   -0.8723269   -0.7321790    3.6796354  
O   -1.7010379   -1.4274584    4.2670412  
C    0.1115397    0.0933559    4.4024240  
H    2.4028853    2.0163452    4.9860947  
H   -2.2861435   -1.9184361    2.3990168  
H    0.0832434    0.0693689    5.4835595  
H    3.3664920    2.8238276    2.6198634  
