60

C    6.7688485   -2.1173129   -2.0583825  
C    7.3511581   -2.9679079   -1.1474103  
C    8.7498656   -2.9828455   -1.4266873  
C    8.9637172   -2.1147176   -2.5278446  
N    7.7399841   -1.6073577   -2.8879546  
C   10.2295722   -1.8854090   -3.0754007  
C   11.2990677   -2.5442417   -2.5006855  
O   12.5570692   -2.3562391   -2.9957606  
C   11.1058311   -3.4146814   -1.4016809  
O   12.2693892   -3.9960092   -0.9417517  
C    9.8572807   -3.6415825   -0.8611600  
H    6.8315610   -3.5116795   -0.3771344  
H    7.5791488   -0.9536112   -3.6327555  
H   10.3991966   -1.2250818   -3.9146847  
H   13.1463251   -2.9012780   -2.4581961  
H   12.0508686   -4.5682216   -0.1998447  
H    9.7402047   -4.3139653   -0.0193335  
C    4.2926938   -2.1403418   -1.5040809  
C    5.3604705   -1.7320209   -2.2284474  
C    4.8134481   -0.8208707   -3.2219619  
C    3.3612071   -0.7952320   -2.9446110  
N    3.0500067   -1.5667026   -1.9386404  
C    2.4521483    0.0014840   -3.7217481  
C    2.9703733    0.7393567   -4.7298754  
O    2.2390468    1.5283419   -5.5352978  
C    4.4316781    0.7349404   -5.0343912  
O    4.8335664    1.4307754   -5.9668718  
C    5.3436397   -0.0906368   -4.2228043  
H    2.8845127    1.9211529   -6.1502980  
H    6.3952202   -0.0661691   -4.4754093  
H    4.2782621   -2.8230632   -0.6694219  
C    0.0000000    0.0000000    0.0000000  
C    1.0662923   -0.0000101   -0.8334270  
C    0.4961873    0.0000065   -2.1718887  
C   -0.9663854   -0.0000848   -1.9540250  
N   -1.2632773   -0.0000083   -0.6828660  
C   -1.8985359   -0.0000514   -3.0477261  
C   -1.3925770    0.0004566   -4.3020547  
O   -2.1456378    0.0005414   -5.4151314  
C    0.0786240    0.0009326   -4.5545000  
O    0.4683767    0.0012591   -5.7221100  
C    1.0143171    0.0008444   -3.4159031  
H    2.1107200    0.0000633   -0.5721865  
H   -2.9622181   -0.0003268   -2.8593381  
H   -1.5042265    0.0009697   -6.1484419  
C    3.2798086   -0.0005857    2.9199648  
C    2.5571146   -0.0005566    4.0696553  
C    1.1637436   -0.0001548    3.6910360  
C    1.1336965    0.0000200    2.2159470  
N    2.4483514    0.0001428    1.8102719  
C    0.0000000    0.0000000    1.4700000  
C   -1.2757367    0.0000186    2.1664417  
O   -2.3524596    0.0000640    1.5842315  
C   -1.2676493    0.0000873    3.7284083  
O   -2.3355761    0.0004100    4.3257297  
C    0.0181563   -0.0001760    4.4216297  
H    2.9547357   -0.0006076    5.0689105  
H    0.0150794   -0.0003319    5.5031631  
H    4.3498549   -0.0008612    2.7900019  
H    2.7563627   -0.0012824    0.8551938  
