60

C    4.7720940   -4.2791947    1.0673293  
C    4.3953256   -3.4730221    0.0182350  
C    5.4062272   -3.5906598   -0.9811843  
C    6.3826295   -4.4901538   -0.4817108  
N    5.9676906   -4.8878730    0.7649904  
C    7.5263915   -4.8425349   -1.2045009  
C    7.6872615   -4.2768059   -2.4544007  
O    8.7857856   -4.5865999   -3.2029229  
C    6.7242646   -3.3769347   -2.9698483  
O    7.0276882   -2.8986345   -4.2278257  
C    5.5958116   -3.0286412   -2.2572396  
H    3.5023400   -2.8730187   -0.0213297  
H    6.4538563   -5.5344622    1.3595859  
H    8.2743647   -5.5273848   -0.8293754  
H    8.7029124   -4.0905434   -4.0277413  
H    6.3275969   -2.2983907   -4.5020222  
H    4.2832926   -4.4670671    2.0079335  
C    4.6190968   -2.0899184   -2.8279655  
C    3.4606682   -1.6280054   -2.2906065  
C    2.8761398   -0.7301691   -3.2586208  
C    3.7955627   -0.7067279   -4.4122682  
N    4.8319959   -1.5514027   -4.0878919  
C    3.5979907    0.0246981   -5.5381832  
C    2.3999524    0.8436574   -5.6190798  
O    2.1321338    1.5380351   -6.5908892  
C    1.4124494    0.8342976   -4.4088910  
O    0.4006151    1.5200499   -4.4654206  
C    1.7334695    0.0049281   -3.2500363  
H    3.0613138   -1.8865706   -1.3260995  
H    4.2848589    0.0276115   -6.3731168  
H    5.6204858   -1.7480977   -4.6766556  
C    1.1319246    0.0015678   -0.8009268  
C    0.7969914    0.0034958   -2.1169401  
C   -0.6453340    0.0035696   -2.1842669  
C   -1.1266832    0.0015410   -0.7896025  
N    0.0000000    0.0000000    0.0000000  
C   -2.4346129    0.0013913   -0.4276292  
C   -3.4350111    0.0031335   -1.4820181  
O   -4.6384614    0.0030875   -1.2583914  
C   -2.9478961    0.0050442   -2.9661074  
O   -3.7809382    0.0062135   -3.8623773  
C   -1.5113825    0.0053055   -3.2312122  
H   -2.7664565    0.0000174    0.6013448  
H   -1.1823533    0.0068381   -4.2614848  
H    2.1104316    0.0009435   -0.3488059  
C    2.5128556    2.1077716    2.9199648  
C    1.9592212    1.6432552    4.0696553  
C    0.8915788    0.7479214    3.6910360  
C    0.8684491    0.7287414    2.2159470  
N    1.8754542    1.5738793    1.8102719  
C    0.0000000    0.0000000    1.4700000  
C   -0.9772830   -0.8200135    2.1664417  
O   -1.8021297   -1.5120829    1.5842315  
C   -0.9711318   -0.8147624    3.7284083  
O   -1.7894187   -1.5009653    4.3257297  
C    0.0140216    0.0115358    4.4216297  
H    2.2638494    1.8988021    5.0689105  
H    0.0117648    0.0094386    5.5031631  
H    3.3327358    2.7953732    2.7900019  
H    2.1123206    1.7707734    0.8551938  
