64

C    3.5416476   -3.6583379   -5.4079674  
C    4.2853357   -4.4695034   -4.5824950  
C    3.7478983   -4.3311594   -3.2684851  
C    2.6685504   -3.4149071   -3.3546055  
N    2.5718380   -3.0243255   -4.6671261  
C    1.9040591   -3.0404623   -2.2454920  
C    2.2350021   -3.6014156   -1.0273024  
O    1.5210565   -3.2708817    0.0880637  
C    3.3087148   -4.5172102   -0.9211059  
O    3.5134712   -4.9876003    0.3595781  
C    4.0635064   -4.8868580   -2.0148045  
H    5.1140298   -5.0843568   -4.8894404  
H    1.0802682   -2.3425432   -2.3044765  
H    1.9118655   -3.7667069    0.8192900  
H    4.2555823   -5.5996662    0.3437615  
H    4.8800964   -5.5904754   -1.9026342  
H    3.6271738   -3.4807697   -6.4663216  
C    1.5730417   -2.0888198   -5.2039079  
C    1.4267857   -1.6687779   -6.4820917  
C    0.2928026   -0.7579746   -6.4501588  
C   -0.1353499   -0.7453431   -5.0348464  
N    0.6114414   -1.5235251   -4.2995067  
C   -1.2456329    0.0471727   -4.5828766  
C   -1.8982730    0.7934563   -5.5029073  
O   -2.9511439    1.5798097   -5.2215673  
C   -1.4899805    0.8022335   -6.9386583  
O   -2.1295866    1.5052158   -7.7209243  
C   -0.3478313   -0.0192623   -7.3774796  
H    2.0157441   -1.9430541   -7.3405653  
H   -3.1964702    1.9804406   -6.0750677  
H   -0.0836678    0.0148381   -8.4259472  
C    1.1243410    0.0099923   -0.7919003  
C    0.7474076    0.0234544   -2.1148543  
C   -0.6787381    0.0234490   -2.1414700  
C   -1.1201745    0.0098592   -0.7935546  
N    0.0000000    0.0000000    0.0000000  
C   -2.4730816    0.0063709   -0.4408240  
C   -3.3971958    0.0170982   -1.4675058  
O   -4.7313517    0.0146259   -1.1793471  
C   -2.9763648    0.0303504   -2.8186324  
O   -4.0166480    0.0395118   -3.7247624  
C   -1.6418562    0.0335260   -3.1673481  
H    1.4178717    0.0310972   -2.9571209  
H   -2.8160166   -0.0041111    0.5845966  
H   -5.1938818    0.0230867   -2.0274384  
H   -3.6464675    0.0482293   -4.6127343  
H    2.1062467    0.0052819   -0.3505407  
C    2.5285572    2.1210227    2.9438989  
C    1.9331703    1.6216660    4.0790748  
C    0.8903039    0.7472258    3.6520102  
C    0.8972198    0.7527806    2.2336141  
N    1.9028376    1.5986179    1.8362361  
C    0.0000000    0.0000000    1.4700000  
C   -0.9207814   -0.7726952    2.1506477  
O   -1.8198395   -1.5274828    1.4542253  
C   -0.9436862   -0.7911793    3.5655508  
O   -1.9197945   -1.6098497    4.0950179  
C   -0.0590329   -0.0485852    4.3195194  
H    2.2150357    1.8593692    5.0905303  
H    2.1533708    1.7953814    0.8841339  
H   -2.3621246   -1.9821033    2.1118817  
H   -1.8668290   -1.5649508    5.0545920  
H   -0.1007624   -0.0827977    5.4019087  
H    3.3491200    2.8096064    2.8367138  
