62

C   -8.3347225    2.9908822   -2.2278436  
C   -7.5399462    2.0050547   -2.7653781  
C   -8.3019490    0.7994033   -2.7464565  
C   -9.5645441    1.1138457   -2.1817394  
N   -9.5502542    2.4521634   -1.8762569  
C  -10.5736840    0.1618242   -2.0083058  
C  -10.3034258   -1.1311153   -2.4125898  
O  -11.2535227   -2.1001279   -2.2664930  
C   -9.0495733   -1.4644856   -2.9778640  
O   -8.9341781   -2.7934774   -3.3297276  
C   -8.0534696   -0.5258634   -3.1490114  
H   -6.5342457    2.1382590   -3.1256751  
H  -10.3138554    2.9632900   -1.4717281  
H  -11.5380503    0.3950584   -1.5784205  
H  -10.8651273   -2.9167784   -2.6063381  
H   -8.0587948   -2.9343252   -3.7031832  
H   -8.1301926    4.0353763   -2.0661065  
C   -4.0038810    0.6892344   -2.0945597  
C   -3.2578655    0.0024282   -2.9908505  
C   -4.2205387   -0.7423515   -3.7877591  
C   -5.5362170   -0.3771143   -3.2201536  
N   -5.4155555    0.4618406   -2.2273872  
C   -6.7642688   -0.9125093   -3.7400838  
C   -6.6817368   -1.7733335   -4.7800375  
O   -7.7463803   -2.3488702   -5.3642737  
C   -5.3688438   -2.1611851   -5.3750536  
O   -5.3689003   -2.9498618   -6.3201509  
C   -4.1232465   -1.5984046   -4.8239722  
H   -7.3709642   -2.9062640   -6.0696295  
H   -3.1927619   -1.9043717   -5.2831166  
H   -3.6630768    1.3614030   -1.3231875  
C    0.0000000    0.0000000    0.0000000  
C    1.0521666   -0.0011982   -0.8862343  
C    0.4917215   -0.0011996   -2.1979132  
C   -0.9187429    0.0003215   -2.0478682  
N   -1.1833171   -0.0009323   -0.7007913  
C   -1.7951703    0.0010483   -3.1372089  
C   -1.2375841    0.0005313   -4.4010422  
O   -2.0474218    0.0015510   -5.4997578  
C    0.1673576   -0.0013585   -4.5711963  
O    0.5673520   -0.0020735   -5.8915554  
C    1.0325768   -0.0023493   -3.4969892  
H    2.0953056   -0.0030808   -0.6200564  
H   -2.0989778    0.0102529   -0.2891822  
H   -1.4634888    0.0006601   -6.2693595  
H    1.5290707   -0.0033271   -5.9180047  
H    2.1042146   -0.0039770   -3.6584456  
C    0.0000000    0.0000000    1.4700000  
C    1.0541688    0.0001722    2.3260392  
C    0.5103138    0.0000454    3.6635956  
C   -0.9576371   -0.0002459    3.5155732  
N   -1.2018458    0.0001392    2.1615969  
C   -1.8348311   -0.0008317    4.5510609  
C   -1.2972847   -0.0009736    5.9014604  
O   -2.0050672   -0.0014265    6.9001319  
C    0.2542623   -0.0004184    6.0817573  
O    0.7184670   -0.0002256    7.2139121  
C    1.0974552   -0.0000873    4.8889129  
H    2.0940752    0.0005483    2.0517982  
H   -2.9081052   -0.0011668    4.4207061  
H    2.1707277    0.0000911    5.0223670  
H   -2.1128194   -0.0014912    1.7406791  
