64

C    7.3296619   -3.0901867   -1.8695702  
C    6.7845377   -1.8567542   -2.1415113  
C    7.8703154   -0.9404224   -2.2680933  
C    9.0639484   -1.6783937   -2.0617794  
N    8.6996035   -2.9797812   -1.8204044  
C   10.3329906   -1.0939114   -2.1137363  
C   10.3982724    0.2601568   -2.3790954  
O   11.6120016    0.8814287   -2.4414992  
C    9.2185248    1.0135650   -2.5873913  
O    9.4498360    2.3498905   -2.8405164  
C    7.9662328    0.4376716   -2.5360142  
H    9.3348957   -3.7379673   -1.6485343  
H   11.2465358   -1.6508225   -1.9572514  
H   11.4333224    1.8109788   -2.6345645  
H    8.6021236    2.7862104   -2.9694083  
H    7.0804781    1.0403111   -2.6995422  
H    6.8495825   -4.0396715   -1.7053721  
C    4.3489004   -2.1006737   -1.4732765  
C    3.1285975   -1.6364581   -1.8466929  
C    3.3412599   -0.7405810   -2.9589044  
C    4.7959149   -0.7207996   -3.2046236  
N    5.3494458   -1.5655068   -2.2702987  
C    5.4017638    0.0079522   -4.1760003  
C    4.5653394    0.8276897   -5.0367904  
O    5.0159498    1.5198386   -5.9402172  
C    3.0222818    0.8221878   -4.7944084  
O    2.3079743    1.5086269   -5.5126189  
C    2.4861704   -0.0045255   -3.7159919  
H    2.1869567   -1.8922660   -1.3944885  
H    6.4704903    0.0081992   -4.3395027  
H    4.6014745   -2.7885460   -0.6827525  
C    0.0000000    0.0000000    0.0000000  
C    1.0521669   -0.0011848   -0.8862341  
C    0.4917221   -0.0011931   -2.1979130  
C   -0.9187427    0.0003100   -2.0478683  
N   -1.1833170   -0.0009472   -0.7007915  
C   -1.7951698    0.0010259   -3.1372090  
C   -1.2375835    0.0005161   -4.4010425  
O   -2.0474208    0.0015256   -5.4997580  
C    0.1673584   -0.0013557   -4.5711962  
O    0.5673529   -0.0020659   -5.8915551  
C    1.0325773   -0.0023359   -3.4969890  
H    2.0953059   -0.0030542   -0.6200560  
H   -2.0989777    0.0102265   -0.2891825  
H   -2.8710930    0.0020274   -3.0295514  
H   -1.4634881    0.0006427   -6.2693593  
H    1.5290715   -0.0033076   -5.9180042  
C    1.1243417   -0.0099156    2.2619005  
C    0.7474090   -0.0234034    3.5848544  
C   -0.6787367   -0.0234952    3.6114698  
C   -1.1201739   -0.0099357    2.2635546  
N    0.0000000    0.0000000    1.4700000  
C   -2.4730812   -0.0065396    1.9108239  
C   -3.3971947   -0.0173298    2.9375057  
O   -4.7313508   -0.0149487    2.6493466  
C   -2.9763630   -0.0305536    4.2886322  
O   -4.0166453   -0.0397858    5.1947621  
C   -1.6418541   -0.0336380    4.6373480  
H    1.4178735   -0.0310004    4.4271209  
H   -2.8160170    0.0039190    0.8854031  
H   -5.1938803   -0.0234410    3.4974381  
H   -3.6464643   -0.0484781    6.0827341  
H   -1.3497443   -0.0436789    5.6809233  
H    2.1062470   -0.0051382    1.8205408  
