64

C    5.1069739   -2.3758656   -4.7797319  
C    4.7212077   -1.0726094   -4.9922762  
C    5.7759084   -0.4385446   -5.7135022  
C    6.7870906   -1.4127507   -5.9143996  
N    6.3496998   -2.5770893   -5.3333461  
C    7.9783377   -1.1375529   -6.5926226  
C    8.1518328    0.1443722   -7.0771272  
O    9.2962747    0.4671711   -7.7472524  
C    7.1546208    1.1302737   -6.8863816  
O    7.4761360    2.3580175   -7.4273233  
C    5.9792980    0.8595642   -6.2171591  
H    6.8522403   -3.4462113   -5.3254827  
H    8.7529801   -1.8755913   -6.7489268  
H    9.2144730    1.3973193   -7.9950373  
H    6.7506555    2.9658533   -7.2546454  
H    5.2338144    1.6352029   -6.0863302  
H    4.5946054   -3.1774108   -4.2757849  
C    2.8410615   -0.7209467   -3.3424820  
C    1.6707636   -0.0012343   -3.2725974  
C    1.5557837    0.7262496   -4.4941321  
C    2.6948101    0.4076462   -5.2770986  
N    3.4554129   -0.4719555   -4.5474403  
C    2.9129642    0.9459790   -6.5488673  
C    1.9638377    1.8216615   -7.0392931  
O    2.1270878    2.3761828   -8.2757678  
C    0.8208861    2.1521878   -6.2729832  
O   -0.0311445    3.0381770   -6.8994109  
C    0.6051595    1.6216974   -5.0181651  
H    3.7790869    0.7072873   -7.1505816  
H    1.3626837    2.9486839   -8.4213483  
H   -0.7762634    3.2083604   -6.3150831  
H   -0.2796646    1.8936672   -4.4546071  
H    3.2868720   -1.3910852   -2.6275509  
C    1.0965514    0.0001358   -0.8010306  
C    0.0000000    0.0000000    0.0000000  
C   -1.1546565    0.0001470   -0.8669508  
C   -0.6372019    0.0003520   -2.2486278  
N    0.7342867    0.0007338   -2.1395012  
C   -1.4147744    0.0001354   -3.3608712  
C   -2.8576052   -0.0001047   -3.1854454  
O   -3.6427785   -0.0002490   -4.1244896  
C   -3.4275841   -0.0000727   -1.7311660  
O   -4.6406832    0.0000333   -1.5710049  
C   -2.4891868   -0.0001090   -0.6116739  
H   -1.0150456    0.0001617   -4.3654239  
H   -2.8919122   -0.0002919    0.3920871  
H    2.1388270    0.0000663   -0.5261650  
C    0.8576279    0.7185626    2.2703808  
C    0.0000000    0.0000000    1.4700000  
C   -0.8668858   -0.7285659    2.3373528  
C   -0.4876752   -0.4117774    3.6669281  
N    0.5635254    0.4678311    3.5902241  
C   -1.1297612   -0.9515493    4.7854808  
C   -2.1738724   -1.8268314    4.5576857  
O   -2.8357962   -2.3827064    5.6140350  
C   -2.5667212   -2.1555554    3.2384331  
O   -3.6226318   -3.0413663    3.1773122  
C   -1.9335634   -1.6236449    2.1344818  
H    1.0363952    0.8769718    4.3757045  
H   -0.8454472   -0.7142436    5.8013813  
H   -3.5178062   -2.9546422    5.2385129  
H   -3.8247440   -3.2102924    2.2519915  
H   -2.2566033   -1.8942483    1.1360343  
H    1.6567807    1.3889844    2.0042067  
