64

C    9.0050234    0.0036227   -0.1812398  
C   10.1037473    0.0051511   -1.0090507  
C   11.2572396    0.0064868   -0.1699720  
C   10.7961580    0.0054019    1.1714185  
N    9.4240119    0.0056208    1.1286434  
C   11.6623946    0.0059474    2.2688813  
C   13.0187992    0.0073118    2.0074555  
O   13.9090358    0.0075457    3.0421013  
C   13.4982474    0.0087844    0.6759365  
O   14.8745758    0.0104578    0.5807433  
C   12.6442619    0.0085205   -0.4072230  
H   10.0771171    0.0063918   -2.0852862  
H    8.8184154   -0.0055473    1.9293365  
H   11.3173023    0.0052708    3.2936317  
H   14.7895574    0.0088549    2.6446784  
H   15.1150192    0.0113501   -0.3508090  
H   13.0408387    0.0098571   -1.4157879  
C    6.8064686    0.0000398   -4.0743113  
C    7.7887311    0.0006874   -3.1111768  
C    7.1308655    0.0013413   -1.8455493  
C    5.7357521    0.0007674   -2.1016434  
N    5.5736258    0.0019331   -3.4648494  
C    4.7795901    0.0008674   -1.0815733  
C    5.2401774    0.0012525    0.2207464  
O    4.3497073    0.0010154    1.2551915  
C    6.6282665    0.0022028    0.4964750  
O    6.9274445    0.0029068    1.8432620  
C    7.5721095    0.0023780   -0.5093509  
H    8.8489885    0.0017935   -3.2978477  
H    4.6916431   -0.0087004   -3.9444062  
H    4.8738765    0.0016565    2.0666784  
H    7.8844233    0.0034995    1.9422372  
H    6.8877383   -0.0001771   -5.1477883  
C    3.3321168    0.0004716   -1.3379341  
C    2.6974177    0.0000118   -2.5332316  
C    1.2800432   -0.0002116   -2.2052842  
C    1.2395033    0.0000644   -0.7271298  
N    2.4394059    0.0005460   -0.2131041  
C    0.0000000    0.0000000    0.0000000  
C   -1.1468704    0.0000635   -0.7169542  
O   -2.3742206    0.0000074   -0.1695488  
C   -1.1388774    0.0001608   -2.2096352  
O   -2.2206238    0.0000906   -2.7970409  
C    0.1454514    0.0001818   -2.9324241  
H    3.1367978   -0.0000649   -3.5160956  
H   -2.9844350    0.0001027   -0.9290164  
H    0.1083567    0.0003684   -4.0135594  
C    2.5285572    2.1210227    2.9438989  
C    1.9331703    1.6216660    4.0790748  
C    0.8903039    0.7472258    3.6520102  
C    0.8972198    0.7527806    2.2336141  
N    1.9028376    1.5986179    1.8362361  
C    0.0000000    0.0000000    1.4700000  
C   -0.9207814   -0.7726952    2.1506477  
O   -1.8198395   -1.5274828    1.4542253  
C   -0.9436862   -0.7911793    3.5655508  
O   -1.9197945   -1.6098497    4.0950179  
C   -0.0590329   -0.0485852    4.3195194  
H    2.2150357    1.8593692    5.0905303  
H    2.1533708    1.7953814    0.8841339  
H   -2.3621246   -1.9821033    2.1118817  
H   -1.8668290   -1.5649508    5.0545920  
H   -0.1007624   -0.0827977    5.4019087  
H    3.3491200    2.8096064    2.8367138  
