64

C    0.3640441   -0.5332140   -9.6603706  
C    1.0735673   -0.4246648  -10.8339374  
C    0.9964771    0.9398189  -11.2423991  
C    0.2206397    1.6220210  -10.2704920  
N   -0.1490087    0.6979010   -9.3249882  
C   -0.0618240    2.9889186  -10.3516990  
C    0.4484617    3.6797830  -11.4335929  
O    0.2033150    5.0163732  -11.5618206  
C    1.2244470    3.0166803  -12.4138774  
O    1.6601249    3.8421377  -13.4298241  
C    1.5032745    1.6681674  -12.3345479  
H    1.5830052   -1.2301096  -11.3346627  
H   -0.6526161    3.5147046   -9.6143284  
H    0.6438290    5.2980669  -12.3741394  
H    2.1761296    3.3164448  -14.0486861  
H    2.1003644    1.1875937  -13.1007147  
H    0.1821545   -1.3917027   -9.0367744  
C    0.1164994   -0.7216406   -5.1523579  
C    0.3272679   -0.5036909   -6.4760462  
C   -0.6879586    0.4235561   -6.9169128  
C   -1.5133668    0.7301676   -5.7330712  
N   -0.9736297    0.0040464   -4.6965763  
C   -2.5790078    1.5704696   -5.7354641  
C   -2.9370241    2.2158055   -6.9876225  
O   -3.8800054    2.9891510   -7.0926174  
C   -2.0769088    1.9054770   -8.2539971  
O   -2.3689453    2.4426558   -9.3139097  
C   -0.9518091    0.9825201   -8.1269043  
H    1.1050448   -0.9425518   -7.0752767  
H   -3.1711460    1.7818070   -4.8559078  
H    0.6657025   -1.3515097   -4.4715271  
C    1.1188642    0.0008222   -0.8003808  
C    0.0000000    0.0000000    0.0000000  
C   -1.1323862    0.0008899   -0.8673528  
C   -0.6382663    0.0019679   -2.1969280  
N    0.7324016    0.0038481   -2.1202242  
C   -1.4770914    0.0027318   -3.3154808  
C   -2.8395473    0.0020945   -3.0876857  
O   -3.7039201    0.0024425   -4.1440349  
C   -3.3517868    0.0013931   -1.7684331  
O   -4.7300497    0.0012366   -1.7073121  
C   -2.5248543    0.0009123   -0.6644817  
H    1.3576314   -0.0056167   -2.9057046  
H   -4.5940032    0.0021826   -3.7685128  
H   -4.9934602    0.0007259   -0.7819913  
H   -2.9462577    0.0005603    0.3339659  
H    2.1619895    0.0009355   -0.5342068  
C    2.5285572    2.1210227    2.9438989  
C    1.9331703    1.6216660    4.0790748  
C    0.8903039    0.7472258    3.6520102  
C    0.8972198    0.7527806    2.2336141  
N    1.9028376    1.5986179    1.8362361  
C    0.0000000    0.0000000    1.4700000  
C   -0.9207814   -0.7726952    2.1506477  
O   -1.8198395   -1.5274828    1.4542253  
C   -0.9436862   -0.7911793    3.5655508  
O   -1.9197945   -1.6098497    4.0950179  
C   -0.0590329   -0.0485852    4.3195194  
H    2.2150357    1.8593692    5.0905303  
H    2.1533708    1.7953814    0.8841339  
H   -2.3621246   -1.9821033    2.1118817  
H   -1.8668290   -1.5649508    5.0545920  
H   -0.1007624   -0.0827977    5.4019087  
H    3.3491200    2.8096064    2.8367138  
