62

C    2.8177471   -1.8449277   -7.5276301  
C    3.9199882   -2.6640018   -7.6091747  
C    4.4039762   -2.5786713   -8.9482317  
C    3.5498450   -1.6846817   -9.6433348  
N    2.5964488   -1.2590249   -8.7520052  
C    3.7293472   -1.3616968  -10.9917594  
C    4.7905994   -1.9517068  -11.6504007  
O    5.0120160   -1.6710985  -12.9676886  
C    5.6535987   -2.8465492  -10.9741563  
O    6.6632275   -3.3513551  -11.7673562  
C    5.4769541   -3.1658497   -9.6439798  
H    4.3246842   -3.2516500   -6.8030209  
H    1.8592062   -0.6091101   -8.9571030  
H    3.0818015   -0.6811951  -11.5273009  
H    5.7904543   -2.1804157  -13.2282552  
H    7.1999183   -3.9461796  -11.2346730  
H    6.1541325   -3.8547676   -9.1527574  
C    2.0663728   -2.0930018   -5.1167673  
C    1.0931323   -1.6308353   -4.2901597  
C    0.2706809   -0.7345479   -5.0680273  
C    0.8486733   -0.7122924   -6.4253108  
N    1.9347265   -1.5561044   -6.3884392  
C    0.3570947    0.0175291   -7.4584692  
C   -0.8196660    0.8358893   -7.2175209  
O   -1.3377655    1.5288423   -8.0833674  
C   -1.4481800    0.8277637   -5.7875875  
O   -2.4388902    1.5130257   -5.5727159  
C   -0.8287665    0.0000939   -4.7555305  
H    0.9660022   -1.8882581   -3.2537304  
H    0.7960897    0.0195932   -8.4464912  
H    2.8688294   -2.7804816   -4.9038721  
C    1.0672569   -0.0000698   -0.8321910  
C    0.0000000    0.0000000    0.0000000  
C   -1.1601223   -0.0000736   -0.8778472  
C   -0.5938729   -0.0000768   -2.2438435  
N    0.7113367   -0.0001553   -2.2234123  
C   -1.4286985   -0.0001877   -3.4135239  
C   -2.7683113   -0.0006798   -3.2270524  
O   -3.6653902   -0.0008302   -4.2276970  
C   -3.3702024   -0.0010610   -1.8610774  
O   -4.5974910   -0.0013779   -1.7662963  
C   -2.4926825   -0.0008943   -0.6770658  
H   -4.5324245   -0.0012258   -3.7833954  
H   -2.9677772   -0.0012974    0.2947961  
H    2.1134391   -0.0000547   -0.5705119  
C    0.8576279    0.7185626    2.2703808  
C    0.0000000    0.0000000    1.4700000  
C   -0.8668858   -0.7285659    2.3373528  
C   -0.4876752   -0.4117774    3.6669281  
N    0.5635254    0.4678311    3.5902241  
C   -1.1297612   -0.9515493    4.7854808  
C   -2.1738724   -1.8268314    4.5576857  
O   -2.8357962   -2.3827064    5.6140350  
C   -2.5667212   -2.1555554    3.2384331  
O   -3.6226318   -3.0413663    3.1773122  
C   -1.9335634   -1.6236449    2.1344818  
H    1.0363952    0.8769718    4.3757045  
H   -0.8454472   -0.7142436    5.8013813  
H   -3.5178062   -2.9546422    5.2385129  
H   -3.8247440   -3.2102924    2.2519915  
H   -2.2566033   -1.8942483    1.1360343  
H    1.6567807    1.3889844    2.0042067  
