62

C    6.7983741    0.1789853   -4.5956020  
C    7.8253123   -0.4798831   -3.9601833  
C    9.0340844   -0.0929912   -4.6111716  
C    8.6791773    0.8113779   -5.6446531  
N    7.3141526    0.9529028   -5.6087028  
C    9.6227059    1.3973154   -6.4939001  
C   10.9486959    1.0644643   -6.2960575  
O   11.9112698    1.6080316   -7.0966819  
C   11.3225481    0.1637722   -5.2704821  
O   12.6809914   -0.0668183   -5.2011695  
C   10.3922436   -0.4148567   -4.4324803  
H    7.7164693   -1.1570114   -3.1303378  
H    6.7754539    1.5414054   -6.2181701  
H    9.3586576    2.0872092   -7.2835376  
H   12.7545935    1.2478715   -6.7927821  
H   12.8482902   -0.6851734   -4.4833592  
H   10.7085600   -1.1013675   -3.6558690  
C    4.5241710   -2.0197346   -1.5987491  
C    3.2543047   -1.6359766   -1.8666077  
C    3.3687740   -0.7183910   -2.9897433  
C    4.8178232   -0.6623649   -3.2790556  
N    5.5001626   -1.4232182   -2.4669566  
C    5.3513652    0.1489627   -4.3383795  
C    4.4770152    0.8711786   -5.0754344  
O    4.8354295    1.6710202   -6.0941754  
C    3.0088452    0.8354824   -4.8082935  
O    2.2716040    1.5186018   -5.5189579  
C    2.4861704   -0.0045255   -3.7159919  
H    2.3514149   -1.9383096   -1.3641538  
H    3.9981217    2.0475216   -6.4202357  
H    4.8653811   -2.6984179   -0.8332835  
C    0.0000000    0.0000000    0.0000000  
C    1.0521669   -0.0011848   -0.8862341  
C    0.4917221   -0.0011931   -2.1979130  
C   -0.9187427    0.0003100   -2.0478683  
N   -1.1833170   -0.0009472   -0.7007915  
C   -1.7951698    0.0010259   -3.1372090  
C   -1.2375835    0.0005161   -4.4010425  
O   -2.0474208    0.0015256   -5.4997580  
C    0.1673584   -0.0013557   -4.5711962  
O    0.5673529   -0.0020659   -5.8915551  
C    1.0325773   -0.0023359   -3.4969890  
H    2.0953059   -0.0030542   -0.6200560  
H   -2.0989777    0.0102265   -0.2891825  
H   -2.8710930    0.0020274   -3.0295514  
H   -1.4634881    0.0006427   -6.2693593  
H    1.5290715   -0.0033076   -5.9180042  
C    3.1301144    0.0010313    3.1728260  
C    2.5367765    0.0002768    1.9564670  
C    1.1089900   -0.0001027    2.2356185  
C    1.0177864    0.0004150    3.7115134  
N    2.1993570    0.0011613    4.2663826  
C   -0.2459220    0.0002880    4.3957118  
C   -1.3675327    0.0000606    3.6398520  
O   -2.6129319   -0.0000866    4.1448486  
C   -1.3083589   -0.0000910    2.1483229  
O   -2.3693264   -0.0004206    1.5241687  
C    0.0000000    0.0000000    1.4700000  
H    3.0096015    0.0001008    0.9892483  
H   -0.2829642    0.0004689    5.4753125  
H   -3.1967446   -0.0002093    3.3649027  
H    4.1849273    0.0015113    3.3971983  
