62

C    6.0171544    0.0017044   -4.5305414  
C    6.2347783   -0.0025540   -3.1722010  
C    7.6477386   -0.0049628   -2.9769119  
C    8.2456816   -0.0016888   -4.2631380  
N    7.2273582    0.0003716   -5.1838057  
C    9.6308396   -0.0025496   -4.4532117  
C   10.4268770   -0.0064858   -3.3242800  
O   11.7857687   -0.0071417   -3.4524486  
C    9.8490127   -0.0101683   -2.0324298  
O   10.7746774   -0.0142729   -1.0094575  
C    8.4826007   -0.0095949   -1.8441685  
H    5.4692945   -0.0048793   -2.4152186  
H    7.3462439    0.0134059   -6.1806392  
H   10.0927870   -0.0002129   -5.4308616  
H   12.1446183   -0.0103595   -2.5555190  
H   10.3019530   -0.0165502   -0.1715256  
H    8.0689715   -0.0126618   -0.8424802  
C    1.7334697    0.0049246   -3.2500361  
C    3.1090791    0.0036244   -3.2628663  
C    3.5126983    0.0054132   -4.6309629  
C    2.3299047    0.0080813   -5.4138543  
N    1.2677984    0.0057592   -4.5440601  
C    2.3483176    0.0106716   -6.8118681  
C    3.5832508    0.0108735   -7.4308333  
O    3.6589646    0.0137048   -8.7936514  
C    4.7745979    0.0078614   -6.6669613  
O    5.9240667    0.0080643   -7.4298922  
C    4.7571864    0.0050318   -5.2877532  
H    3.7435743    0.0005264   -2.3931540  
H    0.2997754    0.0173833   -4.8101016  
H    1.4503964    0.0125684   -7.4143093  
H    4.5993500    0.0130275   -9.0148718  
H    6.6822233    0.0059546   -6.8376102  
C    1.1319247    0.0015655   -0.8009267  
C    0.7969916    0.0034943   -2.1169401  
C   -0.6453337    0.0035710   -2.1842668  
C   -1.1266832    0.0015433   -0.7896026  
N    0.0000000    0.0000000    0.0000000  
C   -2.4346130    0.0013964   -0.4276294  
C   -3.4350109    0.0031408   -1.4820183  
O   -4.6384610    0.0030973   -1.2583915  
C   -2.9478956    0.0050505   -2.9661075  
O   -3.7809378    0.0062218   -3.8623775  
C   -1.5113821    0.0053090   -3.2312122  
H   -2.7664565    0.0000232    0.6013446  
H   -1.1823527    0.0068407   -4.2614846  
H    2.1104317    0.0009391   -0.3488056  
C    0.8175213    0.6860729    2.3021913  
C    0.0000000    0.0000000    1.4700000  
C   -0.8887526   -0.7456559    2.3478473  
C   -0.4549825   -0.3816753    3.7138435  
N    0.5448156    0.4573574    3.6934124  
C   -1.0945674   -0.9182058    4.8835240  
C   -2.1210866   -1.7789155    4.6970523  
O   -2.8083856   -2.3554314    5.6976972  
C   -2.5824069   -2.1655116    3.3310774  
O   -3.5227682   -2.9541547    3.2362962  
C   -1.9100805   -1.6015804    2.1470656  
H   -0.7567140   -0.6349833    5.8697035  
H   -3.4728268   -2.9124471    5.2533954  
H   -2.2742832   -1.9066565    1.1752040  
H    1.6189533    1.3585343    2.0405121  
