62

C    0.0000000    0.0000000    0.0000000  
C    1.0521660   -0.0011918   -0.8862350  
C    0.4917206   -0.0011967   -2.1979136  
C   -0.9187440    0.0003156   -2.0478678  
N   -1.1833172   -0.0009399   -0.7007906  
C   -1.7951717    0.0010367   -3.1372082  
C   -1.2375861    0.0005233   -4.4010419  
O   -2.0474247    0.0015378   -5.4997566  
C    0.1673555   -0.0013574   -4.5711968  
O    0.5673487   -0.0020701   -5.8915553  
C    1.0325751   -0.0023429   -3.4969898  
H    2.0953048   -0.0030676   -0.6200572  
H   -2.0989778    0.0102397   -0.2891813  
H   -1.4634923    0.0006510   -6.2693584  
H    1.5290673   -0.0033179   -5.9180050  
H    2.1042129   -0.0039640   -3.6584469  
C   -4.4484687    2.1113854   -0.3461900  
C   -5.6480020    1.6479731   -0.7825889  
C   -5.3783986    0.7523481   -1.8825917  
C   -3.9129606    0.7317941   -2.0524714  
N   -3.4082509    1.5764952   -1.0908907  
C   -3.2578670    0.0024074   -2.9908490  
C   -4.0489156   -0.8169001   -3.8939064  
O   -3.5523696   -1.5094645   -4.7725973  
C   -5.6025030   -0.8101926   -3.7322701  
O   -6.2789691   -1.4957913   -4.4869952  
C   -6.1934228    0.0166945   -2.6830211  
H   -7.2698083    0.0156059   -2.5775851  
H   -4.2368791    2.7988181    0.4566523  
H   -2.4341518    1.7724853   -0.9502995  
C   -7.2939441    5.4587217    0.6500340  
C   -8.5380281    5.0466094    1.0056929  
C   -8.6111586    3.6332375    0.7195681  
C   -7.2982774    3.2529809    0.1641058  
N   -6.5458039    4.4046815    0.1480124  
C   -6.9652715    1.9985186   -0.2322983  
C   -7.9668325    0.9531418   -0.1034650  
O   -7.7637149   -0.2081585   -0.4327462  
C   -9.3641432    1.3333123    0.4820258  
O  -10.2154943    0.4616996    0.5949524  
C   -9.6048008    2.7195885    0.8746751  
H   -9.3157948    5.6624745    1.4209067  
H  -10.5748234    2.9745441    1.2793700  
H   -6.8607813    6.4438058    0.7122370  
H   -5.5983492    4.4691298   -0.1763690  
C    3.3041272   -0.0001177    3.0120429  
C    2.5845372    0.0004780    1.8395852  
C    1.2040006    0.0000008    2.1983588  
C    1.1422373   -0.0006037    3.6154372  
N    2.4348639   -0.0026109    4.0777464  
C   -0.0655181   -0.0008797    4.3197917  
C   -1.2321768   -0.0002324    3.5801400  
O   -2.4392816   -0.0001146    4.2172520  
C   -1.1911209    0.0000007    2.1655264  
O   -2.4371527    0.0002320    1.5732860  
C    0.0000000    0.0000000    1.4700000  
H    3.0031534    0.0000661    0.8477417  
H    2.7054629    0.0071099    5.0445261  
H   -0.1193549   -0.0014844    5.3997470  
H   -3.1132988    0.0000648    3.5251786  
H   -2.3200282    0.0004071    0.6183591  
H    4.3686625   -0.0004071    3.1724291  
