66

C   -8.3763932    0.9944148   -2.4010867  
C   -9.6878404    0.5798139   -2.3750192  
C   -9.6863153   -0.8228156   -2.6343026  
C   -8.3338649   -1.2118005   -2.8117659  
N   -7.5649325   -0.0839758   -2.6655748  
C   -7.9555821   -2.5298642   -3.0845287  
C   -8.9608820   -3.4724760   -3.1795794  
O   -8.6473165   -4.7743259   -3.4439208  
C  -10.3161525   -3.1037844   -3.0060182  
O  -11.1990082   -4.1565003   -3.1313147  
C  -10.6900888   -1.8036217   -2.7371769  
H  -10.5407661    1.2109183   -2.1927617  
H   -6.9265803   -2.8327497   -3.2209760  
H   -9.4836949   -5.2572006   -3.4677902  
H  -12.0915467   -3.8221860   -3.0001150  
H  -11.7362297   -1.5511897   -2.6093191  
H   -7.9557416    1.9743064   -2.2533586  
C   -4.5382360    2.1274890   -0.3187874  
C   -3.4269599    1.6643337   -0.9843851  
C   -3.8900485    0.7769751   -2.0006251  
C   -5.3047950    0.7381442   -1.9062259  
N   -5.6653098    1.5678667   -0.8736531  
C   -6.0984769   -0.0376821   -2.7564909  
C   -5.4522277   -0.7877416   -3.7197925  
O   -6.1789766   -1.5629113   -4.5765084  
C   -4.0415024   -0.7625026   -3.8294924  
O   -3.5480075   -1.5637593   -4.8383506  
C   -3.2578655    0.0024282   -2.9908505  
H   -2.4078383    1.9321494   -0.7637975  
H   -6.6070984    1.7501468   -0.5773599  
H   -5.5421683   -1.9966430   -5.1592751  
H   -2.5888327   -1.4892405   -4.8442645  
H   -4.6159715    2.8116400    0.5087713  
C    0.0000000    0.0000000    0.0000000  
C    1.0521666   -0.0011982   -0.8862343  
C    0.4917215   -0.0011996   -2.1979132  
C   -0.9187429    0.0003215   -2.0478682  
N   -1.1833171   -0.0009323   -0.7007913  
C   -1.7951703    0.0010483   -3.1372089  
C   -1.2375841    0.0005313   -4.4010422  
O   -2.0474218    0.0015510   -5.4997578  
C    0.1673576   -0.0013585   -4.5711963  
O    0.5673520   -0.0020735   -5.8915554  
C    1.0325768   -0.0023493   -3.4969892  
H    2.0953056   -0.0030808   -0.6200564  
H   -2.0989778    0.0102529   -0.2891822  
H   -1.4634888    0.0006601   -6.2693595  
H    1.5290707   -0.0033271   -5.9180047  
H    2.1042146   -0.0039770   -3.6584456  
C    3.3041272   -0.0001177    3.0120429  
C    2.5845372    0.0004780    1.8395852  
C    1.2040006    0.0000008    2.1983588  
C    1.1422373   -0.0006037    3.6154372  
N    2.4348639   -0.0026109    4.0777464  
C   -0.0655181   -0.0008797    4.3197917  
C   -1.2321768   -0.0002324    3.5801400  
O   -2.4392816   -0.0001146    4.2172520  
C   -1.1911209    0.0000007    2.1655264  
O   -2.4371527    0.0002320    1.5732860  
C    0.0000000    0.0000000    1.4700000  
H    3.0031534    0.0000661    0.8477417  
H    2.7054629    0.0071099    5.0445261  
H   -0.1193549   -0.0014844    5.3997470  
H   -3.1132988    0.0000648    3.5251786  
H   -2.3200282    0.0004071    0.6183591  
H    4.3686625   -0.0004071    3.1724291  
