64

C    0.0000000    0.0000000    0.0000000  
C    0.8621497    0.6031213   -0.8862343  
C    0.4032859    0.2813405   -2.1979132  
C   -0.7524054   -0.5272325   -2.0478683  
N   -0.9683057   -0.6801648   -0.7007911  
C   -1.4703979   -1.0298385   -3.1372088  
C   -1.0135774   -0.7101231   -4.4010420  
O   -1.6772179   -1.1742570   -5.4997579  
C    0.1378032    0.0949773   -4.5711965  
O    0.4657094    0.3240488   -5.8915550  
C    0.8467704    0.5909314   -3.4969891  
H    1.7173002    1.2004981   -0.6200565  
H   -1.7244247   -1.1967334   -0.2891825  
H   -2.3518927   -1.6467489   -3.0295510  
H   -1.1986111   -0.8397205   -6.2693595  
H    1.2538358    0.8751930   -5.9180047  
C    4.7655181    0.7793126   -1.4710666  
C    3.5001386    0.4582432   -1.8449712  
C    3.1604362    1.3128293   -2.9581290  
C    4.3401017    2.1641756   -3.2038716  
N    5.2777827    1.7913287   -2.2686556  
C    4.4181769    3.1078593   -4.1760189  
C    3.2631954    3.2978709   -5.0376728  
O    3.2351615    4.1224991   -5.9418318  
C    2.0029598    2.4074446   -4.7952825  
O    1.0244141    2.5585815   -5.5142169  
C    2.0381675    1.4237045   -3.7159924  
H    2.8758788   -0.2915423   -1.3924951  
H    5.2930645    3.7216578   -4.3395231  
H    5.3668374    0.3619060   -0.6798167  
C    9.2159286   -0.0313424   -1.4155670  
C    9.9578613    1.1264030   -1.4559207  
C    9.0523410    2.1915687   -1.7388614  
C    7.7607472    1.6183001   -1.8616398  
N    7.8961204    0.2669122   -1.6615359  
C    6.6198204    2.3771365   -2.1395629  
C    6.7857260    3.7395421   -2.2960985  
O    5.7050655    4.5276509   -2.5682582  
C    8.0663972    4.3300324   -2.1776930  
O    8.0670763    5.6974454   -2.3607903  
C    9.1924317    3.5819989   -1.9037967  
H   11.0211237    1.1946558   -1.3016233  
H    7.1459856   -0.4001835   -1.6777371  
H    6.0373777    5.4320534   -2.6381831  
H    8.9694840    6.0167692   -2.2643665  
H   10.1602463    4.0622402   -1.8190578  
H    9.5239853   -1.0464478   -1.2322075  
C    3.3003543   -0.0005276    2.9438989  
C    2.5232812   -0.0003497    4.0790748  
C    1.1623199    0.0001319    3.6520102  
C    1.1711883   -0.0000583    2.2336141  
N    2.4852299    0.0014920    1.8362361  
C    0.0000000    0.0000000    1.4700000  
C   -1.2020384   -0.0000520    2.1506477  
O   -2.3759250   -0.0003494    1.4542253  
C   -1.2314658    0.0005113    3.5655508  
O   -2.5054393    0.0008037    4.0950179  
C   -0.0764518    0.0007272    4.3195194  
H    2.8919952    0.0005619    5.0905303  
H    2.8036267   -0.0088181    0.8841339  
H   -3.0835639   -0.0000348    2.1118817  
H   -2.4360050    0.0011527    5.0545920  
H   -0.1304098    0.0013421    5.4019087  
H    4.3715549   -0.0004895    2.8367138  
