62

C   -7.6821512    0.0113413   -2.3598348  
C   -8.4677000    0.6859813   -1.4541634  
C   -9.8204895    0.3242147   -1.7256163  
C   -9.7981076   -0.5817876   -2.8167556  
N   -8.4843919   -0.7484068   -3.1787008  
C  -10.9584592   -1.1465127   -3.3547699  
C  -12.1633304   -0.7903771   -2.7806339  
O  -13.3269847   -1.3126126   -3.2666307  
C  -12.2062021    0.1123309   -1.6915534  
O  -13.4813747    0.3674015   -1.2308809  
C  -11.0619065    0.6700422   -1.1604513  
H   -8.1098222    1.3572295   -0.6923614  
H   -8.1570872   -1.3438848   -3.9177943  
H  -10.9481488   -1.8375243   -4.1863939  
H  -14.0387676   -0.9384790   -2.7312298  
H  -13.4213296    0.9854446   -0.4960196  
H  -11.1260687    1.3586859   -0.3261066  
C   -4.4297974    2.1087675   -0.2339396  
C   -5.6380117    1.6447708   -0.6450366  
C   -5.3911869    0.7496349   -1.7507689  
C   -3.9296541    0.7300042   -1.9515855  
N   -3.4052340    1.5747191   -1.0006225  
C   -3.2941076    0.0012878   -2.9038237  
C   -4.1035802   -0.8182212   -3.7902173  
O   -3.6253066   -1.5102279   -4.6794205  
C   -5.6534092   -0.8124874   -3.5957844  
O   -6.3452686   -1.4982635   -4.3362586  
C   -6.2225101    0.0137349   -2.5340255  
H   -6.5931606    1.9005378   -0.2220859  
H   -4.2016940    2.7960867    0.5644659  
H   -2.4284972    1.7712471   -0.8805868  
C    0.0000000    0.0000000    0.0000000  
C    1.0541688   -0.0001723   -0.8560392  
C    0.5103136   -0.0000455   -2.1935956  
C   -0.9576373    0.0002461   -2.0455730  
N   -1.2018460   -0.0001389   -0.6915968  
C   -1.8348314    0.0008319   -3.0810607  
C   -1.2972851    0.0009739   -4.4314603  
O   -2.0050676    0.0014268   -5.4301316  
C    0.2542619    0.0004184   -4.6117572  
O    0.7184666    0.0002257   -5.7439122  
C    1.0974551    0.0000873   -3.4189129  
H    2.0940752   -0.0005484   -0.5817983  
H    2.1707276   -0.0000912   -3.5523673  
H   -2.1128194    0.0014915   -0.2706789  
C    3.3003543   -0.0005276    2.9438989  
C    2.5232812   -0.0003497    4.0790748  
C    1.1623199    0.0001319    3.6520102  
C    1.1711883   -0.0000583    2.2336141  
N    2.4852299    0.0014920    1.8362361  
C    0.0000000    0.0000000    1.4700000  
C   -1.2020384   -0.0000520    2.1506477  
O   -2.3759250   -0.0003494    1.4542253  
C   -1.2314658    0.0005113    3.5655508  
O   -2.5054393    0.0008037    4.0950179  
C   -0.0764518    0.0007272    4.3195194  
H    2.8919952    0.0005619    5.0905303  
H    2.8036267   -0.0088181    0.8841339  
H   -3.0835639   -0.0000348    2.1118817  
H   -2.4360050    0.0011527    5.0545920  
H   -0.1304098    0.0013421    5.4019087  
H    4.3715549   -0.0004895    2.8367138  
