60

C    7.6082104   -5.3272712   -1.1693566  
C    6.6206707   -4.4048085   -1.4268393  
C    7.2660664   -3.1483471   -1.6252552  
C    8.6593836   -3.3679148   -1.4756433  
N    8.8323212   -4.7010838   -1.1974866  
C    9.6043149   -2.3456281   -1.6053512  
C    9.1341577   -1.0786667   -1.8916013  
O   10.0134890   -0.0438396   -2.0291612  
C    7.7476535   -0.8396079   -2.0441620  
O    7.4380507    0.4747010   -2.3271488  
C    6.8148668   -1.8475901   -1.9160717  
H    5.5649062   -4.6118021   -1.4656634  
H    9.7165843   -5.1534484   -1.0511163  
H   10.6676013   -2.5064282   -1.4923643  
H    9.4840010    0.7402988   -2.2241887  
H    6.4829293    0.5501291   -2.4146517  
H    7.5361337   -6.3820668   -0.9664537  
C    4.3630986   -2.0949034   -1.3110654  
C    3.1522517   -1.6320804   -1.7156885  
C    3.3924175   -0.7354492   -2.8216760  
C    4.8529069   -0.7137076   -3.0297345  
N    5.3832068   -1.5581153   -2.0817645  
C    5.4827049    0.0162382   -3.9848461  
C    4.6677390    0.8352839   -4.8666226  
O    5.1406425    1.5283994   -5.7578312  
C    3.1189444    0.8277105   -4.6641777  
O    2.4225432    1.5135518   -5.4003220  
C    2.5562217   -0.0001543   -3.6003001  
H    2.1995752   -1.8892845   -1.2880585  
H    6.5552965    0.0179179   -4.1206910  
H    4.5960548   -2.7827973   -0.5145584  
C    0.0000000    0.0000000    0.0000000  
C    1.0541688   -0.0001719   -0.8560391  
C    0.5103141   -0.0000449   -2.1935955  
C   -0.9576367    0.0002461   -2.0455733  
N   -1.2018459   -0.0001392   -0.6915970  
C   -1.8348306    0.0008319   -3.0810611  
C   -1.2972842    0.0009739   -4.4314605  
O   -2.0050664    0.0014267   -5.4301321  
C    0.2542628    0.0004190   -4.6117571  
O    0.7184677    0.0002263   -5.7439119  
C    1.0974556    0.0000880   -3.4189127  
H    2.0940752   -0.0005479   -0.5817978  
H   -2.9081050    0.0011669   -2.9507065  
H   -2.1128195    0.0014911   -0.2706793  
C    3.1301144    0.0010313    3.1728260  
C    2.5367765    0.0002768    1.9564670  
C    1.1089900   -0.0001027    2.2356185  
C    1.0177864    0.0004150    3.7115134  
N    2.1993570    0.0011613    4.2663826  
C   -0.2459220    0.0002880    4.3957118  
C   -1.3675327    0.0000606    3.6398520  
O   -2.6129319   -0.0000866    4.1448486  
C   -1.3083589   -0.0000910    2.1483229  
O   -2.3693264   -0.0004206    1.5241687  
C    0.0000000    0.0000000    1.4700000  
H    3.0096015    0.0001008    0.9892483  
H   -0.2829642    0.0004689    5.4753125  
H   -3.1967446   -0.0002093    3.3649027  
H    4.1849273    0.0015113    3.3971983  
