60

C    6.7131192   -2.1208482   -1.5722849  
C    7.2146555   -2.9714995   -0.6145164  
C    8.6321543   -2.9872896   -0.7727857  
C    8.9401685   -2.1195998   -1.8517517  
N    7.7521256   -1.6116698   -2.3156236  
C   10.2484565   -1.8911486   -2.2887661  
C   11.2643354   -2.5504040   -1.6242730  
O   12.5602736   -2.3632390   -2.0096635  
C   10.9770436   -3.4204175   -0.5456830  
O   12.0965288   -4.0022533    0.0124967  
C    9.6866013   -3.6464729   -0.1141941  
H    6.6305905   -3.5147605    0.1084837  
H    7.6561437   -0.9580511   -3.0716335  
H   10.4898248   -1.2311589   -3.1105673  
H   13.1009349   -2.9084466   -1.4234044  
H   11.8148476   -4.5741293    0.7330640  
H    9.4973617   -4.3185466    0.7146507  
C    4.1985321   -2.1423503   -1.2324138  
C    5.3247411   -1.7348290   -1.8626207  
C    4.8654767   -0.8236660   -2.8996152  
C    3.3948133   -0.7971457   -2.7478594  
N    2.9980294   -1.5681521   -1.7721028  
C    2.5562217   -0.0001543   -3.6003001  
C    3.1594330    0.7371395   -4.5604398  
O    2.5003404    1.5262936   -5.4258144  
C    4.6414696    0.7318287   -4.7384882  
O    5.1222596    1.4271711   -5.6332286  
C    5.4799812   -0.0940155   -3.8514684  
H    3.1964050    1.9185699   -5.9832782  
H    6.5493677   -0.0702011   -4.0129487  
H    4.1121688   -2.8248211   -0.4019035  
C    0.0000000    0.0000000    0.0000000  
C    1.0541688   -0.0001719   -0.8560391  
C    0.5103141   -0.0000449   -2.1935955  
C   -0.9576367    0.0002461   -2.0455733  
N   -1.2018459   -0.0001392   -0.6915970  
C   -1.8348306    0.0008319   -3.0810611  
C   -1.2972842    0.0009739   -4.4314605  
O   -2.0050664    0.0014267   -5.4301321  
C    0.2542628    0.0004190   -4.6117571  
O    0.7184677    0.0002263   -5.7439119  
C    1.0974556    0.0000880   -3.4189127  
H    2.0940752   -0.0005479   -0.5817978  
H   -2.9081050    0.0011669   -2.9507065  
H   -2.1128195    0.0014911   -0.2706793  
C    3.1301144    0.0010313    3.1728260  
C    2.5367765    0.0002768    1.9564670  
C    1.1089900   -0.0001027    2.2356185  
C    1.0177864    0.0004150    3.7115134  
N    2.1993570    0.0011613    4.2663826  
C   -0.2459220    0.0002880    4.3957118  
C   -1.3675327    0.0000606    3.6398520  
O   -2.6129319   -0.0000866    4.1448486  
C   -1.3083589   -0.0000910    2.1483229  
O   -2.3693264   -0.0004206    1.5241687  
C    0.0000000    0.0000000    1.4700000  
H    3.0096015    0.0001008    0.9892483  
H   -0.2829642    0.0004689    5.4753125  
H   -3.1967446   -0.0002093    3.3649027  
H    4.1849273    0.0015113    3.3971983  
