62

C    3.4544513   -3.0732199   -5.5785349  
C    4.2195098   -3.7515510   -6.4988709  
C    5.1722184   -4.5179896   -5.7643526  
C    4.9379802   -4.2651417   -4.3884436  
N    3.8895572   -3.3822849   -4.3110525  
C    5.6940936   -4.8558617   -3.3715204  
C    6.7048884   -5.7177615   -3.7504636  
O    7.4735725   -6.3221468   -2.7981730  
C    6.9542279   -5.9824238   -5.1181626  
O    7.9949603   -6.8621487   -5.3333483  
C    6.2088765   -5.3998093   -6.1219250  
H    4.1057182   -3.6994173   -7.5681358  
H    3.4914203   -3.0272144   -3.4605271  
H    5.5206886   -4.6671737   -2.3210299  
H    8.1100565   -6.8741221   -3.2709062  
H    8.0969841   -6.9864044   -6.2819025  
H    6.4233262   -5.6215728   -7.1608237  
C    2.3338133   -2.1434178   -5.7798773  
C    1.7883278   -1.7365448   -6.9496977  
C    0.7199247   -0.8256229   -6.5685995  
C    0.7626761   -0.7985189   -5.0907561  
N    1.7067545   -1.5690021   -4.6227174  
C   -0.1496415   -0.0015615   -4.3176961  
C   -1.0628929    0.7351420   -4.9904329  
O   -1.9748540    1.5241934   -4.3973341  
C   -1.1310333    0.7292327   -6.4815675  
O   -1.9880870    1.4240539   -7.0273726  
C   -0.1842265   -0.0965636   -7.2519840  
H    2.0755606   -2.0195387   -7.9479403  
H   -2.4795477    1.9160033   -5.1328081  
H   -0.2663206   -0.0731943   -8.3303828  
C    3.3003543    0.0005276   -1.4738987  
C    2.5232814    0.0003497   -2.6090747  
C    1.1623200   -0.0001320   -2.1820103  
C    1.1711883    0.0000582   -0.7636140  
N    2.4852300   -0.0014919   -0.3662360  
C    0.0000000    0.0000000    0.0000000  
C   -1.2020384    0.0000519   -0.6806477  
O   -2.3759249    0.0003493    0.0157743  
C   -1.2314656   -0.0005115   -2.0955510  
O   -2.5054392   -0.0008039   -2.6250180  
C   -0.0764516   -0.0007274   -2.8495195  
H    2.8919955   -0.0005620   -3.6205304  
H    2.8036267    0.0088183    0.5858662  
H   -3.0835638    0.0000347   -0.6418818  
H   -2.4360047   -0.0011529   -3.5845921  
H    4.3715549    0.0004895   -1.3667136  
C    0.0000000    0.0000000    1.4700000  
C    1.0541688    0.0001722    2.3260392  
C    0.5103138    0.0000454    3.6635956  
C   -0.9576371   -0.0002459    3.5155732  
N   -1.2018458    0.0001392    2.1615969  
C   -1.8348311   -0.0008317    4.5510609  
C   -1.2972847   -0.0009736    5.9014604  
O   -2.0050672   -0.0014265    6.9001319  
C    0.2542623   -0.0004184    6.0817573  
O    0.7184670   -0.0002256    7.2139121  
C    1.0974552   -0.0000873    4.8889129  
H    2.0940752    0.0005483    2.0517982  
H   -2.9081052   -0.0011668    4.4207061  
H    2.1707277    0.0000911    5.0223670  
H   -2.1128194   -0.0014912    1.7406791  
