60

C   10.0214875   -2.1237153    3.2103023  
C    8.9906689   -1.6618700    2.4250757  
C    9.5632266   -0.7754488    1.4653698  
C   10.9587780   -0.7358133    1.7159565  
N   11.2029167   -1.5641742    2.7831170  
C   11.8415337    0.0394287    0.9579799  
C   11.3057725    0.7880655   -0.0719127  
O   12.1227234    1.5626105   -0.8437186  
C    9.9159089    0.7620062   -0.3372761  
O    9.5369899    1.5618629   -1.3955735  
C    9.0444194   -0.0023487    0.4102494  
H    7.9534740   -1.9299348    2.5316606  
H   12.1061253   -1.7456507    3.1821924  
H   12.9061505    0.0740890    1.1439688  
H   11.5542786    1.9953602   -1.4939973  
H    8.5844083    1.4868652   -1.5076805  
H   10.0072624   -2.8068789    4.0421941  
C    6.5698745   -0.0006427    0.9721610  
C    7.6069601   -0.0018567    0.1026609  
C    6.9912940   -0.0024305   -1.2154645  
C    5.5370519   -0.0015107   -0.9475763  
N    5.2839240   -0.0003802    0.3330154  
C    4.5679461   -0.0016854   -2.0086701  
C    5.0305955   -0.0023425   -3.2796106  
O    4.2398095   -0.0025848   -4.3662099  
C    6.4922745   -0.0029069   -3.5823559  
O    6.8417597   -0.0036175   -4.7626441  
C    7.4664605   -0.0027580   -2.4765142  
H    4.8556974   -0.0030412   -5.1210838  
H    8.5162193   -0.0030654   -2.7377360  
H    6.6068538    0.0001032    2.0499390  
C    3.1301149   -0.0010311   -1.7028252  
C    2.5367768   -0.0002767   -0.4864665  
C    1.1089904    0.0001028   -0.7656183  
C    1.0177872   -0.0004148   -2.2415132  
N    2.1993578   -0.0011611   -2.7963820  
C   -0.2459209   -0.0002877   -2.9257118  
C   -1.3675319   -0.0000605   -2.1698524  
O   -2.6129313    0.0000867   -2.6748490  
C   -1.3083584    0.0000910   -0.6783232  
O   -2.3693261    0.0004206   -0.0541692  
C    0.0000000    0.0000000    0.0000000  
H    3.0096017   -0.0001007    0.4807525  
H   -0.2829630   -0.0004687   -4.0053125  
H   -3.1967441    0.0002094   -1.8949034  
C    0.0000000    0.0000000    1.4700000  
C    1.0662921    0.0000102    2.3034270  
C    0.4961870   -0.0000064    3.6418889  
C   -0.9663858    0.0000850    3.4240247  
N   -1.2632773    0.0000084    2.1528658  
C   -1.8985362    0.0000517    4.5177257  
C   -1.3925775   -0.0004564    5.7720543  
O   -2.1456383   -0.0005410    6.8851312  
C    0.0786232   -0.0009323    6.0245000  
O    0.4683759   -0.0012588    7.1921102  
C    1.0143166   -0.0008442    4.8859032  
H    2.1107198   -0.0000632    2.0421868  
H   -2.9622183    0.0003270    4.3293377  
H   -1.5042274   -0.0009692    7.6184419  
H    2.0724152   -0.0013148    5.1109744  
