60

C   -0.6791287    0.5315762   -9.1753422  
C    0.3322863   -0.3188724   -9.5577608  
C    0.3464303   -0.3342130  -10.9840026  
C   -0.6874913    0.5335292  -11.4198423  
N   -1.2915385    1.0410569  -10.2963836  
C   -0.9632645    0.7623825  -12.7712720  
C   -0.1808531    0.1034830  -13.6996378  
O   -0.4068690    0.2910480  -15.0325854  
C    0.8551989   -0.7665762  -13.2844148  
O    1.5445866   -1.3480276  -14.3284477  
C    1.1276429   -0.9930283  -11.9513667  
H    0.9794720   -0.8622897   -8.8907967  
H   -2.0536603    1.6946120  -10.2922356  
H   -1.7499398    1.4224145  -13.1099501  
H    0.2404596   -0.2539600  -15.4986294  
H    2.2258921   -1.9199633  -13.9619547  
H    1.9276089   -1.6651269  -11.6635891  
C    0.7844857   -0.6865736   -5.2559753  
C   -0.0307352   -0.0004646   -4.4215603  
C   -0.9220586    0.7449735   -5.2969831  
C   -0.4921389    0.3808400   -6.6641554  
N    0.5077998   -0.4580872   -6.6464478  
C   -1.1351041    0.9171360   -7.8320886  
C   -2.1611774    1.7777673   -7.6428216  
O   -2.8513798    2.3540681   -8.6415896  
C   -2.6186493    2.1645133   -6.2755956  
O   -3.5588180    2.9530732   -6.1782525  
C   -1.9428993    1.6008221   -5.0934199  
H   -3.5146114    2.9110797   -8.1954798  
H   -2.3043670    1.9060012   -4.1205698  
H    1.5867283   -1.3589151   -4.9964802  
C    3.2573670   -0.0002920   -1.5109380  
C    2.5379468   -0.0001709   -0.3591961  
C    1.1435043    0.0000332   -0.7338500  
C    1.1092609   -0.0000082   -2.2088477  
N    2.4227562    0.0001909   -2.6182613  
C   -0.0265532   -0.0002522   -2.9515663  
C   -1.3003035   -0.0002639   -2.2514981  
O   -2.3786784   -0.0004131   -2.8306429  
C   -1.2877725    0.0000312   -0.6895608  
O   -2.3539958    0.0003307   -0.0892036  
C    0.0000000    0.0000000    0.0000000  
H    2.9384091   -0.0000369    0.6389239  
H    4.3270394   -0.0004765   -1.6439446  
H    2.7280494   -0.0013406   -3.5742113  
C    0.8681109    0.7263879    2.2709268  
C    0.6127770    0.5096195    3.5869401  
C   -0.4920590   -0.4175482    3.6542670  
C   -0.8620974   -0.7254003    2.2596025  
N    0.0000000    0.0000000    1.4700000  
C   -1.8641242   -1.5660088    1.8976294  
C   -2.6293522   -2.2103885    2.9520183  
O   -3.5512764   -2.9839180    2.7283916  
C   -2.2549728   -1.8987399    4.4361073  
O   -2.8923672   -2.4351063    5.3323774  
C   -1.1543735   -0.9755647    4.7012123  
H    1.1382914    0.9492124    4.4159191  
H   -2.1192137   -1.7782617    0.8686553  
H   -0.9013378   -0.7652422    5.7314848  
H    1.6172880    1.3558399    1.8188057  
