60

C    8.3598388    0.7074079   -3.9093895  
C    9.1179770    0.4563105   -5.0294980  
C   10.1471933   -0.4515266   -4.6407228  
C    9.9646203   -0.7212565   -3.2602017  
N    8.8719481   -0.0001311   -2.8470892  
C   10.8011259   -1.5795648   -2.5402330  
C   11.8406962   -2.1766921   -3.2264621  
O   12.6874434   -3.0238850   -2.5720200  
C   12.0393998   -1.9198202   -4.6039062  
O   13.1176552   -2.5896179   -5.1443521  
C   11.2147195   -1.0729803   -5.3147452  
H    8.9505360    0.8767127   -6.0063395  
H   10.6674035   -1.7891785   -1.4879106  
H   13.3314211   -3.3253347   -3.2259976  
H   13.1813414   -2.3612192   -6.0767590  
H   11.3918307   -0.8954060   -6.3690593  
H    7.4951752    1.3363397   -3.7838508  
C    4.7795901    0.0008674   -1.0815733  
C    5.7862016    0.0008772   -1.9861798  
C    7.0047290    0.0013415   -1.1913902  
C    6.5351379    0.0016830    0.2107753  
N    5.2316823    0.0013266    0.2814336  
C    7.4495166    0.0021412    1.3193773  
C    8.7728605    0.0018640    1.0399208  
O    9.7375504    0.0022381    1.9755566  
C    9.2780077    0.0011456   -0.3647098  
O   10.4956961    0.0010514   -0.5448642  
C    8.3200392    0.0007295   -1.4846298  
H    5.7111077    0.0005129   -3.0601616  
H    7.0785145    0.0025903    2.3339055  
H   10.5714828    0.0018725    1.4718605  
C    3.3321168    0.0004716   -1.3379341  
C    2.6974177    0.0000118   -2.5332316  
C    1.2800432   -0.0002116   -2.2052842  
C    1.2395033    0.0000644   -0.7271298  
N    2.4394059    0.0005460   -0.2131041  
C    0.0000000    0.0000000    0.0000000  
C   -1.1468704    0.0000635   -0.7169542  
O   -2.3742206    0.0000074   -0.1695488  
C   -1.1388774    0.0001608   -2.2096352  
O   -2.2206238    0.0000906   -2.7970409  
C    0.1454514    0.0001818   -2.9324241  
H    3.1367978   -0.0000649   -3.5160956  
H   -2.9844350    0.0001027   -0.9290164  
H    0.1083567    0.0003684   -4.0135594  
C    0.0000000    0.0000000    1.4700000  
C    1.0541688    0.0001722    2.3260392  
C    0.5103138    0.0000454    3.6635956  
C   -0.9576371   -0.0002459    3.5155732  
N   -1.2018458    0.0001392    2.1615969  
C   -1.8348311   -0.0008317    4.5510609  
C   -1.2972847   -0.0009736    5.9014604  
O   -2.0050672   -0.0014265    6.9001319  
C    0.2542623   -0.0004184    6.0817573  
O    0.7184670   -0.0002256    7.2139121  
C    1.0974552   -0.0000873    4.8889129  
H    2.0940752    0.0005483    2.0517982  
H   -2.9081052   -0.0011668    4.4207061  
H    2.1707277    0.0000911    5.0223670  
H   -2.1128194   -0.0014912    1.7406791  
