62

C    3.4006729   -3.6290951   -3.6112623  
C    3.1607235   -3.0305526   -4.8264327  
C    4.1676404   -3.4932900   -5.7245375  
C    5.0006960   -4.3796250   -4.9949109  
N    4.5081101   -4.4379224   -3.7148416  
C    6.1010412   -5.0259435   -5.5661394  
C    6.3650544   -4.7731383   -6.8982670  
O    7.4269842   -5.3780768   -7.5060212  
C    5.5456758   -3.8916621   -7.6428715  
O    5.9390874   -3.7435381   -8.9568843  
C    4.4601551   -3.2534961   -7.0799194  
H    4.8881635   -4.9957101   -2.9715962  
H    6.7399423   -5.7024914   -5.0154221  
H    7.4307831   -5.0682115   -8.4210258  
H    5.3338287   -3.1328874   -9.3885913  
H    3.8508738   -2.5835598   -7.6752672  
H    2.8703273   -3.5419386   -2.6784729  
C    2.0663726   -2.0930015   -5.1167679  
C    1.0931320   -1.6308350   -4.2901598  
C    0.2706806   -0.7345477   -5.0680275  
C    0.8486728   -0.7122919   -6.4253121  
N    1.9347259   -1.5561040   -6.3884400  
C    0.3570939    0.0175295   -7.4584690  
C   -0.8196668    0.8358896   -7.2175208  
O   -1.3377664    1.5288425   -8.0833667  
C   -1.4481804    0.8277638   -5.7875872  
O   -2.4388906    1.5130257   -5.5727150  
C   -0.8287665    0.0000939   -4.7555305  
H    0.9660025   -1.8882581   -3.2537310  
H    0.7960886    0.0195937   -8.4464917  
H    2.5375329   -1.7532734   -7.1661261  
C    1.0672569   -0.0000698   -0.8321910  
C    0.0000000    0.0000000    0.0000000  
C   -1.1601223   -0.0000736   -0.8778472  
C   -0.5938729   -0.0000768   -2.2438435  
N    0.7113367   -0.0001553   -2.2234123  
C   -1.4286985   -0.0001877   -3.4135239  
C   -2.7683113   -0.0006798   -3.2270524  
O   -3.6653902   -0.0008302   -4.2276970  
C   -3.3702024   -0.0010610   -1.8610774  
O   -4.5974910   -0.0013779   -1.7662963  
C   -2.4926825   -0.0008943   -0.6770658  
H   -4.5324245   -0.0012258   -3.7833954  
H   -2.9677772   -0.0012974    0.2947961  
H    2.1134391   -0.0000547   -0.5705119  
C    0.8576279    0.7185626    2.2703808  
C    0.0000000    0.0000000    1.4700000  
C   -0.8668858   -0.7285659    2.3373528  
C   -0.4876752   -0.4117774    3.6669281  
N    0.5635254    0.4678311    3.5902241  
C   -1.1297612   -0.9515493    4.7854808  
C   -2.1738724   -1.8268314    4.5576857  
O   -2.8357962   -2.3827064    5.6140350  
C   -2.5667212   -2.1555554    3.2384331  
O   -3.6226318   -3.0413663    3.1773122  
C   -1.9335634   -1.6236449    2.1344818  
H    1.0363952    0.8769718    4.3757045  
H   -0.8454472   -0.7142436    5.8013813  
H   -3.5178062   -2.9546422    5.2385129  
H   -3.8247440   -3.2102924    2.2519915  
H   -2.2566033   -1.8942483    1.1360343  
H    1.6567807    1.3889844    2.0042067  
