62

C   -6.5714812    0.0025966    0.3047596  
C   -5.4968428    0.0050119    1.1636043  
C   -6.0233264    0.0065603    2.4892789  
C   -7.4371864    0.0046850    2.3756047  
N   -7.7363609    0.0042492    1.0357875  
C   -8.2852723    0.0051935    3.4871531  
C   -7.6953269    0.0073328    4.7362078  
O   -8.4766044    0.0075681    5.8554125  
C   -6.2864706    0.0096007    4.8701251  
O   -5.8526090    0.0119888    6.1797449  
C   -5.4491992    0.0093737    3.7739947  
H   -4.4609042    0.0066922    0.8706515  
H   -8.6623148   -0.0075526    0.6479076  
H   -9.3636109    0.0039168    3.4072380  
H   -7.8730479    0.0094761    6.6097220  
H   -4.8905287    0.0133908    6.1814202  
H   -4.3737598    0.0113289    3.9078003  
C   -3.3460096   -0.0004265   -2.7913646  
C   -4.0351699    0.0002974   -1.6007661  
C   -5.4244877    0.0000965   -1.9238720  
C   -5.5227203   -0.0010536   -3.3388899  
N   -4.2424270    0.0006061   -3.8343331  
C   -6.7482123   -0.0018514   -4.0119107  
C   -7.8954377   -0.0017884   -3.2424625  
O   -9.1185480   -0.0028971   -3.8482791  
C   -7.8179688   -0.0002734   -1.8293755  
O   -9.0483374    0.0000108   -1.2052461  
C   -6.6093335    0.0007875   -1.1647519  
H   -3.5911529    0.0020019   -0.6200321  
H   -3.9968105   -0.0102581   -4.8077477  
H   -6.8298404   -0.0025853   -5.0901211  
H   -9.7745212   -0.0023403   -3.1390794  
H   -8.9066623    0.0010309   -0.2536523  
C    0.0000000    0.0000000    0.0000000  
C    1.0662919   -0.0000103   -0.8334269  
C    0.4961869    0.0000064   -2.1718889  
C   -0.9663859   -0.0000850   -1.9540246  
N   -1.2632774   -0.0000084   -0.6828657  
C   -1.8985363   -0.0000518   -3.0477257  
C   -1.3925778    0.0004564   -4.3020545  
O   -2.1456384    0.0005409   -5.4151311  
C    0.0786230    0.0009323   -4.5544998  
O    0.4683758    0.0012588   -5.7221098  
C    1.0143164    0.0008442   -3.4159030  
H    2.1107195    0.0000633   -0.5721867  
H   -1.5042275    0.0009691   -6.1484418  
H    2.0724152    0.0013148   -3.6409744  
C    1.0965515   -0.0001358    2.2710304  
C    0.0000000    0.0000000    1.4700000  
C   -1.1546562   -0.0001469    2.3369512  
C   -0.6372014   -0.0003519    3.7186280  
N    0.7342871   -0.0007337    3.6095011  
C   -1.4147739   -0.0001353    4.8308716  
C   -2.8576048    0.0001048    4.6554461  
O   -3.6427778    0.0002493    5.5944904  
C   -3.4275839    0.0000726    3.2011665  
O   -4.6406829   -0.0000333    3.0410059  
C   -2.4891866    0.0001091    2.0816745  
H   -1.0150448   -0.0001615    5.8354244  
H   -2.8919121    0.0002919    1.0779135  
H    2.1388271   -0.0000662    1.9961646  
H    1.3735872    0.0006099    4.3830260  
