60

C    9.8287679    2.1217353   -6.6949958  
C   11.0785014    1.6232483   -6.4083869  
C   10.9319437    0.7495667   -5.2904417  
C    9.5586718    0.7546663   -4.9354434  
N    8.9175551    1.5995157   -5.8071182  
C    9.0494870    0.0024126   -3.8726011  
C    9.9428371   -0.7692777   -3.1552469  
O    9.4990919   -1.5235152   -2.1077591  
C   11.3168152   -0.7872938   -3.4938842  
O   12.0781153   -1.6049594   -2.6844467  
C   11.8198839   -0.0452190   -4.5421086  
H   11.9845196    1.8610306   -6.9390320  
H    7.9329395    1.7957626   -5.8067309  
H   10.2735272   -1.9774626   -1.7507632  
H   12.9924374   -1.5598020   -2.9803855  
H   12.8771487   -0.0790528   -4.7777409  
H    9.5155227    2.8095813   -7.4616134  
C    6.5739141    0.0018721   -4.3537910  
C    7.6280828    0.0019468   -3.4977523  
C    7.0842285    0.0017734   -2.1601955  
C    5.6162780    0.0015609   -2.3082178  
N    5.3720684    0.0020314   -3.6621941  
C    4.7390840    0.0009613   -1.2727298  
C    5.2766310    0.0007199    0.0776697  
O    4.5688485    0.0002467    1.0763412  
C    6.8281783    0.0011904    0.2579660  
O    7.2923831    0.0012992    1.3901206  
C    7.6713704    0.0015458   -0.9348786  
H    8.7446430    0.0016650   -0.8014249  
H    6.5739141    0.0019306   -5.4317008  
H    4.4610948    0.0004680   -4.0831113  
C    3.2798077    0.0005856   -1.4499661  
C    2.5571132    0.0005565   -2.5996564  
C    1.1637425    0.0001547   -2.2210366  
C    1.1336959   -0.0000200   -0.7459475  
N    2.4483509   -0.0001429   -0.3402730  
C    0.0000000    0.0000000    0.0000000  
C   -1.2757370   -0.0000187   -0.6964411  
O   -2.3524597   -0.0000640   -0.1142306  
C   -1.2676502   -0.0000874   -2.2584078  
O   -2.3355774   -0.0004102   -2.8557287  
C    0.0181551    0.0001758   -2.9516297  
H    2.9547342    0.0006074   -3.5989118  
H    0.0150776    0.0003317   -4.0331632  
H    2.7563626    0.0012823    0.6148051  
C    2.5528530    2.1414826    2.8079335  
C    2.0663498    1.7338582    4.0032312  
C    0.9804344    0.8229586    3.6752840  
C    0.9495562    0.7966882    2.1971295  
N    1.8690446    1.5676019    1.6831036  
C    0.0000000    0.0000000    1.4700000  
C   -0.8785127   -0.7372425    2.1869543  
O   -1.8187535   -1.5261249    1.6395491  
C   -0.8723269   -0.7321790    3.6796354  
O   -1.7010379   -1.4274584    4.2670412  
C    0.1115397    0.0933559    4.4024240  
H    2.4028853    2.0163452    4.9860947  
H   -2.2861435   -1.9184361    2.3990168  
H    0.0832434    0.0693689    5.4835595  
H    3.3664920    2.8238276    2.6198634  
