64

C    0.5623903   -0.9698123   -9.5307861  
C    0.1492877    0.1040325   -8.7766831  
C    0.1821334    1.2479673   -9.6281152  
C    0.6267069    0.8069134  -10.9008091  
N    0.8504215   -0.5442576  -10.8064390  
C    0.7786521    1.6704354  -11.9898596  
C    0.4760043    3.0034287  -11.7905846  
O    0.6063743    3.8899126  -12.8202256  
C    0.0313467    3.4627291  -10.5279918  
O   -0.2289966    4.8170065  -10.4893010  
C   -0.1185229    2.6114551   -9.4530979  
H    1.1624633   -1.1346037  -11.5561741  
H    1.1172012    1.3405580  -12.9623650  
H    0.3480799    4.7530969  -12.4717137  
H   -0.5239355    5.0448055   -9.6023269  
H   -0.4608492    2.9922883   -8.4979759  
H    0.6757362   -2.0053673   -9.2592411  
C    1.8159014   -2.1156535   -5.3336802  
C    0.9337939   -1.6549081   -4.3839079  
C    0.0359167   -0.7660298   -5.0459591  
C    0.4223297   -0.7238309   -6.4100818  
N    1.5073773   -1.5530970   -6.5501063  
C   -0.2444660    0.0542446   -7.3612761  
C   -1.3211418    0.8031324   -6.9275549  
O   -2.0081608    1.5803927   -7.8146199  
C   -1.7216870    0.7745412   -5.5705127  
O   -2.8111769    1.5750117   -5.2955535  
C   -1.0641734    0.0073898   -4.6315339  
H    0.9377498   -1.9252651   -3.3418501  
H    1.9929858   -1.7332278   -7.4101753  
H   -2.7106169    2.0128237   -7.3118039  
H   -3.0163349    1.4981862   -4.3587439  
H    2.6416168   -2.7999470   -5.2393635  
C    1.1319248    0.0015675   -0.8009270  
C    0.7969916    0.0034959   -2.1169404  
C   -0.6453336    0.0035703   -2.1842672  
C   -1.1266831    0.0015415   -0.7896027  
N    0.0000000    0.0000000    0.0000000  
C   -2.4346129    0.0013924   -0.4276297  
C   -3.4350110    0.0031352   -1.4820184  
O   -4.6384610    0.0030897   -1.2583919  
C   -2.9478958    0.0050460   -2.9661075  
O   -3.7809377    0.0062160   -3.8623775  
C   -1.5113821    0.0053068   -3.2312125  
H    1.4821240    0.0045436   -2.9459192  
H   -2.7664565    0.0000185    0.6013447  
H    2.1104318    0.0009428   -0.3488058  
C    2.5311839    2.1237619    3.0120429  
C    1.9795631    1.6616747    1.8395852  
C    0.9223175    0.7739173    2.1983588  
C    0.8753926    0.7337535    3.6154372  
N    1.8668922    1.5631002    4.0777464  
C   -0.0496243   -0.0427881    4.3197917  
C   -0.9437528   -0.7922060    3.5801400  
O   -1.8685244   -1.5680278    4.2172520  
C   -0.9124520   -0.7656372    2.1655264  
O   -1.8671164   -1.5663939    1.5732860  
C    0.0000000    0.0000000    1.4700000  
H    2.3005065    1.9304404    0.8477417  
H    2.0679347    1.7444845    5.0445261  
H   -0.0904770   -0.0778569    5.3997470  
H   -2.3849669   -2.0011402    3.5251786  
H   -1.7775064   -1.4909735    0.6183591  
H    3.3468514    2.8078103    3.1724291  
