64

C   -0.5599406    0.0937521   -8.7060545  
C    0.1776140   -0.5547780   -9.6693247  
C   -0.3453860   -0.1538001  -10.9343502  
C   -1.4096458    0.7481116  -10.6777709  
N   -1.5143468    0.8746880   -9.3148216  
C   -2.1570947    1.3455115  -11.6971943  
C   -1.8239164    1.0268627  -12.9993593  
O   -2.5210528    1.5820338  -14.0331866  
C   -0.7655695    0.1288458  -13.2755540  
O   -0.5568681   -0.0870122  -14.6221036  
C   -0.0279425   -0.4610862  -12.2703621  
H    0.9916517   -1.2342317   -9.4831043  
H   -2.1758534    1.4581448   -8.8352724  
H   -2.9695158    2.0336055  -11.5082471  
H   -2.1320691    1.2306624  -14.8446635  
H    0.1741700   -0.7045250  -14.7214263  
H    0.7769025   -1.1452086  -12.5125998  
C    2.1798964   -2.1221799   -5.9542194  
C    1.5460051   -1.6229247   -7.0683974  
C    0.5185213   -0.7482577   -6.6059748  
C    0.5740703   -0.7535762   -5.1886487  
N    1.5926022   -1.5994965   -4.8258419  
C   -0.2963293   -0.0005341   -4.3948471  
C   -1.2397987    0.7721841   -5.0436536  
O   -2.1143392    1.5272221   -4.3169415  
C   -1.3112054    0.7904348   -6.4569424  
O   -2.3047783    1.6091616   -6.9527679  
C   -0.4530328    0.0475827   -7.2406751  
H    1.7929871   -1.8608392   -8.0888834  
H    1.8756082   -1.7961380   -3.8828567  
H   -2.6787920    1.9818132   -4.9556939  
H   -2.2847552    1.5640944   -7.9135858  
H    3.0035531   -2.8108673   -5.8751165  
C    3.1301146   -0.0010313   -1.7028256  
C    2.5367765   -0.0002766   -0.4864669  
C    1.1089901    0.0001027   -0.7656184  
C    1.0177865   -0.0004150   -2.2415133  
N    2.1993571   -0.0011612   -2.7963824  
C   -0.2459219   -0.0002879   -2.9257116  
C   -1.3675326   -0.0000606   -2.1698520  
O   -2.6129318    0.0000865   -2.6748483  
C   -1.3083588    0.0000910   -0.6783229  
O   -2.3693264    0.0004206   -0.0541685  
C    0.0000000    0.0000000    0.0000000  
H    3.0096016   -0.0001007    0.4807518  
H   -3.1967444    0.0002093   -1.8949026  
H    4.1849275   -0.0015114   -1.9271979  
C    2.5311839    2.1237619    3.0120429  
C    1.9795631    1.6616747    1.8395852  
C    0.9223175    0.7739173    2.1983588  
C    0.8753926    0.7337535    3.6154372  
N    1.8668922    1.5631002    4.0777464  
C   -0.0496243   -0.0427881    4.3197917  
C   -0.9437528   -0.7922060    3.5801400  
O   -1.8685244   -1.5680278    4.2172520  
C   -0.9124520   -0.7656372    2.1655264  
O   -1.8671164   -1.5663939    1.5732860  
C    0.0000000    0.0000000    1.4700000  
H    2.3005065    1.9304404    0.8477417  
H    2.0679347    1.7444845    5.0445261  
H   -0.0904770   -0.0778569    5.3997470  
H   -2.3849669   -2.0011402    3.5251786  
H   -1.7775064   -1.4909735    0.6183591  
H    3.3468514    2.8078103    3.1724291  
