62

C    7.6844310   -0.9854968   -4.1781229  
C    6.8282324    0.0896178   -4.2374497  
C    7.6166627    1.2321642   -4.5654222  
C    8.9577922    0.7889935   -4.6954130  
N    8.9639040   -0.5620476   -4.4519631  
C   10.0114566    1.6507279   -5.0147739  
C    9.7056439    2.9840772   -5.2067002  
O   10.6963647    3.8688728   -5.5207419  
C    8.3736783    3.4454780   -5.0810336  
O    8.2314165    4.7998460   -5.3019249  
C    7.3337524    2.5959685   -4.7657333  
H    9.7744833   -1.1536462   -4.4828257  
H   11.0357789    1.3192330   -5.1151642  
H   10.2729654    4.7326509   -5.6095359  
H    7.3028759    5.0291185   -5.1977623  
H    6.3237050    2.9783910   -4.6760927  
H    7.4838930   -2.0206222   -3.9607320  
C    4.3984119   -2.1246588   -1.2791004  
C    3.1669348   -1.6622720   -1.6817537  
C    3.3926768   -0.7743696   -2.7750378  
C    4.7931430   -0.7344303   -2.9964543  
N    5.3741074   -1.5640446   -2.0697194  
C    5.3781196    0.0421739   -4.0011813  
C    4.5339318    0.7918860   -4.7970809  
O    5.0522108    1.5677814   -5.7932673  
C    3.1339865    0.7655444   -4.5914709  
O    2.4286235    1.5665829   -5.4656243  
C    2.5562217   -0.0001543   -3.6003001  
H    2.2222228   -1.9309361   -1.2409228  
H    6.3582720   -1.7456270   -1.9895380  
H    4.3017817    2.0011078   -6.2202927  
H    1.4920370    1.4913025   -5.2588809  
H    4.6580916   -2.8088909   -0.4895741  
C    0.0000000    0.0000000    0.0000000  
C    1.0541688   -0.0001719   -0.8560391  
C    0.5103141   -0.0000449   -2.1935955  
C   -0.9576367    0.0002461   -2.0455733  
N   -1.2018459   -0.0001392   -0.6915970  
C   -1.8348306    0.0008319   -3.0810611  
C   -1.2972842    0.0009739   -4.4314605  
O   -2.0050664    0.0014267   -5.4301321  
C    0.2542628    0.0004190   -4.6117571  
O    0.7184677    0.0002263   -5.7439119  
C    1.0974556    0.0000880   -3.4189127  
H    2.0940752   -0.0005479   -0.5817978  
H   -2.9081050    0.0011669   -2.9507065  
H   -2.1128195    0.0014911   -0.2706793  
C    3.2798086   -0.0005857    2.9199648  
C    2.5571146   -0.0005566    4.0696553  
C    1.1637436   -0.0001548    3.6910360  
C    1.1336965    0.0000200    2.2159470  
N    2.4483514    0.0001428    1.8102719  
C    0.0000000    0.0000000    1.4700000  
C   -1.2757367    0.0000186    2.1664417  
O   -2.3524596    0.0000640    1.5842315  
C   -1.2676493    0.0000873    3.7284083  
O   -2.3355761    0.0004100    4.3257297  
C    0.0181563   -0.0001760    4.4216297  
H    2.9547357   -0.0006076    5.0689105  
H    0.0150794   -0.0003319    5.5031631  
H    4.3498549   -0.0008612    2.7900019  
H    2.7563627   -0.0012824    0.8551938  
