60

C    5.1654335   -2.9151228   -7.1130805  
C    6.1461490   -2.4457469   -7.9559041  
C    5.9068159   -1.0513405   -8.1374260  
C    4.7570123   -0.7235841   -7.3742384  
N    4.3308715   -1.8784298   -6.7664951  
C    4.2303297    0.5703295   -7.3178294  
C    4.8763097    1.5513057   -8.0448601  
O    4.4044853    2.8319312   -8.0250025  
C    6.0246816    1.2438387   -8.8126633  
O    6.5536248    2.3289317   -9.4805963  
C    6.5446612   -0.0324743   -8.8689915  
H    6.9361446   -3.0360175   -8.3877379  
H    3.5404209   -1.9532743   -6.1520294  
H    4.9927672    3.3484649   -8.5910264  
H    7.3254332    2.0354699   -9.9743520  
H    7.4255211   -0.2378386   -9.4659755  
H    4.9943772   -3.9076679   -6.7328815  
C    2.8912669   -0.6998115   -3.3332351  
C    1.7334695    0.0049281   -3.2500363  
C    1.6041102    0.7488995   -4.4807305  
C    2.7899385    0.4174236   -5.2935812  
N    3.5303612   -0.4649349   -4.5411803  
C    3.0393026    0.9187046   -6.5298013  
C    2.0755510    1.8468028   -7.0975619  
O    2.2101249    2.3528611   -8.2039503  
C    0.8125767    2.2121885   -6.2542380  
O   -0.0056406    2.9927353   -6.7217081  
C    0.6534234    1.6072169   -4.9341882  
H   -0.2239001    1.8652504   -4.3567402  
H    3.3315067   -1.3708305   -2.6136436  
H    4.3999325   -0.8765954   -4.8265370  
C    1.1319246    0.0015678   -0.8009268  
C    0.7969914    0.0034958   -2.1169401  
C   -0.6453340    0.0035696   -2.1842669  
C   -1.1266832    0.0015410   -0.7896025  
N    0.0000000    0.0000000    0.0000000  
C   -2.4346129    0.0013913   -0.4276292  
C   -3.4350111    0.0031335   -1.4820181  
O   -4.6384614    0.0030875   -1.2583914  
C   -2.9478961    0.0050442   -2.9661074  
O   -3.7809382    0.0062135   -3.8623773  
C   -1.5113825    0.0053055   -3.2312122  
H   -2.7664565    0.0000174    0.6013448  
H   -1.1823533    0.0068381   -4.2614848  
H    2.1104316    0.0009435   -0.3488059  
C    2.4951002    2.0940188    2.9809380  
C    1.9440701    1.6314916    1.8291961  
C    0.8759964    0.7350050    2.2038498  
C    0.8497377    0.7130254    3.6788474  
N    1.8560616    1.5571714    4.0882609  
C   -0.0205033   -0.0168748    4.4215661  
C   -0.9962600   -0.8356168    3.7214979  
O   -1.8224391   -1.5286685    4.3006425  
C   -0.9864710   -0.8277881    2.1595606  
O   -1.8030528   -1.5133726    1.5592035  
C    0.0000000    0.0000000    1.4700000  
H    2.2509283    1.8888011    0.8310761  
H   -0.0229599   -0.0187323    5.5027230  
H    3.3143982    2.7817323    3.1139444  
H    2.0889452    1.7545833    5.0442112  
