64

C   10.0078040    0.7105087   -1.3534685  
C   11.2812900    0.4597211   -0.8976081  
C   11.1610401   -0.4504257    0.1940754  
C    9.7786678   -0.7218187    0.3593618  
N    9.1065568    0.0005777   -0.5951151  
C    9.2897080   -1.5825819    1.3466782  
C   10.2130875   -2.1804993    2.1821675  
O    9.7901338   -3.0300715    3.1631624  
C   11.5964951   -1.9219964    2.0332447  
O   12.3883274   -2.5928583    2.9422507  
C   12.0795589   -1.0727346    1.0596279  
H   12.1855877    0.8818056   -1.3014454  
H    8.2373309   -1.7934726    1.4779381  
H   10.5837883   -3.3316832    3.6240410  
H   13.3071387   -2.3632348    2.7729519  
H   13.1446662   -0.8939544    0.9698393  
H    9.6709534    1.3407342   -2.1586424  
C    6.7690609    0.0043647   -4.2725590  
C    5.4996712    0.0030999   -3.8032753  
C    5.6352799    0.0013796   -2.3547909  
C    7.0947608    0.0017600   -2.1170947  
N    7.7645145    0.0035882   -3.2375481  
C    7.6497401    0.0004305   -0.7915448  
C    6.7859647   -0.0008157    0.2492361  
O    7.1644553   -0.0021417    1.5387257  
C    5.3077380   -0.0008593    0.0418539  
O    4.5810514   -0.0021559    1.0354059  
C    4.7630507    0.0004755   -1.3275395  
H    4.5843345    0.0033991   -4.3700508  
H    6.3302583   -0.0027812    2.0419828  
H    7.0973395    0.0058203   -5.2997909  
C    3.3003548    0.0005276   -1.4738982  
C    2.5232817    0.0003497   -2.6090743  
C    1.1623204   -0.0001319   -2.1820101  
C    1.1711886    0.0000583   -0.7636140  
N    2.4852302   -0.0014919   -0.3662356  
C    0.0000000    0.0000000    0.0000000  
C   -1.2020379    0.0000520   -0.6806479  
O   -2.3759249    0.0003495    0.0157742  
C   -1.2314652   -0.0005112   -2.0955511  
O   -2.5054384   -0.0008036   -2.6250184  
C   -0.0764510   -0.0007271   -2.8495195  
H    2.8919962   -0.0005619   -3.6205297  
H    2.8036267    0.0088181    0.5858667  
H   -3.0835636    0.0000348   -0.6418823  
H   -2.4360038   -0.0011526   -3.5845925  
H   -0.1304090   -0.0013420   -3.9319089  
C    2.5285572    2.1210227    2.9438989  
C    1.9331703    1.6216660    4.0790748  
C    0.8903039    0.7472258    3.6520102  
C    0.8972198    0.7527806    2.2336141  
N    1.9028376    1.5986179    1.8362361  
C    0.0000000    0.0000000    1.4700000  
C   -0.9207814   -0.7726952    2.1506477  
O   -1.8198395   -1.5274828    1.4542253  
C   -0.9436862   -0.7911793    3.5655508  
O   -1.9197945   -1.6098497    4.0950179  
C   -0.0590329   -0.0485852    4.3195194  
H    2.2150357    1.8593692    5.0905303  
H    2.1533708    1.7953814    0.8841339  
H   -2.3621246   -1.9821033    2.1118817  
H   -1.8668290   -1.5649508    5.0545920  
H   -0.1007624   -0.0827977    5.4019087  
H    3.3491200    2.8096064    2.8367138  
