62

C    1.0653844   -1.1380008   -9.5136534  
C    1.4305314   -0.7344833  -10.7771057  
C    1.1828383    0.6681302  -10.8540682  
C    0.6626583    1.0685283   -9.5966817  
N    0.6025506   -0.0527793   -8.8069521  
C    0.3043553    2.3897596   -9.3125048  
C    0.4745510    3.3238619  -10.3158314  
O    0.1410773    4.6283327  -10.0918609  
C    0.9917365    2.9437328  -11.5771161  
O    1.1013094    3.9889714  -12.4708798  
C    1.3451679    1.6404394  -11.8582536  
H    1.8256609   -1.3727775  -11.5487575  
H   -0.0927809    2.7013284   -8.3562575  
H    0.3353262    5.1041345  -10.9098738  
H    1.4580277    3.6471268  -13.2964087  
H    1.7385516    1.3791778  -12.8336871  
H    1.0971315   -2.1143197   -9.0611581  
C    1.8836768   -2.1362880   -5.0810765  
C    1.8358578   -1.7275857   -6.3703609  
C    0.7030361   -0.8169587   -6.4333932  
C    0.1677634   -0.7920097   -5.0551900  
N    0.8558147   -1.5634005   -4.2579876  
C   -0.9736297    0.0040464   -4.6965763  
C   -1.5536727    0.7419469   -5.6704285  
O   -2.6247574    1.5303573   -5.4774855  
C   -1.0366298    0.7382179   -7.0707189  
O   -1.6142404    1.4340383   -7.9058360  
C    0.1355200   -0.0866894   -7.4135270  
H    2.4887436   -2.0092001   -7.1787606  
H   -2.8038822    1.9233565   -6.3507661  
H    2.5838919   -2.8188168   -4.6262943  
C    1.1188642    0.0008222   -0.8003808  
C    0.0000000    0.0000000    0.0000000  
C   -1.1323862    0.0008899   -0.8673528  
C   -0.6382663    0.0019679   -2.1969280  
N    0.7324016    0.0038481   -2.1202242  
C   -1.4770914    0.0027318   -3.3154808  
C   -2.8395473    0.0020945   -3.0876857  
O   -3.7039201    0.0024425   -4.1440349  
C   -3.3517868    0.0013931   -1.7684331  
O   -4.7300497    0.0012366   -1.7073121  
C   -2.5248543    0.0009123   -0.6644817  
H    1.3576314   -0.0056167   -2.9057046  
H   -4.5940032    0.0021826   -3.7685128  
H   -4.9934602    0.0007259   -0.7819913  
H   -2.9462577    0.0005603    0.3339659  
H    2.1619895    0.0009355   -0.5342068  
C    0.8400945    0.7047457    2.2710304  
C    0.0000000    0.0000000    1.4700000  
C   -0.8844236   -0.7423113    2.3369512  
C   -0.4878984   -0.4098547    3.7186280  
N    0.5629682    0.4714286    3.6095011  
C   -1.0836927   -0.9095027    4.8308716  
C   -2.1891196   -1.8367527    4.6554461  
O   -2.7906899   -2.3413415    5.5944904  
C   -2.6257283   -2.2031529    3.2011665  
O   -3.5549479   -2.9829990    3.0410059  
C   -1.9068976   -1.5999348    2.0816745  
H   -0.7774656   -0.6525820    5.8354244  
H   -2.2155208   -1.8586617    1.0779135  
H    1.6384792    1.3747609    1.9961646  
H    1.0518368    0.8833920    4.3830260  
