62

C    6.8150906   -1.8299121   -1.9523207  
C    7.4985960   -2.6369296   -1.0725421  
C    8.8829922   -2.5301678   -1.3991131  
C    8.9842145   -1.6361304   -2.4956428  
N    7.7101676   -1.2310656   -2.8076388  
C   10.2063249   -1.2946493   -3.0826930  
C   11.3470583   -1.8658678   -2.5529613  
O   12.5666666   -1.5667288   -3.0878290  
C   11.2664850   -2.7604349   -1.4593094  
O   12.4903379   -3.2453002   -1.0464739  
C   10.0611590   -3.0979768   -0.8798442  
H    7.0539634   -3.2305048   -0.2921801  
H    7.4688013   -0.5860012   -3.5381286  
H   10.2901916   -0.6140057   -3.9186913  
H   13.2182544   -2.0650179   -2.5775286  
H   12.3469396   -3.8413420   -0.3050058  
H   10.0307285   -3.7861907   -0.0432358  
C    4.3984119   -2.1246590   -1.2791005  
C    3.1669350   -1.6622720   -1.6817537  
C    3.3926768   -0.7743698   -2.7750379  
C    4.7931430   -0.7344307   -2.9964545  
N    5.3741073   -1.5640449   -2.0697197  
C    5.3781201    0.0421735   -4.0011817  
C    4.5339318    0.7918858   -4.7970810  
O    5.0522108    1.5677814   -5.7932680  
C    3.1339865    0.7655444   -4.5914709  
O    2.4286235    1.5665832   -5.4656247  
C    2.5562217   -0.0001543   -3.6003001  
H    2.2222233   -1.9309361   -1.2409228  
H    6.4447877    0.0770722   -4.1749749  
H    4.3017817    2.0011076   -6.2202929  
H    1.4920373    1.4913025   -5.2588810  
H    4.6580916   -2.8088914   -0.4895739  
C    0.0000000    0.0000000    0.0000000  
C    1.0541688   -0.0001719   -0.8560391  
C    0.5103141   -0.0000449   -2.1935955  
C   -0.9576367    0.0002461   -2.0455733  
N   -1.2018459   -0.0001392   -0.6915970  
C   -1.8348306    0.0008319   -3.0810611  
C   -1.2972842    0.0009739   -4.4314605  
O   -2.0050664    0.0014267   -5.4301321  
C    0.2542628    0.0004190   -4.6117571  
O    0.7184677    0.0002263   -5.7439119  
C    1.0974556    0.0000880   -3.4189127  
H    2.0940752   -0.0005479   -0.5817978  
H   -2.9081050    0.0011669   -2.9507065  
H   -2.1128195    0.0014911   -0.2706793  
C    0.0000000    0.0000000    1.4700000  
C    1.0541688    0.0001722    2.3260392  
C    0.5103138    0.0000454    3.6635956  
C   -0.9576371   -0.0002459    3.5155732  
N   -1.2018458    0.0001392    2.1615969  
C   -1.8348311   -0.0008317    4.5510609  
C   -1.2972847   -0.0009736    5.9014604  
O   -2.0050672   -0.0014265    6.9001319  
C    0.2542623   -0.0004184    6.0817573  
O    0.7184670   -0.0002256    7.2139121  
C    1.0974552   -0.0000873    4.8889129  
H    2.0940752    0.0005483    2.0517982  
H   -2.9081052   -0.0011668    4.4207061  
H    2.1707277    0.0000911    5.0223670  
H   -2.1128194   -0.0014912    1.7406791  
