62

C    3.2373648   -0.7019581   -6.1757785  
C    4.5898571   -0.4514240   -6.1542063  
C    4.8619515    0.4576013   -7.2192124  
C    3.6264015    0.7286031   -7.8610077  
N    2.6610651    0.0070608   -7.2036498  
C    3.5166399    1.5882902   -8.9581307  
C    4.6752190    2.1855145   -9.4155109  
O    4.6250078    3.0340276  -10.4834613  
C    5.9175034    1.9273863   -8.7886801  
O    6.9788654    2.5974594   -9.3612662  
C    6.0265718    1.0791859   -7.7064665  
H    5.2939186   -0.8729541   -5.4573544  
H    2.5779496    1.7988779   -9.4518058  
H    5.5301854    3.3353028  -10.6356176  
H    7.7791476    2.3681561   -8.8790083  
H    6.9917884    0.9006692   -7.2471560  
H    2.6384092   -1.3314258   -5.5401838  
C   -0.9736295    0.0040466   -4.6965763  
C    0.3099700    0.0046193   -5.1397994  
C    0.2571079    0.0059529   -6.5827266  
C   -1.1727592    0.0061406   -6.9464165  
N   -1.8659233    0.0045496   -5.7579676  
C   -1.6422562    0.0076695   -8.2197097  
C   -0.6747200    0.0090086   -9.3043333  
O   -0.9976613    0.0103683  -10.4850139  
C    0.8447408    0.0085841   -8.9423346  
O    1.6686238    0.0093945   -9.8470312  
C    1.2283999    0.0071698   -7.5328468  
H    1.1930590    0.0039775   -4.5259859  
H   -2.6952653    0.0079092   -8.4648251  
H   -2.8659633    0.0058213   -5.6745059  
C    1.1188642    0.0008216   -0.8003808  
C    0.0000000    0.0000000    0.0000000  
C   -1.1323861    0.0008904   -0.8673528  
C   -0.6382661    0.0019681   -2.1969280  
N    0.7324017    0.0038477   -2.1202241  
C   -1.4770913    0.0027323   -3.3154808  
C   -2.8395472    0.0020956   -3.0876858  
O   -3.7039201    0.0024441   -4.1440350  
C   -3.3517867    0.0013945   -1.7684332  
O   -4.7300494    0.0012387   -1.7073122  
C   -2.5248543    0.0009134   -0.6644817  
H    1.3576316   -0.0056175   -2.9057045  
H   -4.5940031    0.0021847   -3.7685129  
H   -4.9934602    0.0007284   -0.7819915  
H   -2.9462576    0.0005617    0.3339659  
H    2.1619896    0.0009343   -0.5342067  
C    0.8175213    0.6860729    2.3021913  
C    0.0000000    0.0000000    1.4700000  
C   -0.8887526   -0.7456559    2.3478473  
C   -0.4549825   -0.3816753    3.7138435  
N    0.5448156    0.4573574    3.6934124  
C   -1.0945674   -0.9182058    4.8835240  
C   -2.1210866   -1.7789155    4.6970523  
O   -2.8083856   -2.3554314    5.6976972  
C   -2.5824069   -2.1655116    3.3310774  
O   -3.5227682   -2.9541547    3.2362962  
C   -1.9100805   -1.6015804    2.1470656  
H   -0.7567140   -0.6349833    5.8697035  
H   -3.4728268   -2.9124471    5.2533954  
H   -2.2742832   -1.9066565    1.1752040  
H    1.6189533    1.3585343    2.0405121  
