60

C    1.3818833   -0.0017554   -7.7891201  
C    0.2668244   -0.0011602   -6.9834458  
C   -0.8696590   -0.0018147   -7.8454230  
C   -0.3818455   -0.0030962   -9.1773247  
N    0.9891703   -0.0010750   -9.1071206  
C   -1.2259621   -0.0043218  -10.2918900  
C   -2.5873235   -0.0045594  -10.0576392  
O   -3.4566929   -0.0060904  -11.1098794  
C   -3.0933047   -0.0029198   -8.7359751  
O   -4.4712631   -0.0029725   -8.6683232  
C   -2.2611505   -0.0014370   -7.6359556  
H    0.2719264    0.0007517   -5.9068941  
H    1.6106710   -0.0119325   -9.8955369  
H   -0.8604462   -0.0051577  -11.3095341  
H   -4.3449863   -0.0056865  -10.7301434  
H   -4.7302857   -0.0018406   -7.7417652  
H   -2.6778177   -0.0000174   -6.6355236  
C    3.2973507   -0.0000930   -3.8752373  
C    4.6109359    0.0001678   -4.2009256  
C    4.6367192   -0.0000875   -5.6555166  
C    3.2125791   -0.0006167   -6.0535225  
N    2.4227565   -0.0005416   -5.0142106  
C    2.8079496   -0.0009504   -7.4324213  
C    3.7817669   -0.0003747   -8.3710449  
O    3.5485409   -0.0006029   -9.6945421  
C    5.2278966    0.0005392   -8.0010877  
O    6.0602351    0.0009033   -8.9079689  
C    5.6174383    0.0008222   -6.5797568  
H    5.4578080    0.0005837   -3.5361827  
H    4.4333804   -0.0000282  -10.1022325  
H    6.6752631    0.0016047   -6.3534027  
C    3.3321175    0.0004715   -1.3379331  
C    2.6974186    0.0000117   -2.5332308  
C    1.2800441   -0.0002117   -2.2052838  
C    1.2395036    0.0000644   -0.7271292  
N    2.4394065    0.0005460   -0.2131033  
C    0.0000000    0.0000000    0.0000000  
C   -1.1468701    0.0000635   -0.7169542  
O   -2.3742199    0.0000073   -0.1695491  
C   -1.1388766    0.0001607   -2.2096354  
O   -2.2206227    0.0000905   -2.7970412  
C    0.1454526    0.0001817   -2.9324239  
H   -2.9844344    0.0001026   -0.9290168  
H    0.1083579    0.0003683   -4.0135594  
H    4.3940038    0.0007619   -1.1498630  
C    0.8681109    0.7263879    2.2709268  
C    0.6127770    0.5096195    3.5869401  
C   -0.4920590   -0.4175482    3.6542670  
C   -0.8620974   -0.7254003    2.2596025  
N    0.0000000    0.0000000    1.4700000  
C   -1.8641242   -1.5660088    1.8976294  
C   -2.6293522   -2.2103885    2.9520183  
O   -3.5512764   -2.9839180    2.7283916  
C   -2.2549728   -1.8987399    4.4361073  
O   -2.8923672   -2.4351063    5.3323774  
C   -1.1543735   -0.9755647    4.7012123  
H    1.1382914    0.9492124    4.4159191  
H   -2.1192137   -1.7782617    0.8686553  
H   -0.9013378   -0.7652422    5.7314848  
H    1.6172880    1.3558399    1.8188057  
