62

C    2.1805177   -2.1229470   -8.3127007  
C    3.1730104   -2.9734033   -8.7418281  
C    3.1198344   -2.9897615  -10.1671372  
C    2.0662388   -2.1226033  -10.5543060  
N    1.5157339   -1.6144302   -9.4039493  
C    1.7269267   -1.8947899  -11.8913764  
C    2.4648494   -2.5541485  -12.8551686  
O    2.1761233   -2.3675969  -14.1760957  
C    3.5196006   -3.4236380  -12.4886926  
O    4.1591212   -4.0056552  -13.5636874  
C    3.8547190   -3.6490639  -11.1698280  
H    3.8511124   -3.5161732   -8.1057682  
H    0.7544635   -0.9610728   -9.3642985  
H    0.9249494   -1.2352077  -12.1930145  
H    2.8008982   -2.9127685  -14.6717873  
H    4.8571330   -4.5771492  -13.2293546  
H    4.6675739   -4.3207459  -10.9196517  
C    2.3338140   -2.1434185   -5.7798759  
C    1.7883285   -1.7365456   -6.9496968  
C    0.7199254   -0.8256239   -6.5685991  
C    0.7626765   -0.7985193   -5.0907552  
N    1.7067549   -1.5690025   -4.6227165  
C   -0.1496415   -0.0015615   -4.3176961  
C   -1.0628926    0.7351416   -4.9904329  
O   -1.9748537    1.5241930   -4.3973345  
C   -1.1310326    0.7292320   -6.4815681  
O   -1.9880863    1.4240530   -7.0273731  
C   -0.1842255   -0.0965648   -7.2519836  
H   -2.4795473    1.9160027   -5.1328085  
H   -0.2663196   -0.0731955   -8.3303828  
H    3.1559294   -2.8255340   -5.6321681  
C    3.3003543    0.0005276   -1.4738987  
C    2.5232814    0.0003497   -2.6090747  
C    1.1623200   -0.0001320   -2.1820103  
C    1.1711883    0.0000582   -0.7636140  
N    2.4852300   -0.0014919   -0.3662360  
C    0.0000000    0.0000000    0.0000000  
C   -1.2020384    0.0000519   -0.6806477  
O   -2.3759249    0.0003493    0.0157743  
C   -1.2314656   -0.0005115   -2.0955510  
O   -2.5054392   -0.0008039   -2.6250180  
C   -0.0764516   -0.0007274   -2.8495195  
H    2.8919955   -0.0005620   -3.6205304  
H    2.8036267    0.0088183    0.5858662  
H   -3.0835638    0.0000347   -0.6418818  
H   -2.4360047   -0.0011529   -3.5845921  
H    4.3715549    0.0004895   -1.3667136  
C    2.4951002    2.0940188    2.9809380  
C    1.9440701    1.6314916    1.8291961  
C    0.8759964    0.7350050    2.2038498  
C    0.8497377    0.7130254    3.6788474  
N    1.8560616    1.5571714    4.0882609  
C   -0.0205033   -0.0168748    4.4215661  
C   -0.9962600   -0.8356168    3.7214979  
O   -1.8224391   -1.5286685    4.3006425  
C   -0.9864710   -0.8277881    2.1595606  
O   -1.8030528   -1.5133726    1.5592035  
C    0.0000000    0.0000000    1.4700000  
H    2.2509283    1.8888011    0.8310761  
H   -0.0229599   -0.0187323    5.5027230  
H    3.3143982    2.7817323    3.1139444  
H    2.0889452    1.7545833    5.0442112  
