60

C    1.9570476   -2.3776904   -7.1983730  
C    1.5273205   -1.0743991   -7.2944628  
C    2.3309569   -0.4433161   -8.2897028  
C    3.2412794   -1.4192941   -8.7700198  
N    2.9883890   -2.5817715   -8.0849582  
C    4.1878344   -1.1471620   -9.7623758  
C    4.2157322    0.1334624  -10.2794836  
O    5.1198065    0.4532746  -11.2507622  
C    3.3158843    1.1210949   -9.8129305  
O    3.4693334    2.3472178  -10.4264600  
C    2.3820023    0.8534102   -8.8337800  
H    3.4714839   -3.4515353   -8.2195382  
H    4.8845268   -1.8865628  -10.1326568  
H    4.9708959    1.3829810  -11.4669474  
H    2.8243523    2.9563881  -10.0542841  
H    1.7059506    1.6303168   -8.4963655  
H    1.6104266   -3.1774468   -6.5665482  
C    0.2055739   -0.7043961   -5.1603477  
C   -0.8712826    0.0001710   -4.7267111  
C   -1.3726447    0.7423359   -5.8592582  
C   -0.4933186    0.4099880   -6.9964127  
N    0.4429027   -0.4710987   -6.5064483  
C   -0.6357679    0.9095500   -8.2501475  
C   -1.7278971    1.8365864   -8.4958969  
O   -1.9397498    2.3410839   -9.5908402  
C   -2.6713156    2.2028686   -7.3061054  
O   -3.5940525    2.9825347   -7.5008830  
C   -2.4172088    1.5997595   -6.0001417  
H    0.0202134    0.6527119   -9.0702891  
H   -3.0751241    1.8584032   -5.1816215  
H    0.8458871   -1.3742666   -4.6097462  
C    1.0965514    0.0001359   -0.8010305  
C    0.0000000    0.0000000    0.0000000  
C   -1.1546563    0.0001470   -0.8669513  
C   -0.6372014    0.0003519   -2.2486282  
N    0.7342871    0.0007337   -2.1395014  
C   -1.4147739    0.0001352   -3.3608717  
C   -2.8576049   -0.0001048   -3.1854462  
O   -3.6427779   -0.0002494   -4.1244907  
C   -3.4275840   -0.0000725   -1.7311666  
O   -4.6406831    0.0000333   -1.5710060  
C   -2.4891867   -0.0001091   -0.6116744  
H   -2.8919122   -0.0002918    0.3920866  
H    2.1388272    0.0000663   -0.5261648  
H    1.3735872   -0.0006099   -2.9130262  
C    0.0000000    0.0000000    1.4700000  
C    1.0541688    0.0001722    2.3260392  
C    0.5103138    0.0000454    3.6635956  
C   -0.9576371   -0.0002459    3.5155732  
N   -1.2018458    0.0001392    2.1615969  
C   -1.8348311   -0.0008317    4.5510609  
C   -1.2972847   -0.0009736    5.9014604  
O   -2.0050672   -0.0014265    6.9001319  
C    0.2542623   -0.0004184    6.0817573  
O    0.7184670   -0.0002256    7.2139121  
C    1.0974552   -0.0000873    4.8889129  
H    2.0940752    0.0005483    2.0517982  
H   -2.9081052   -0.0011668    4.4207061  
H    2.1707277    0.0000911    5.0223670  
H   -2.1128194   -0.0014912    1.7406791  
