64

C    5.0703129   -4.3486167   -3.6720080  
C    4.0550788   -3.5159161   -4.0823456  
C    4.0327229   -3.5578303   -5.5079487  
C    5.0658018   -4.4405992   -5.9146343  
N    5.6772648   -4.9016194   -4.7752522  
C    5.3342590   -4.7230162   -7.2573776  
C    4.5452624   -4.1032232   -8.2068611  
O    4.7639893   -4.3437283   -9.5325045  
C    3.5099303   -3.2189697   -7.8208570  
O    2.8134414   -2.6810443   -8.8833465  
C    3.2447015   -2.9396840   -6.4964023  
H    3.4106818   -2.9472805   -3.4339645  
H    6.4406590   -5.5531844   -4.7493233  
H    6.1202518   -5.3947648   -7.5738752  
H    4.1129458   -3.8189576  -10.0162634  
H    2.1331460   -2.0960258   -8.5361346  
H    5.4104286   -4.5907192   -2.6797043  
C    2.1601074   -2.0149550   -6.1366351  
C    1.7671251   -1.6323651   -4.8993926  
C    0.6609148   -0.7146343   -5.1242671  
C    0.5173097   -0.6572546   -6.5948688  
N    1.3933529   -1.4175035   -7.1936662  
C   -0.4836753    0.1546046   -7.2304781  
C   -1.3041631    0.8760356   -6.4331879  
O   -2.2822030    1.6762454   -6.8905103  
C   -1.1845240    0.8389688   -4.9457495  
O   -1.9650988    1.5214299   -4.2822957  
C   -0.1496415   -0.0015615   -4.3176961  
H    2.1772049   -1.9355528   -3.9512431  
H   -0.5658887    0.1776593   -8.3073340  
H   -2.6900306    2.0519822   -6.0894787  
C    3.3003543    0.0005276   -1.4738987  
C    2.5232814    0.0003497   -2.6090747  
C    1.1623200   -0.0001320   -2.1820103  
C    1.1711883    0.0000582   -0.7636140  
N    2.4852300   -0.0014919   -0.3662360  
C    0.0000000    0.0000000    0.0000000  
C   -1.2020384    0.0000519   -0.6806477  
O   -2.3759249    0.0003493    0.0157743  
C   -1.2314656   -0.0005115   -2.0955510  
O   -2.5054392   -0.0008039   -2.6250180  
C   -0.0764516   -0.0007274   -2.8495195  
H    2.8919955   -0.0005620   -3.6205304  
H    2.8036267    0.0088183    0.5858662  
H   -3.0835638    0.0000347   -0.6418818  
H   -2.4360047   -0.0011529   -3.5845921  
H    4.3715549    0.0004895   -1.3667136  
C    2.5285572    2.1210227    2.9438989  
C    1.9331703    1.6216660    4.0790748  
C    0.8903039    0.7472258    3.6520102  
C    0.8972198    0.7527806    2.2336141  
N    1.9028376    1.5986179    1.8362361  
C    0.0000000    0.0000000    1.4700000  
C   -0.9207814   -0.7726952    2.1506477  
O   -1.8198395   -1.5274828    1.4542253  
C   -0.9436862   -0.7911793    3.5655508  
O   -1.9197945   -1.6098497    4.0950179  
C   -0.0590329   -0.0485852    4.3195194  
H    2.2150357    1.8593692    5.0905303  
H    2.1533708    1.7953814    0.8841339  
H   -2.3621246   -1.9821033    2.1118817  
H   -1.8668290   -1.5649508    5.0545920  
H   -0.1007624   -0.0827977    5.4019087  
H    3.3491200    2.8096064    2.8367138  
