60

C   -9.1500194    3.2618888   -1.6019092  
C   -7.9996781    2.5554298   -1.8666687  
C   -8.3823135    1.1955540   -2.0639711  
C   -9.7905181    1.1323313   -1.9062106  
N  -10.2245738    2.4038831   -1.6244845  
C  -10.5130129   -0.0579603   -2.0326866  
C   -9.8009968   -1.2052768   -2.3240230  
O  -10.4567572   -2.3947492   -2.4587387  
C   -8.3955930   -1.1625108   -2.4847327  
O   -7.8314224   -2.3882865   -2.7720090  
C   -7.6821512    0.0113406   -2.3598349  
H   -7.0067569    2.9691216   -1.9109362  
H  -11.1804933    2.6704288   -1.4723291  
H  -11.5863181   -0.1128299   -1.9134947  
H   -9.7824934   -3.0571947   -2.6582354  
H   -6.8810020   -2.2713860   -2.8649507  
H   -9.2888498    4.3096659   -1.3973385  
C   -4.4297974    2.1087670   -0.2339398  
C   -5.6380117    1.6447705   -0.6450366  
C   -5.3911869    0.7496345   -1.7507690  
C   -3.9296543    0.7300040   -1.9515853  
N   -3.4052343    1.5747188   -1.0006228  
C   -3.2941076    0.0012878   -2.9038237  
C   -4.1035802   -0.8182213   -3.7902175  
O   -3.6253063   -1.5102279   -4.6794205  
C   -5.6534087   -0.8124879   -3.5957847  
O   -6.3452681   -1.4982638   -4.3362584  
C   -6.2225101    0.0137344   -2.5340254  
H   -6.5931606    1.9005373   -0.2220858  
H   -4.2016945    2.7960862    0.5644657  
H   -2.4284974    1.7712471   -0.8805867  
C    0.0000000    0.0000000    0.0000000  
C    1.0541688   -0.0001723   -0.8560392  
C    0.5103136   -0.0000455   -2.1935956  
C   -0.9576373    0.0002461   -2.0455730  
N   -1.2018460   -0.0001389   -0.6915968  
C   -1.8348314    0.0008319   -3.0810607  
C   -1.2972851    0.0009739   -4.4314603  
O   -2.0050676    0.0014268   -5.4301316  
C    0.2542619    0.0004184   -4.6117572  
O    0.7184666    0.0002257   -5.7439122  
C    1.0974551    0.0000873   -3.4189129  
H    2.0940752   -0.0005484   -0.5817983  
H    2.1707276   -0.0000912   -3.5523673  
H   -2.1128194    0.0014915   -0.2706789  
C    1.1319247   -0.0015655    2.2709268  
C    0.7969915   -0.0034943    3.5869401  
C   -0.6453339   -0.0035710    3.6542670  
C   -1.1266833   -0.0015433    2.2596025  
N    0.0000000    0.0000000    1.4700000  
C   -2.4346130   -0.0013964    1.8976294  
C   -3.4350110   -0.0031408    2.9520183  
O   -4.6384611   -0.0030974    2.7283916  
C   -2.9478959   -0.0050506    4.4361073  
O   -3.7809380   -0.0062218    5.3323774  
C   -1.5113823   -0.0053090    4.7012123  
H    1.4821238   -0.0045407    4.4159191  
H   -2.7664565   -0.0000232    0.8686553  
H   -1.1823530   -0.0068408    5.7314848  
H    2.1104316   -0.0009391    1.8188057  
