60

C    2.2512046   -1.8345386   -7.7940132  
C    3.3372293   -2.6537810   -7.9986074  
C    3.6695747   -2.5666234   -9.3830033  
C    2.7439195   -1.6713972   -9.9776948  
N    1.8955701   -1.2467921   -8.9854105  
C    2.7727219   -1.3464921  -11.3372522  
C    3.7540287   -1.9358179  -12.1104988  
O    3.8279257   -1.6533458  -13.4438264  
C    4.6864023   -2.8318717  -11.5355335  
O    5.6014995   -3.3357837  -12.4366522  
C    4.6584151   -3.1530665  -10.1944234  
H    3.8286885   -3.2427106   -7.2432118  
H    1.1403871   -0.5963859   -9.1064542  
H    2.0700022   -0.6650405  -11.7966121  
H    4.5724027   -2.1624858  -13.7899416  
H    6.1937684   -3.9315249  -11.9677022  
H    5.3856598   -3.8428774   -9.7824117  
C    1.7720688   -2.0859335   -5.3149821  
C    0.8968264   -1.6247192   -4.3847633  
C   -0.0065337   -0.7270827   -5.0652227  
C    0.4171842   -0.7029980   -6.4782596  
N    1.5002594   -1.5471469   -6.5634081  
C   -0.1857664    0.0284587   -7.4494065  
C   -1.3281505    0.8467740   -7.0781196  
O   -1.9388952    1.5411249   -7.8800977  
C   -1.7940047    0.8367265   -5.5872531  
O   -2.7544405    1.5219332   -5.2627299  
C   -1.0641734    0.0073898   -4.6315339  
H    0.8854566   -1.8836207   -3.3409936  
H    0.1408072    0.0318496   -8.4800604  
H    2.5929126   -2.7739331   -5.1934839  
C    1.1319248    0.0015675   -0.8009270  
C    0.7969916    0.0034959   -2.1169404  
C   -0.6453336    0.0035703   -2.1842672  
C   -1.1266831    0.0015415   -0.7896027  
N    0.0000000    0.0000000    0.0000000  
C   -2.4346129    0.0013924   -0.4276297  
C   -3.4350110    0.0031352   -1.4820184  
O   -4.6384610    0.0030897   -1.2583919  
C   -2.9478958    0.0050460   -2.9661075  
O   -3.7809377    0.0062160   -3.8623775  
C   -1.5113821    0.0053068   -3.2312125  
H    1.4821240    0.0045436   -2.9459192  
H   -2.7664565    0.0000185    0.6013447  
H    2.1104318    0.0009428   -0.3488058  
C    0.0000000    0.0000000    1.4700000  
C    1.0662921    0.0000102    2.3034270  
C    0.4961870   -0.0000064    3.6418889  
C   -0.9663858    0.0000850    3.4240247  
N   -1.2632773    0.0000084    2.1528658  
C   -1.8985362    0.0000517    4.5177257  
C   -1.3925775   -0.0004564    5.7720543  
O   -2.1456383   -0.0005410    6.8851312  
C    0.0786232   -0.0009323    6.0245000  
O    0.4683759   -0.0012588    7.1921102  
C    1.0143166   -0.0008442    4.8859032  
H    2.1107198   -0.0000632    2.0421868  
H   -2.9622183    0.0003270    4.3293377  
H   -1.5042274   -0.0009692    7.6184419  
H    2.0724152   -0.0013148    5.1109744  
