60

C    5.1260416   -1.1176569   -6.7080469  
C    6.1330406   -2.0023043   -6.3985001  
C    6.8444192   -2.2628861   -7.6070685  
C    6.2207706   -1.5026091   -8.6293047  
N    5.1799333   -0.8204338   -8.0497265  
C    6.6606143   -1.5151976   -9.9563945  
C    7.7500591   -2.3095208  -10.2569600  
O    8.2211718   -2.3586621  -11.5370585  
C    8.3855189   -3.0755931   -9.2509080  
O    9.4563408   -3.8152998   -9.7086367  
C    7.9519742   -3.0638684   -7.9415464  
H    6.3299046   -2.4105395   -5.4219854  
H    4.5614487   -0.1902363   -8.5275427  
H    6.1895542   -0.9381455  -10.7401780  
H    8.9742586   -2.9636748  -11.5278104  
H    9.8283598   -4.3027569   -8.9672927  
H    8.4587256   -3.6613269   -7.1927311  
C    3.9401648   -0.7297698   -4.5164162  
C    4.0974211   -0.5149786   -5.8480357  
C    3.0659754    0.4122216   -6.2496013  
C    2.2893670    0.7222477   -5.0340555  
N    2.8699641   -0.0020530   -4.0185824  
C    1.2252043    1.5635314   -4.9952707  
C    0.8173919    2.2063959   -6.2333943  
O   -0.1284158    2.9803794   -6.3019339  
C    1.6253388    1.8924359   -7.5328003  
O    1.2911342    2.4275128   -8.5812573  
C    2.7538841    0.9687214   -7.4492032  
H    0.6692919    1.7773861   -4.0929752  
H    3.3082362    0.7567953   -8.3533631  
H    4.5159192   -1.3586233   -3.8569174  
C    3.2573670   -0.0002921   -1.5109382  
C    2.5379468   -0.0001711   -0.3591962  
C    1.1435043    0.0000330   -0.7338498  
C    1.1092608   -0.0000085   -2.2088474  
N    2.4227562    0.0001906   -2.6182610  
C   -0.0265533   -0.0002525   -2.9515663  
C   -1.3003033   -0.0002641   -2.2514979  
O   -2.3786785   -0.0004132   -2.8306425  
C   -1.2877724    0.0000310   -0.6895608  
O   -2.3539956    0.0003306   -0.0892035  
C    0.0000000    0.0000000    0.0000000  
H    2.9384091   -0.0000370    0.6389240  
H   -0.0296290   -0.0004088   -4.0327231  
H    4.3270394   -0.0004767   -1.6439445  
C    0.0000000    0.0000000    1.4700000  
C    1.0662921    0.0000102    2.3034270  
C    0.4961870   -0.0000064    3.6418889  
C   -0.9663858    0.0000850    3.4240247  
N   -1.2632773    0.0000084    2.1528658  
C   -1.8985362    0.0000517    4.5177257  
C   -1.3925775   -0.0004564    5.7720543  
O   -2.1456383   -0.0005410    6.8851312  
C    0.0786232   -0.0009323    6.0245000  
O    0.4683759   -0.0012588    7.1921102  
C    1.0143166   -0.0008442    4.8859032  
H    2.1107198   -0.0000632    2.0421868  
H   -2.9622183    0.0003270    4.3293377  
H   -1.5042274   -0.0009692    7.6184419  
H    2.0724152   -0.0013148    5.1109744  
