60

C    5.6517531    0.7155016   -6.3135822  
C    6.7228594   -0.0028431   -5.8348544  
C    7.2615940   -0.7311614   -6.9366338  
C    6.4714123   -0.4144533   -8.0711978  
N    5.5017552    0.4648709   -7.6574694  
C    6.7159555   -0.9540344   -9.3376260  
C    7.7777070   -1.8290390   -9.4610286  
O    8.0612021   -2.3847187  -10.6750573  
C    8.5774423   -2.1576784   -8.3406558  
O    9.5962764   -3.0432059   -8.6255446  
C    8.3366089   -1.6259566   -7.0909373  
H    4.7995022    0.8738969   -8.2469776  
H    6.1173351   -0.7167883  -10.2062851  
H    8.8283011   -2.9564768  -10.5412037  
H   10.0877346   -3.2120928   -7.8158850  
H    8.9662054   -1.8964891   -6.2513551  
H    4.9820367    1.3857038   -5.8024382  
C    4.5679461   -0.0016854   -2.0086701  
C    5.6245801   -0.0018696   -1.1556757  
C    6.8197131   -0.0025284   -1.9659186  
C    6.3695110   -0.0026849   -3.3709484  
N    4.9943549   -0.0025528   -3.3281076  
C    7.1998311   -0.0028670   -4.4443876  
C    8.6325203   -0.0031378   -4.1995661  
O    9.4620769   -0.0033772   -5.0996411  
C    9.1316831   -0.0032304   -2.7194844  
O   10.3356443   -0.0037644   -2.5009918  
C    8.1403753   -0.0027354   -1.6465625  
H    5.5727016   -0.0017596   -0.0814682  
H    8.4942119   -0.0025976   -0.6245433  
H    4.3931135   -0.0010540   -4.1315711  
C    3.1301149   -0.0010311   -1.7028252  
C    2.5367768   -0.0002767   -0.4864665  
C    1.1089904    0.0001028   -0.7656183  
C    1.0177872   -0.0004148   -2.2415132  
N    2.1993578   -0.0011611   -2.7963820  
C   -0.2459209   -0.0002877   -2.9257118  
C   -1.3675319   -0.0000605   -2.1698524  
O   -2.6129313    0.0000867   -2.6748490  
C   -1.3083584    0.0000910   -0.6783232  
O   -2.3693261    0.0004206   -0.0541692  
C    0.0000000    0.0000000    0.0000000  
H    3.0096017   -0.0001007    0.4807525  
H   -0.2829630   -0.0004687   -4.0053125  
H   -3.1967441    0.0002094   -1.8949034  
C    0.0000000    0.0000000    1.4700000  
C    1.0541688    0.0001722    2.3260392  
C    0.5103138    0.0000454    3.6635956  
C   -0.9576371   -0.0002459    3.5155732  
N   -1.2018458    0.0001392    2.1615969  
C   -1.8348311   -0.0008317    4.5510609  
C   -1.2972847   -0.0009736    5.9014604  
O   -2.0050672   -0.0014265    6.9001319  
C    0.2542623   -0.0004184    6.0817573  
O    0.7184670   -0.0002256    7.2139121  
C    1.0974552   -0.0000873    4.8889129  
H    2.0940752    0.0005483    2.0517982  
H   -2.9081052   -0.0011668    4.4207061  
H    2.1707277    0.0000911    5.0223670  
H   -2.1128194   -0.0014912    1.7406791  
