62

C    9.6433864   -0.7124456   -2.8502855  
C   10.9950021   -0.4623648   -2.9056191  
C   11.2065438    0.4458452   -3.9849727  
C    9.9366694    0.7168402   -4.5558584  
N    9.0099430   -0.0039230   -3.8443149  
C    9.7651342    1.5758225   -5.6455894  
C   10.8960952    2.1723359   -6.1683487  
O   10.7856640    3.0201436   -7.2323227  
C   12.1718472    1.9142025   -5.6127938  
O   13.1992369    2.5835204   -6.2451120  
C   12.3418494    1.0666967   -4.5379173  
H   11.7373177   -0.8836668   -2.2495204  
H    8.8000240    1.7864004   -6.0853849  
H   11.6808493    3.3210026   -7.4357744  
H   14.0255092    2.3542666   -5.8088530  
H   13.3315046    0.8881570   -4.1339567  
H    9.0812438   -1.3412755   -2.1813103  
C    5.5795936   -0.0015221   -1.1027758  
C    4.5679461   -0.0016854   -2.0086701  
C    5.1756903   -0.0023284   -3.3184346  
C    6.6347916   -0.0025573   -3.0997720  
N    6.8134023   -0.0016468   -1.7355920  
C    7.5609148   -0.0035412   -4.0917392  
C    7.0891366   -0.0042082   -5.4664974  
O    7.8442695   -0.0050456   -6.4298633  
C    5.5480930   -0.0037283   -5.7214287  
O    5.1390419   -0.0039759   -6.8746586  
C    4.6483398   -0.0029381   -4.5706482  
H    3.5827546   -0.0028151   -4.7557203  
H    5.5275967   -0.0011044   -0.0261209  
H    7.7030101   -0.0031108   -1.2712192  
C    3.1301149   -0.0010311   -1.7028252  
C    2.5367768   -0.0002767   -0.4864665  
C    1.1089904    0.0001028   -0.7656183  
C    1.0177872   -0.0004148   -2.2415132  
N    2.1993578   -0.0011611   -2.7963820  
C   -0.2459209   -0.0002877   -2.9257118  
C   -1.3675319   -0.0000605   -2.1698524  
O   -2.6129313    0.0000867   -2.6748490  
C   -1.3083584    0.0000910   -0.6783232  
O   -2.3693261    0.0004206   -0.0541692  
C    0.0000000    0.0000000    0.0000000  
H    3.0096017   -0.0001007    0.4807525  
H   -0.2829630   -0.0004687   -4.0053125  
H   -3.1967441    0.0002094   -1.8949034  
C    0.8576279    0.7185626    2.2703808  
C    0.0000000    0.0000000    1.4700000  
C   -0.8668858   -0.7285659    2.3373528  
C   -0.4876752   -0.4117774    3.6669281  
N    0.5635254    0.4678311    3.5902241  
C   -1.1297612   -0.9515493    4.7854808  
C   -2.1738724   -1.8268314    4.5576857  
O   -2.8357962   -2.3827064    5.6140350  
C   -2.5667212   -2.1555554    3.2384331  
O   -3.6226318   -3.0413663    3.1773122  
C   -1.9335634   -1.6236449    2.1344818  
H    1.0363952    0.8769718    4.3757045  
H   -0.8454472   -0.7142436    5.8013813  
H   -3.5178062   -2.9546422    5.2385129  
H   -3.8247440   -3.2102924    2.2519915  
H   -2.2566033   -1.8942483    1.1360343  
H    1.6567807    1.3889844    2.0042067  
