64

C    3.3003551    0.0005273   -1.4738980  
C    2.5232817    0.0003495   -2.6090742  
C    1.1623205   -0.0001322   -2.1820097  
C    1.1711885    0.0000583   -0.7636133  
N    2.4852300   -0.0014918   -0.3662348  
C    0.0000000    0.0000000    0.0000000  
C   -1.2020380    0.0000519   -0.6806476  
O   -2.3759248    0.0003494    0.0157746  
C   -1.2314652   -0.0005116   -2.0955505  
O   -2.5054382   -0.0008041   -2.6250180  
C   -0.0764512   -0.0007276   -2.8495190  
H    2.8919959   -0.0005621   -3.6205292  
H    2.8036266    0.0088182    0.5858668  
H   -3.0835635    0.0000347   -0.6418814  
H   -2.4360042   -0.0011531   -3.5845920  
H    4.3715554    0.0004892   -1.3667125  
C    0.6503163   -0.7058452   -5.1591991  
C   -0.1496408   -0.0015618   -4.3176954  
C   -1.0769611    0.7392926   -5.1399165  
C   -0.7493485    0.4064845   -6.5394519  
N    0.3066322   -0.4735904   -6.4823313  
C   -1.4003392    0.9048513   -7.6209079  
C   -2.4966963    1.8309946   -7.3911364  
O   -3.1448378    2.3343938   -8.2993228  
C   -2.8607656    2.1977437   -5.9171102  
O   -3.7817296    2.9766668   -5.7112824  
C   -2.0864145    1.5959452   -4.8344878  
H   -2.3449678    1.8549049   -3.8167383  
H    1.4621440   -1.3748332   -4.9240819  
H    0.7568416   -0.8854591   -7.2790263  
C   -0.2164627   -2.9291938   -9.4803199  
C   -0.0621448   -2.4613436  -10.7647532  
C   -0.3641795   -1.0675265  -10.7392835  
C   -0.6986979   -0.7385402   -9.4007054  
N   -0.6008270   -1.8921232   -8.6629486  
C   -1.0521078    0.5552085   -9.0056043  
C   -1.0678202    1.5347534   -9.9794745  
O   -1.4053685    2.8151551   -9.6483457  
C   -0.7375146    1.2260436  -11.3205245  
O   -0.7999640    2.3097849  -12.1719639  
C   -0.3890350   -0.0501079  -11.7110682  
H    0.2308794   -3.0522291  -11.6156259  
H   -0.7695874   -1.9658994   -7.6760042  
H   -1.3540782    3.3306235  -10.4637765  
H   -0.5627592    2.0155434  -13.0567005  
H   -0.1411614   -0.2564450  -12.7456991  
H   -0.0841545   -3.9208944   -9.0828485  
C    2.5311839    2.1237619    3.0120429  
C    1.9795631    1.6616747    1.8395852  
C    0.9223175    0.7739173    2.1983588  
C    0.8753926    0.7337535    3.6154372  
N    1.8668922    1.5631002    4.0777464  
C   -0.0496243   -0.0427881    4.3197917  
C   -0.9437528   -0.7922060    3.5801400  
O   -1.8685244   -1.5680278    4.2172520  
C   -0.9124520   -0.7656372    2.1655264  
O   -1.8671164   -1.5663939    1.5732860  
C    0.0000000    0.0000000    1.4700000  
H    2.3005065    1.9304404    0.8477417  
H    2.0679347    1.7444845    5.0445261  
H   -0.0904770   -0.0778569    5.3997470  
H   -2.3849669   -2.0011402    3.5251786  
H   -1.7775064   -1.4909735    0.6183591  
H    3.3468514    2.8078103    3.1724291  
