64

C    6.7404106    0.0795013   -4.4633029  
C    7.7813666   -0.5693641   -3.8405256  
C    8.9785179   -0.1690369   -4.5047289  
C    8.6024037    0.7328415   -5.5328726  
N    7.2364727    0.8600249   -5.4811703  
C    9.5300008    1.3296709   -6.3920282  
C   10.8615684    1.0104754   -6.2097670  
O   11.8092061    1.5650764   -7.0205772  
C   11.2564979    0.1124817   -5.1897398  
O   12.6179803   -0.1039610   -5.1362316  
C   10.3419188   -0.4768876   -4.3419694  
H    7.6890868   -1.2486177   -3.0104100  
H    6.6847300    1.4436073   -6.0836594  
H    9.2497571    2.0177366   -7.1776694  
H   12.6596626    1.2133898   -6.7268001  
H   12.7999158   -0.7214159   -4.4212123  
H   10.6742394   -1.1610070   -3.5699447  
C    4.3849896   -2.1304616   -1.4422212  
C    3.1441137   -1.6666547   -1.8131354  
C    3.3426742   -0.7794830   -2.9122715  
C    4.7370042   -0.7414322   -3.1698019  
N    5.3406529   -1.5714195   -2.2580201  
C    5.2968246    0.0340156   -4.1896401  
C    4.4333179    0.7844918   -4.9637971  
O    4.9266826    1.5593202   -5.9733750  
C    3.0391176    0.7600316   -4.7220874  
O    2.3124335    1.5616242   -5.5780800  
C    2.4861704   -0.0045255   -3.7159919  
H    2.2107611   -1.9339277   -1.3479353  
H    6.3263281   -1.7542341   -2.2032048  
H    4.1660274    1.9934381   -6.3810641  
H    1.3814040    1.4876307   -5.3471836  
H    4.6641026   -2.8147097   -0.6593671  
C    0.0000000    0.0000000    0.0000000  
C    1.0521669   -0.0011848   -0.8862341  
C    0.4917221   -0.0011931   -2.1979130  
C   -0.9187427    0.0003100   -2.0478683  
N   -1.1833170   -0.0009472   -0.7007915  
C   -1.7951698    0.0010259   -3.1372090  
C   -1.2375835    0.0005161   -4.4010425  
O   -2.0474208    0.0015256   -5.4997580  
C    0.1673584   -0.0013557   -4.5711962  
O    0.5673529   -0.0020659   -5.8915551  
C    1.0325773   -0.0023359   -3.4969890  
H    2.0953059   -0.0030542   -0.6200560  
H   -2.0989777    0.0102265   -0.2891825  
H   -2.8710930    0.0020274   -3.0295514  
H   -1.4634881    0.0006427   -6.2693593  
H    1.5290715   -0.0033076   -5.9180042  
C    0.0000000    0.0000000    1.4700000  
C    1.0541688    0.0001722    2.3260392  
C    0.5103138    0.0000454    3.6635956  
C   -0.9576371   -0.0002459    3.5155732  
N   -1.2018458    0.0001392    2.1615969  
C   -1.8348311   -0.0008317    4.5510609  
C   -1.2972847   -0.0009736    5.9014604  
O   -2.0050672   -0.0014265    6.9001319  
C    0.2542623   -0.0004184    6.0817573  
O    0.7184670   -0.0002256    7.2139121  
C    1.0974552   -0.0000873    4.8889129  
H    2.0940752    0.0005483    2.0517982  
H   -2.9081052   -0.0011668    4.4207061  
H    2.1707277    0.0000911    5.0223670  
H   -2.1128194   -0.0014912    1.7406791  
