64

C   -7.5942802   -0.0923315   -2.4980583  
C   -8.4318714    0.5559905   -1.6202268  
C   -9.7625998    0.1554080   -1.9416179  
C   -9.6737503   -0.7460586   -3.0331257  
N   -8.3433787   -0.8727618   -3.3472513  
C  -10.7965527   -1.3429934   -3.6143076  
C  -12.0315232   -1.0243282   -3.0837615  
O  -13.1607738   -1.5790550   -3.6129917  
C  -12.1406688   -0.1267512   -1.9950660  
O  -13.4387473    0.0891846   -1.5806858  
C  -11.0334455    0.4627218   -1.4213917  
H   -8.1219536    1.2350551   -0.8444589  
H   -7.9719324   -1.4559828   -4.0751675  
H  -10.7355603   -2.0307470   -4.4464599  
H  -13.9023205   -1.2277549   -3.1031271  
H  -13.4237824    0.7063820   -0.8428192  
H  -11.1482597    1.1465141   -0.5884908  
C   -4.4516595    2.1220210   -0.2154635  
C   -5.6505107    1.6231919   -0.6697671  
C   -5.3526002    0.7489271   -1.7567400  
C   -3.9437154    0.7540403   -1.9208883  
N   -3.4276993    1.5994574   -0.9703020  
C   -3.2941076    0.0012878   -2.9038237  
C   -4.0810730   -0.7709245   -3.7360201  
O   -3.4983895   -1.5256626   -4.7126798  
C   -5.4884225   -0.7889632   -3.5881685  
O   -6.1319969   -1.6071811   -4.4935277  
C   -6.1299739   -0.0463964   -2.6188736  
H   -6.6205221    1.8611255   -0.2679466  
H   -2.4522686    1.7958519   -0.8363405  
H   -4.2167867   -1.9799191   -5.1718316  
H   -7.0781690   -1.5620009   -4.3252424  
H   -4.2460854    2.8103287    0.5863657  
C    0.0000000    0.0000000    0.0000000  
C    1.0541688   -0.0001723   -0.8560392  
C    0.5103136   -0.0000455   -2.1935956  
C   -0.9576373    0.0002461   -2.0455730  
N   -1.2018460   -0.0001389   -0.6915968  
C   -1.8348314    0.0008319   -3.0810607  
C   -1.2972851    0.0009739   -4.4314603  
O   -2.0050676    0.0014268   -5.4301316  
C    0.2542619    0.0004184   -4.6117572  
O    0.7184666    0.0002257   -5.7439122  
C    1.0974551    0.0000873   -3.4189129  
H    2.0940752   -0.0005484   -0.5817983  
H    2.1707276   -0.0000912   -3.5523673  
H   -2.1128194    0.0014915   -0.2706789  
C    1.1188642   -0.0008217    2.2703808  
C    0.0000000    0.0000000    1.4700000  
C   -1.1323862   -0.0008904    2.3373528  
C   -0.6382662   -0.0019682    3.6669281  
N    0.7324016   -0.0038477    3.5902241  
C   -1.4770914   -0.0027325    4.7854808  
C   -2.8395474   -0.0020958    4.5576857  
O   -3.7039201   -0.0024443    5.6140350  
C   -3.3517868   -0.0013946    3.2384331  
O   -4.7300496   -0.0012389    3.1773122  
C   -2.5248543   -0.0009135    2.1344818  
H    1.3576314    0.0056174    4.3757045  
H   -1.1067570   -0.0036993    5.8013813  
H   -4.5940033   -0.0021850    5.2385129  
H   -4.9934601   -0.0007286    2.2519915  
H   -2.9462578   -0.0005617    1.1360343  
H    2.1619896   -0.0009344    2.0042067  
