60

C    2.2992437   -4.3493537    1.6513804  
C    2.6332081   -3.5161265    0.6089471  
C    4.0532844   -3.5574837    0.4813820  
C    4.5354490   -4.4404714    1.4812706  
N    3.4444860   -4.9021522    2.1750059  
C    5.8944489   -4.7224687    1.6497481  
C    6.7828671   -4.1020238    0.7930460  
O    8.1211271   -4.3420977    0.9132081  
C    6.3211609   -3.2175429   -0.2106158  
O    7.3291354   -2.6789555   -0.9834383  
C    4.9806392   -2.9386707   -0.3772256  
H    1.9388168   -2.9475064    0.0144017  
H    3.4752229   -5.5540046    2.9379767  
H    6.2683533   -5.3943812    2.4099663  
H    8.5553110   -3.8169045    0.2284303  
H    6.9324362   -2.0938236   -1.6360132  
H    1.3348459   -4.5919616    2.0637360  
C    4.5414468   -2.0136865   -1.4319362  
C    3.2784302   -1.6314302   -1.7323495  
C    3.4206903   -0.7132110   -2.8517847  
C    4.8766552   -0.6552129   -3.1035515  
N    5.5387691   -1.4155495   -2.2744061  
C    5.4363360    0.1572544   -4.1484151  
C    4.5803866    0.8786766   -4.9075169  
O    4.9639653    1.6794174   -5.9163390  
C    3.1058543    0.8409937   -4.6783996  
O    2.3863367    1.5234829   -5.4075939  
C    2.5562217   -0.0001543   -3.6003001  
H    2.3632534   -1.9351317   -1.2535044  
H    6.5041751    0.1807536   -4.3099005  
H    4.1348753    2.0549940   -6.2637659  
C    0.0000000    0.0000000    0.0000000  
C    1.0541688   -0.0001719   -0.8560391  
C    0.5103141   -0.0000449   -2.1935955  
C   -0.9576367    0.0002461   -2.0455733  
N   -1.2018459   -0.0001392   -0.6915970  
C   -1.8348306    0.0008319   -3.0810611  
C   -1.2972842    0.0009739   -4.4314605  
O   -2.0050664    0.0014267   -5.4301321  
C    0.2542628    0.0004190   -4.6117571  
O    0.7184677    0.0002263   -5.7439119  
C    1.0974556    0.0000880   -3.4189127  
H    2.0940752   -0.0005479   -0.5817978  
H   -2.9081050    0.0011669   -2.9507065  
H   -2.1128195    0.0014911   -0.2706793  
C    1.0965515   -0.0001358    2.2710304  
C    0.0000000    0.0000000    1.4700000  
C   -1.1546562   -0.0001469    2.3369512  
C   -0.6372014   -0.0003519    3.7186280  
N    0.7342871   -0.0007337    3.6095011  
C   -1.4147739   -0.0001353    4.8308716  
C   -2.8576048    0.0001048    4.6554461  
O   -3.6427778    0.0002493    5.5944904  
C   -3.4275839    0.0000726    3.2011665  
O   -4.6406829   -0.0000333    3.0410059  
C   -2.4891866    0.0001091    2.0816745  
H   -1.0150448   -0.0001615    5.8354244  
H   -2.8919121    0.0002919    1.0779135  
H    2.1388271   -0.0000662    1.9961646  
H    1.3735872    0.0006099    4.3830260  
