62

C    9.2349329    0.0129753   -3.1676193  
C   10.0144145    0.0153605   -4.3011404  
C   11.3743687    0.0323612   -3.8712176  
C   11.3624358    0.0395088   -2.4528618  
N   10.0475945    0.0293515   -2.0582673  
C   12.5319054    0.0558580   -1.6867924  
C   13.7353486    0.0648542   -2.3648959  
O   14.9076643    0.0805238   -1.6660095  
C   13.7678261    0.0583134   -3.7797174  
O   15.0428684    0.0692008   -4.3064926  
C   12.6145066    0.0424588   -4.5361087  
H    9.6478987    0.0071038   -5.3133620  
H    9.7272650    0.0206890   -1.1067972  
H   12.5295680    0.0615228   -0.6055130  
H   15.6166819    0.0848188   -2.3221659  
H   14.9755099    0.0637940   -5.2661995  
H   12.6707955    0.0379692   -5.6183699  
C    6.8742265    0.0004675   -4.0661423  
C    5.5942427    0.0008994   -3.5620503  
C    5.7067592    0.0008102   -2.1401013  
C    7.0913509    0.0006005   -1.8321530  
N    7.7720040   -0.0015552   -3.0243458  
C    7.5742853    0.0007691   -0.5200693  
C    6.6425085    0.0014636    0.4997193  
O    7.0593435    0.0020078    1.7994356  
C    5.2567325    0.0013070    0.2125911  
O    4.4562658    0.0016419    1.3362448  
C    4.7795901    0.0008674   -1.0815733  
H    4.6906033    0.0001318   -4.1472242  
H    8.6283021    0.0004667   -0.2787183  
H    6.2603308    0.0021431    2.3424298  
H    3.5363984    0.0015350    1.0543800  
H    7.2178043   -0.0000035   -5.0863941  
C    3.3321168    0.0004716   -1.3379341  
C    2.6974177    0.0000118   -2.5332316  
C    1.2800432   -0.0002116   -2.2052842  
C    1.2395033    0.0000644   -0.7271298  
N    2.4394059    0.0005460   -0.2131041  
C    0.0000000    0.0000000    0.0000000  
C   -1.1468704    0.0000635   -0.7169542  
O   -2.3742206    0.0000074   -0.1695488  
C   -1.1388774    0.0001608   -2.2096352  
O   -2.2206238    0.0000906   -2.7970409  
C    0.1454514    0.0001818   -2.9324241  
H    3.1367978   -0.0000649   -3.5160956  
H   -2.9844350    0.0001027   -0.9290164  
H    0.1083567    0.0003684   -4.0135594  
C    2.5528530    2.1414826    2.8079335  
C    2.0663498    1.7338582    4.0032312  
C    0.9804344    0.8229586    3.6752840  
C    0.9495562    0.7966882    2.1971295  
N    1.8690446    1.5676019    1.6831036  
C    0.0000000    0.0000000    1.4700000  
C   -0.8785127   -0.7372425    2.1869543  
O   -1.8187535   -1.5261249    1.6395491  
C   -0.8723269   -0.7321790    3.6796354  
O   -1.7010379   -1.4274584    4.2670412  
C    0.1115397    0.0933559    4.4024240  
H    2.4028853    2.0163452    4.9860947  
H   -2.2861435   -1.9184361    2.3990168  
H    0.0832434    0.0693689    5.4835595  
H    3.3664920    2.8238276    2.6198634  
