64

C    3.1074961   -0.7105638   -7.4546247  
C    4.3487537   -0.4614519   -7.9928543  
C    4.1583909    0.4479566   -9.0751379  
C    2.7684445    0.7206473   -9.1500688  
N    2.1593638   -0.0003010   -8.1531371  
C    2.2169213    1.5811360  -10.1040975  
C    3.0843792    2.1774391  -10.9985893  
O    2.5991240    3.0266734  -11.9506102  
C    4.4743033    1.9176249  -10.9400670  
O    5.2057655    2.5869507  -11.8993939  
C    5.0190582    1.0686328   -9.9993327  
H    5.2770693   -0.8841518   -7.6485461  
H    1.1584277    1.7930099  -10.1665627  
H    3.3612956    3.3271011  -12.4625702  
H    6.1334440    2.3565118  -11.7902374  
H    6.0875798    0.8888235   -9.9791092  
H    2.8233048   -1.3398055   -6.6286409  
C   -0.1387078    0.0017019   -4.3179684  
C    0.8680295    0.0012009   -5.2554900  
C    0.2429725    0.0018259   -6.5376379  
C   -1.1582726    0.0029934   -6.3175531  
N   -1.3554488    0.0009353   -4.9589749  
C   -2.0878501    0.0041618   -7.3619057  
C   -1.5938804    0.0044585   -8.6519335  
O   -2.4574174    0.0059378   -9.7089639  
C   -0.1991525    0.0029328   -8.8918278  
O    0.1346065    0.0030325  -10.2304650  
C    0.7184772    0.0015064   -7.8620319  
H    1.9231278   -0.0006311   -5.0415804  
H   -2.2494821    0.0117151   -4.5022806  
H   -3.1570789    0.0049107   -7.2008121  
H   -1.9125266    0.0055895  -10.5066851  
H    1.0938156    0.0019777  -10.3047651  
C    3.3041272    0.0001178   -1.5420428  
C    2.5845372   -0.0004779   -0.3695851  
C    1.2040007   -0.0000007   -0.7283589  
C    1.1422375    0.0006038   -2.1454371  
N    2.4348641    0.0026111   -2.6077464  
C   -0.0655179    0.0008799   -2.8497918  
C   -1.2321766    0.0002325   -2.1101402  
O   -2.4392816    0.0001148   -2.7472523  
C   -1.1911209   -0.0000007   -0.6955266  
O   -2.4371527   -0.0002320   -0.1032863  
C    0.0000000    0.0000000    0.0000000  
H    3.0031533   -0.0000660    0.6222584  
H    2.7054632   -0.0071097   -3.5745261  
H   -3.1132986   -0.0000648   -2.0551788  
H   -2.3200284   -0.0004071    0.8516409  
H    4.3686626    0.0004072   -1.7024289  
C    0.8175213    0.6860729    2.3021913  
C    0.0000000    0.0000000    1.4700000  
C   -0.8887526   -0.7456559    2.3478473  
C   -0.4549825   -0.3816753    3.7138435  
N    0.5448156    0.4573574    3.6934124  
C   -1.0945674   -0.9182058    4.8835240  
C   -2.1210866   -1.7789155    4.6970523  
O   -2.8083856   -2.3554314    5.6976972  
C   -2.5824069   -2.1655116    3.3310774  
O   -3.5227682   -2.9541547    3.2362962  
C   -1.9100805   -1.6015804    2.1470656  
H   -0.7567140   -0.6349833    5.8697035  
H   -3.4728268   -2.9124471    5.2533954  
H   -2.2742832   -1.9066565    1.1752040  
H    1.6189533    1.3585343    2.0405121  
