64

C    0.1256024   -0.8005948   -9.6240333  
C    0.3932158   -0.3861220  -10.9081926  
C    0.1424428    1.0173235  -10.9535081  
C   -0.2790073    1.4069144   -9.6563860  
N   -0.2799493    0.2786570   -8.8743054  
C   -0.6124417    2.7258497   -9.3338656  
C   -0.5184263    3.6687249  -10.3390148  
O   -0.8317555    4.9714181  -10.0785747  
C   -0.1002308    3.2994395  -11.6396143  
O   -0.0580754    4.3525189  -12.5298907  
C    0.2286075    1.9984179  -11.9585730  
H    0.7269431   -1.0178298  -11.7135283  
H   -0.9344783    3.0292005   -8.3472185  
H   -0.7002080    5.4543385  -10.9048611  
H    0.2336593    4.0177602  -13.3833723  
H    0.5455037    1.7455468  -12.9636157  
H    0.1905546   -1.7809363   -9.1839545  
C    1.5214679   -1.9563162   -5.5959997  
C    0.7564345   -1.5844071   -4.5433904  
C   -0.2212180   -0.6607928   -5.0980363  
C    0.1090023   -0.5886728   -6.5375978  
N    1.1296214   -1.3460484   -6.8354373  
C   -0.6386068    0.2327004   -7.4494713  
C   -1.6694958    0.9491473   -6.9461765  
O   -2.4518898    1.7570651   -7.6818183  
C   -2.0277820    0.8972573   -5.4980397  
O   -2.9783777    1.5758982   -5.1094078  
C   -1.2456329    0.0471727   -4.5828766  
H    0.8445934   -1.8981613   -3.5172998  
H   -3.0926581    2.1264002   -7.0476571  
H    2.3596737   -2.6348146   -5.6009236  
C    1.1243410    0.0099923   -0.7919003  
C    0.7474076    0.0234544   -2.1148543  
C   -0.6787381    0.0234490   -2.1414700  
C   -1.1201745    0.0098592   -0.7935546  
N    0.0000000    0.0000000    0.0000000  
C   -2.4730816    0.0063709   -0.4408240  
C   -3.3971958    0.0170982   -1.4675058  
O   -4.7313517    0.0146259   -1.1793471  
C   -2.9763648    0.0303504   -2.8186324  
O   -4.0166480    0.0395118   -3.7247624  
C   -1.6418562    0.0335260   -3.1673481  
H    1.4178717    0.0310972   -2.9571209  
H   -2.8160166   -0.0041111    0.5845966  
H   -5.1938818    0.0230867   -2.0274384  
H   -3.6464675    0.0482293   -4.6127343  
H    2.1062467    0.0052819   -0.3505407  
C    2.5285572    2.1210227    2.9438989  
C    1.9331703    1.6216660    4.0790748  
C    0.8903039    0.7472258    3.6520102  
C    0.8972198    0.7527806    2.2336141  
N    1.9028376    1.5986179    1.8362361  
C    0.0000000    0.0000000    1.4700000  
C   -0.9207814   -0.7726952    2.1506477  
O   -1.8198395   -1.5274828    1.4542253  
C   -0.9436862   -0.7911793    3.5655508  
O   -1.9197945   -1.6098497    4.0950179  
C   -0.0590329   -0.0485852    4.3195194  
H    2.2150357    1.8593692    5.0905303  
H    2.1533708    1.7953814    0.8841339  
H   -2.3621246   -1.9821033    2.1118817  
H   -1.8668290   -1.5649508    5.0545920  
H   -0.1007624   -0.0827977    5.4019087  
H    3.3491200    2.8096064    2.8367138  
