62

C    5.7628300   -0.0004871   -2.0437087  
C    4.7795897    0.0008677   -1.0815734  
C    5.4361691    0.0009685    0.1847220  
C    6.8315416   -0.0000818   -0.0699538  
N    6.9950513   -0.0028992   -1.4329922  
C    7.7866665    0.0000164    0.9510879  
C    7.3247556    0.0015035    2.2529380  
O    8.2141752    0.0020178    3.2882866  
C    5.9363884    0.0021922    2.5272558  
O    5.6358413    0.0032536    3.8737380  
C    4.9935670    0.0018226    1.5204719  
H    7.8775303    0.0063591   -1.9116633  
H    8.8515841   -0.0009246    0.7635968  
H    7.6891817    0.0027716    4.0992401  
H    4.6787630    0.0036911    3.9717400  
H    3.9369292    0.0021876    1.7612928  
H    5.6826508   -0.0013696   -3.1172679  
C    3.3321166    0.0004717   -1.3379342  
C    2.6974176    0.0000121   -2.5332317  
C    1.2800432   -0.0002115   -2.2052842  
C    1.2395033    0.0000645   -0.7271297  
N    2.4394059    0.0005461   -0.2131042  
C    0.0000000    0.0000000    0.0000000  
C   -1.1468704    0.0000636   -0.7169540  
O   -2.3742206    0.0000073   -0.1695488  
C   -1.1388774    0.0001610   -2.2096351  
O   -2.2206238    0.0000908   -2.7970408  
C    0.1454514    0.0001820   -2.9324241  
H    3.1367977   -0.0000646   -3.5160953  
H   -2.9844351    0.0001027   -0.9290163  
C    0.9070717   -0.7042919   -5.2310442  
C    0.0950440    0.0004357   -4.4015596  
C   -0.8184774    0.7430230   -5.2375488  
C   -0.4696136    0.4107481   -6.6320657  
N    0.5842459   -0.4707042   -6.5591860  
C   -1.1031227    0.9106732   -7.7231413  
C   -2.2017461    1.8380510   -7.5097576  
O   -2.8350881    2.3428877   -8.4275374  
C   -2.5881753    2.2042626   -6.0413004  
O   -3.5112402    2.9842140   -5.8492398  
C   -1.8314687    1.6007487   -4.9472171  
H   -0.8315608    0.6538821   -8.7376471  
H   -2.1054523    1.8593464   -3.9334203  
H    1.7143125   -1.3744686   -4.9838297  
H    1.0462410   -0.8826040   -7.3490885  
C    2.5285572    2.1210227    2.9438989  
C    1.9331703    1.6216660    4.0790748  
C    0.8903039    0.7472258    3.6520102  
C    0.8972198    0.7527806    2.2336141  
N    1.9028376    1.5986179    1.8362361  
C    0.0000000    0.0000000    1.4700000  
C   -0.9207814   -0.7726952    2.1506477  
O   -1.8198395   -1.5274828    1.4542253  
C   -0.9436862   -0.7911793    3.5655508  
O   -1.9197945   -1.6098497    4.0950179  
C   -0.0590329   -0.0485852    4.3195194  
H    2.2150357    1.8593692    5.0905303  
H    2.1533708    1.7953814    0.8841339  
H   -2.3621246   -1.9821033    2.1118817  
H   -1.8668290   -1.5649508    5.0545920  
H   -0.1007624   -0.0827977    5.4019087  
H    3.3491200    2.8096064    2.8367138  
