62

C   -6.3840808    2.4186087   -0.9015992  
C   -6.3581808    1.1158784   -1.3428362  
C   -7.5354069    0.4837420   -0.8436950  
C   -8.2472851    1.4585289   -0.0987484  
N   -7.5195590    2.6213393   -0.1526409  
C   -9.4610559    1.1851568    0.5390737  
C   -9.9655288   -0.0955056    0.4225035  
O  -11.1473671   -0.4165029    1.0251930  
C   -9.2697555   -1.0819611   -0.3161588  
O   -9.9014001   -2.3082868   -0.3383615  
C   -8.0721561   -0.8130528   -0.9454203  
H   -7.7817639    3.4904714    0.2761241  
H  -10.0084507    1.9236463    1.1084546  
H  -11.3140955   -1.3460150    0.8215457  
H   -9.3664112   -2.9166135   -0.8573306  
H   -7.5620152   -1.5890750   -1.5040110  
H   -5.6817180    3.2188202   -1.0606818  
C   -3.9676974    0.7295152   -2.0473342  
C   -5.3027969    0.5139977   -2.1703654  
C   -5.4806619   -0.4130398   -3.2629773  
C   -4.1300597   -0.7221785   -3.7700245  
N   -3.2578655    0.0024282   -2.9908505  
C   -3.8704407   -1.5630657   -4.8030835  
C   -4.9963848   -2.2064096   -5.4595095  
O   -4.8663862   -2.9800928   -6.3990919  
C   -6.4355319   -1.8933902   -4.9392395  
O   -7.3913134   -2.4288772   -5.4842132  
C   -6.5888714   -0.9700333   -3.8177449  
H   -2.8721770   -1.7762694   -5.1593470  
H   -7.5886334   -0.7587590   -3.4633958  
H   -3.4426406    1.3584970   -1.3469153  
C    0.0000000    0.0000000    0.0000000  
C    1.0521666   -0.0011982   -0.8862343  
C    0.4917215   -0.0011996   -2.1979132  
C   -0.9187429    0.0003215   -2.0478682  
N   -1.1833171   -0.0009323   -0.7007913  
C   -1.7951703    0.0010483   -3.1372089  
C   -1.2375841    0.0005313   -4.4010422  
O   -2.0474218    0.0015510   -5.4997578  
C    0.1673576   -0.0013585   -4.5711963  
O    0.5673520   -0.0020735   -5.8915554  
C    1.0325768   -0.0023493   -3.4969892  
H    2.0953056   -0.0030808   -0.6200564  
H   -2.0989778    0.0102529   -0.2891822  
H   -1.4634888    0.0006601   -6.2693595  
H    1.5290707   -0.0033271   -5.9180047  
H    2.1042146   -0.0039770   -3.6584456  
C    3.3321173   -0.0004715    2.8079335  
C    2.6974184   -0.0000116    4.0032312  
C    1.2800439    0.0002118    3.6752840  
C    1.2395035   -0.0000644    2.1971295  
N    2.4394063   -0.0005460    1.6831036  
C    0.0000000    0.0000000    1.4700000  
C   -1.1468701   -0.0000635    2.1869543  
O   -2.3742202   -0.0000073    1.6395491  
C   -1.1388768   -0.0001607    3.6796354  
O   -2.2206231   -0.0000905    4.2670412  
C    0.1454524   -0.0001816    4.4024240  
H    3.1367986    0.0000651    4.9860947  
H   -2.9844344   -0.0001026    2.3990168  
H    0.1083576   -0.0003682    5.4835595  
H    4.3940039   -0.0007619    2.6198634  
