62

C    0.5177033   -0.6838747   -9.6384431  
C    0.0180930    0.5684667   -9.3655000  
C    0.4941180    1.4390688  -10.3902198  
C    1.2857759    0.6549966  -11.2679644  
N    1.2806973   -0.6286531  -10.7813074  
C    1.9166869    1.1871907  -12.3964639  
C    1.7450527    2.5353996  -12.6435513  
O    2.3385621    3.1065106  -13.7319410  
C    0.9592279    3.3343177  -11.7792454  
O    0.8849473    4.6581717  -12.1603452  
C    0.3367482    2.8100222  -10.6656204  
H    1.7494917   -1.4105822  -11.2017829  
H    2.5214912    0.5949784  -13.0692937  
H    2.0940756    4.0410034  -13.7173206  
H    0.3364303    5.1274436  -11.5243297  
H   -0.2587814    3.4467438  -10.0218756  
H    0.3913315   -1.6118352   -9.1075214  
C    0.0902056   -0.6999988   -5.1620330  
C   -0.9736297    0.0040464   -4.6965763  
C   -1.5078552    0.7471500   -5.8133737  
C   -0.6620037    0.4159213   -6.9759627  
N    0.2881865   -0.4654795   -6.5142699  
C   -0.8409758    0.9165753   -8.2245698  
C   -1.9398965    1.8436895   -8.4375675  
O   -2.1836156    2.3491294   -9.5254244  
C   -2.8482823    2.2087973   -7.2204661  
O   -3.7763825    2.9885181   -7.3875807  
C   -2.5561684    1.6045645   -5.9229976  
H   -3.1899800    1.8623999   -5.0854251  
H    0.7463589   -1.3702750   -4.6309188  
H    1.0125327   -0.8767606   -7.0739277  
C    1.1188642    0.0008222   -0.8003808  
C    0.0000000    0.0000000    0.0000000  
C   -1.1323862    0.0008899   -0.8673528  
C   -0.6382663    0.0019679   -2.1969280  
N    0.7324016    0.0038481   -2.1202242  
C   -1.4770914    0.0027318   -3.3154808  
C   -2.8395473    0.0020945   -3.0876857  
O   -3.7039201    0.0024425   -4.1440349  
C   -3.3517868    0.0013931   -1.7684331  
O   -4.7300497    0.0012366   -1.7073121  
C   -2.5248543    0.0009123   -0.6644817  
H    1.3576314   -0.0056167   -2.9057046  
H   -4.5940032    0.0021826   -3.7685128  
H   -4.9934602    0.0007259   -0.7819913  
H   -2.9462577    0.0005603    0.3339659  
H    2.1619895    0.0009355   -0.5342068  
C    0.0000000    0.0000000    1.4700000  
C    1.0662921    0.0000102    2.3034270  
C    0.4961870   -0.0000064    3.6418889  
C   -0.9663858    0.0000850    3.4240247  
N   -1.2632773    0.0000084    2.1528658  
C   -1.8985362    0.0000517    4.5177257  
C   -1.3925775   -0.0004564    5.7720543  
O   -2.1456383   -0.0005410    6.8851312  
C    0.0786232   -0.0009323    6.0245000  
O    0.4683759   -0.0012588    7.1921102  
C    1.0143166   -0.0008442    4.8859032  
H    2.1107198   -0.0000632    2.0421868  
H   -2.9622183    0.0003270    4.3293377  
H   -1.5042274   -0.0009692    7.6184419  
H    2.0724152   -0.0013148    5.1109744  
