62

C    8.7913866    0.0430963   -4.1805653  
C    9.6092473    0.0473805   -3.0744222  
C   10.9537048    0.0603892   -3.5507274  
C   10.8931944    0.0638308   -4.9678557  
N    9.5656242    0.0511582   -5.3171572  
C   12.0357539    0.0763123   -5.7735793  
C   13.2617289    0.0857935   -5.1371252  
O   14.4094276    0.0984977   -5.8757992  
C   13.3426599    0.0821758   -3.7242366  
O   14.6350164    0.0923278   -3.2414810  
C   12.2159146    0.0695911   -2.9287413  
H    9.2776304    0.0407094   -2.0502258  
H    9.2126904    0.0607838   -6.2570119  
H   11.9963828    0.0788531   -6.8541560  
H   15.1405181    0.1031303   -5.2443316  
H   14.6005751    0.0890869   -2.2800202  
H   12.3092510    0.0669279   -1.8490380  
C    5.5764489    0.0082712   -1.0736986  
C    6.7920327    0.0210383   -1.7176393  
C    6.5213450    0.0206190   -3.1181135  
C    5.1110772    0.0075049   -3.2694401  
N    4.5679461   -0.0016854   -2.0086701  
C    4.4845811    0.0037924   -4.5193513  
C    5.2965304    0.0138020   -5.6368557  
O    4.7370949    0.0110823   -6.8818609  
C    6.7056517    0.0265717   -5.5063514  
O    7.3755165    0.0350365   -6.7124004  
C    7.3243926    0.0299680   -4.2736009  
H    7.7553657    0.0284950   -1.2370905  
H    3.4102461   -0.0063298   -4.6414309  
H    5.4703964    0.0190351   -7.5107243  
H    8.3210786    0.0434630   -6.5350739  
H    5.3490393    0.0040340   -0.0214506  
C    3.1301149   -0.0010311   -1.7028252  
C    2.5367768   -0.0002767   -0.4864665  
C    1.1089904    0.0001028   -0.7656183  
C    1.0177872   -0.0004148   -2.2415132  
N    2.1993578   -0.0011611   -2.7963820  
C   -0.2459209   -0.0002877   -2.9257118  
C   -1.3675319   -0.0000605   -2.1698524  
O   -2.6129313    0.0000867   -2.6748490  
C   -1.3083584    0.0000910   -0.6783232  
O   -2.3693261    0.0004206   -0.0541692  
C    0.0000000    0.0000000    0.0000000  
H    3.0096017   -0.0001007    0.4807525  
H   -0.2829630   -0.0004687   -4.0053125  
H   -3.1967441    0.0002094   -1.8949034  
C    2.5128556    2.1077716    2.9199648  
C    1.9592212    1.6432552    4.0696553  
C    0.8915788    0.7479214    3.6910360  
C    0.8684491    0.7287414    2.2159470  
N    1.8754542    1.5738793    1.8102719  
C    0.0000000    0.0000000    1.4700000  
C   -0.9772830   -0.8200135    2.1664417  
O   -1.8021297   -1.5120829    1.5842315  
C   -0.9711318   -0.8147624    3.7284083  
O   -1.7894187   -1.5009653    4.3257297  
C    0.0140216    0.0115358    4.4216297  
H    2.2638494    1.8988021    5.0689105  
H    0.0117648    0.0094386    5.5031631  
H    3.3327358    2.7953732    2.7900019  
H    2.1123206    1.7707734    0.8551938  
