62

C   -0.2963294   -0.0005338   -4.3948469  
C    0.7248287   -0.0020289   -5.3166396  
C    0.1197348   -0.0021706   -6.6083287  
C   -1.2847550   -0.0004250   -6.4100066  
N   -1.5029813   -0.0014160   -5.0546494  
C   -2.1980210    0.0002432   -7.4686539  
C   -1.6841003   -0.0005639   -8.7508632  
O   -2.5311372    0.0003862   -9.8211639  
C   -0.2858198   -0.0026806   -8.9690928  
O    0.0686631   -0.0036733  -10.3023925  
C    0.6157255   -0.0036142   -7.9251870  
H    1.7764815   -0.0040143   -5.0863876  
H   -2.4039876    0.0099675   -4.6118856  
H   -3.2696198    0.0014283   -7.3241654  
H   -1.9739380   -0.0007158  -10.6103357  
H    1.0289089   -0.0050674  -10.3618041  
H    1.6811962   -0.0054203   -8.1232956  
C    3.1301144   -0.0010311   -1.7028257  
C    2.5367765   -0.0002766   -0.4864669  
C    1.1089900    0.0001028   -0.7656184  
C    1.0177865   -0.0004148   -2.2415134  
N    2.1993573   -0.0011611   -2.7963824  
C   -0.2459219   -0.0002876   -2.9257117  
C   -1.3675328   -0.0000605   -2.1698521  
O   -2.6129318    0.0000868   -2.6748487  
C   -1.3083586    0.0000910   -0.6783230  
O   -2.3693261    0.0004206   -0.0541687  
C    0.0000000    0.0000000    0.0000000  
H    3.0096014   -0.0001008    0.4807517  
H   -3.1967444    0.0002095   -1.8949028  
C    6.6962561   -0.0006583    0.9128033  
C    7.6449136   -0.0016134   -0.0834471  
C    6.9440353   -0.0023814   -1.3257711  
C    5.5585241   -0.0015569   -1.0219883  
N    5.4432386   -0.0024703    0.3459757  
C    4.5679458   -0.0016854   -2.0086709  
C    4.9836043   -0.0023571   -3.3260185  
O    4.0581859   -0.0021607   -4.3293204  
C    6.3614215   -0.0035604   -3.6491836  
O    6.6142413   -0.0045344   -5.0054377  
C    7.3392006   -0.0037075   -2.6763144  
H    8.7109485   -0.0028461    0.0667573  
H    4.5782206    0.0083750    0.8554928  
H    4.5542201   -0.0030158   -5.1583039  
H    7.5672628   -0.0052862   -5.1371699  
H    8.3866768   -0.0048230   -2.9542911  
H    6.8142882   -0.0002737    1.9828627  
C    2.3971438    2.0127888    3.1728260  
C    1.9431056    1.6308205    1.9564670  
C    0.8496017    0.7127664    2.2356185  
C    0.7794028    0.6545384    3.7115134  
N    1.6840587    1.4146091    4.2663826  
C   -0.1885723   -0.1578550    4.3957118  
C   -1.0476298   -0.8789867    3.6398520  
O   -2.0015663   -1.6796266    4.1448486  
C   -1.0022026   -0.8410666    2.1483229  
O   -1.8147390   -1.5232959    1.5241687  
C    0.0000000    0.0000000    1.4700000  
H    2.3054237    1.9346118    0.9892483  
H   -0.2170646   -0.1815267    5.4753125  
H   -2.4487139   -2.0549881    3.3649027  
H    3.2048689    2.6911772    3.3971983  
