60

C   -3.6880742    0.0007573   -7.1840059  
C   -4.4010601    0.0022166   -6.0075211  
C   -5.7835922    0.0029313   -6.3585281  
C   -5.8533215    0.0015561   -7.7752358  
N   -4.5633145    0.0022070   -8.2448082  
C   -7.0650185    0.0014852   -8.4727897  
C   -8.2275002    0.0025200   -7.7265894  
O   -9.4381684    0.0021504   -8.3569035  
C   -8.1784906    0.0042741   -6.3122301  
O   -9.4211723    0.0055586   -5.7129938  
C   -6.9834780    0.0046183   -5.6234119  
H   -3.9768734    0.0038109   -5.0180485  
H   -4.2981614   -0.0090336   -9.2130786  
H   -7.1249273    0.0005848   -9.5524239  
H  -10.1082835    0.0033188   -7.6610522  
H   -9.2986811    0.0066765   -4.7587411  
H   -6.9773840    0.0061578   -4.5396970  
C   -0.2963294   -0.0005341   -4.3948471  
C    0.7278651   -0.0010066   -5.2865309  
C    0.1384638   -0.0010229   -6.6046519  
C   -1.3235480   -0.0004883   -6.4063792  
N   -1.5211840   -0.0006101   -5.0448251  
C   -2.2357336    0.0000547   -7.4111778  
C   -1.7448097   -0.0001095   -8.7792165  
O   -2.4864213    0.0002814   -9.7530304  
C   -0.2003578   -0.0009260   -9.0126110  
O    0.2247513   -0.0013774  -10.1600175  
C    0.6832429   -0.0011827   -7.8493818  
H    1.7765638   -0.0014916   -5.0481108  
H    1.7513078   -0.0015433   -8.0195610  
H   -2.4171880    0.0012263   -4.5929169  
C    3.1301143   -0.0010313   -1.7028257  
C    2.5367765   -0.0002767   -0.4864669  
C    1.1089900    0.0001027   -0.7656184  
C    1.0177864   -0.0004150   -2.2415133  
N    2.1993571   -0.0011613   -2.7963824  
C   -0.2459220   -0.0002879   -2.9257116  
C   -1.3675327   -0.0000606   -2.1698519  
O   -2.6129319    0.0000866   -2.6748482  
C   -1.3083588    0.0000910   -0.6783229  
O   -2.3693264    0.0004206   -0.0541685  
C    0.0000000    0.0000000    0.0000000  
H    3.0096014   -0.0001008    0.4807517  
H   -3.1967445    0.0002093   -1.8949025  
H    4.1849272   -0.0015113   -1.9271980  
C    0.0000000    0.0000000    1.4700000  
C    1.0541688    0.0001722    2.3260392  
C    0.5103138    0.0000454    3.6635956  
C   -0.9576371   -0.0002459    3.5155732  
N   -1.2018458    0.0001392    2.1615969  
C   -1.8348311   -0.0008317    4.5510609  
C   -1.2972847   -0.0009736    5.9014604  
O   -2.0050672   -0.0014265    6.9001319  
C    0.2542623   -0.0004184    6.0817573  
O    0.7184670   -0.0002256    7.2139121  
C    1.0974552   -0.0000873    4.8889129  
H    2.0940752    0.0005483    2.0517982  
H   -2.9081052   -0.0011668    4.4207061  
H    2.1707277    0.0000911    5.0223670  
H   -2.1128194   -0.0014912    1.7406791  
