64

C    7.2850169   -4.4287471    0.8868152  
C    6.6417219   -3.6049307   -0.0075931  
C    5.2483759   -3.6751553    0.2894831  
C    5.1005582   -4.5648020    1.3842910  
N    6.3562701   -5.0057628    1.7209802  
C    3.8578015   -4.8730849    1.9458123  
C    2.7440045   -4.2720946    1.3922380  
O    1.5060317   -4.5376224    1.9020734  
C    2.8710643   -3.3819354    0.2994024  
O    1.6693900   -2.8654630   -0.1394351  
C    4.0967319   -3.0775561   -0.2552322  
H    7.1180107   -3.0255899   -0.7799310  
H    6.5670805   -5.6405208    2.4697257  
H    3.7384134   -5.5504254    2.7801736  
H    0.8786781   -4.0231211    1.3776873  
H    1.8439826   -2.2747233   -0.8784528  
H    8.3327186   -4.6514983    0.9948062  
C    4.1863612   -2.1478769   -1.3903811  
C    5.2964354   -1.7420564   -2.0496420  
C    4.8117016   -0.8307209   -3.0748252  
C    3.3454835   -0.8022506   -2.8851479  
N    2.9730518   -1.5723541   -1.8991335  
C    2.4861704   -0.0045255   -3.7159919  
C    3.0653208    0.7316068   -4.6917118  
O    2.3851025    1.5212592   -5.5401182  
C    4.5422559    0.7243205   -4.9079759  
O    5.0006617    1.4186849   -5.8151378  
C    5.4023457   -0.1022428   -4.0425497  
H    6.3180530   -2.0259909   -1.8632149  
H    3.0670359    1.9124169   -6.1155445  
H    6.4672338   -0.0798677   -4.2316059  
C    0.0000000    0.0000000    0.0000000  
C    1.0521669   -0.0011848   -0.8862341  
C    0.4917221   -0.0011931   -2.1979130  
C   -0.9187427    0.0003100   -2.0478683  
N   -1.1833170   -0.0009472   -0.7007915  
C   -1.7951698    0.0010259   -3.1372090  
C   -1.2375835    0.0005161   -4.4010425  
O   -2.0474208    0.0015256   -5.4997580  
C    0.1673584   -0.0013557   -4.5711962  
O    0.5673529   -0.0020659   -5.8915551  
C    1.0325773   -0.0023359   -3.4969890  
H    2.0953059   -0.0030542   -0.6200560  
H   -2.0989777    0.0102265   -0.2891825  
H   -2.8710930    0.0020274   -3.0295514  
H   -1.4634881    0.0006427   -6.2693593  
H    1.5290715   -0.0033076   -5.9180042  
C    1.1243417   -0.0099156    2.2619005  
C    0.7474090   -0.0234034    3.5848544  
C   -0.6787367   -0.0234952    3.6114698  
C   -1.1201739   -0.0099357    2.2635546  
N    0.0000000    0.0000000    1.4700000  
C   -2.4730812   -0.0065396    1.9108239  
C   -3.3971947   -0.0173298    2.9375057  
O   -4.7313508   -0.0149487    2.6493466  
C   -2.9763630   -0.0305536    4.2886322  
O   -4.0166453   -0.0397858    5.1947621  
C   -1.6418541   -0.0336380    4.6373480  
H    1.4178735   -0.0310004    4.4271209  
H   -2.8160170    0.0039190    0.8854031  
H   -5.1938803   -0.0234410    3.4974381  
H   -3.6464643   -0.0484781    6.0827341  
H   -1.3497443   -0.0436789    5.6809233  
H    2.1062470   -0.0051382    1.8205408  
