62

C    2.0609536   -0.0060647   -8.1939055  
C    3.1245901   -0.0084859   -7.3214730  
C    4.3117144   -0.0108086   -8.1122513  
C    3.9063635   -0.0093778   -9.4715209  
N    2.5336208   -0.0084504   -9.4853889  
C    4.8171358   -0.0106780  -10.5323149  
C    6.1615989   -0.0131666  -10.2151535  
O    7.0937604   -0.0141736  -11.2121932  
C    6.5857087   -0.0150008   -8.8649896  
O    7.9569366   -0.0178199   -8.7130983  
C    5.6877668   -0.0139927   -7.8179827  
H    3.0535830   -0.0096730   -6.2472525  
H    1.9615811    0.0031998  -10.3103832  
H    4.5146129   -0.0097433  -11.5704282  
H    7.9571365   -0.0162060  -10.7787848  
H    8.1587434   -0.0188857   -7.7724201  
H    6.0423975   -0.0156309   -6.7939162  
C   -0.2963294   -0.0005341   -4.3948471  
C    0.7248289   -0.0020293   -5.3166396  
C    0.1197350   -0.0021710   -6.6083289  
C   -1.2847549   -0.0004255   -6.4100071  
N   -1.5029813   -0.0014164   -5.0546493  
C   -2.1980209    0.0002427   -7.4686534  
C   -1.6841004   -0.0005645   -8.7508641  
O   -2.5311373    0.0003856   -9.8211630  
C   -0.2858197   -0.0026812   -8.9690929  
O    0.0686633   -0.0036740  -10.3023916  
C    0.6157256   -0.0036147   -7.9251872  
H    1.7764816   -0.0040147   -5.0863877  
H   -2.4039878    0.0099670   -4.6118859  
H   -3.2696195    0.0014278   -7.3241652  
H   -1.9739382   -0.0007166  -10.6103355  
H    1.0289091   -0.0050681  -10.3618041  
C    3.1301143   -0.0010313   -1.7028257  
C    2.5367765   -0.0002767   -0.4864669  
C    1.1089900    0.0001027   -0.7656184  
C    1.0177864   -0.0004150   -2.2415133  
N    2.1993571   -0.0011613   -2.7963824  
C   -0.2459220   -0.0002879   -2.9257116  
C   -1.3675327   -0.0000606   -2.1698519  
O   -2.6129319    0.0000866   -2.6748482  
C   -1.3083588    0.0000910   -0.6783229  
O   -2.3693264    0.0004206   -0.0541685  
C    0.0000000    0.0000000    0.0000000  
H    3.0096014   -0.0001008    0.4807517  
H   -3.1967445    0.0002093   -1.8949025  
H    4.1849272   -0.0015113   -1.9271980  
C    0.0000000    0.0000000    1.4700000  
C    1.0541688    0.0001722    2.3260392  
C    0.5103138    0.0000454    3.6635956  
C   -0.9576371   -0.0002459    3.5155732  
N   -1.2018458    0.0001392    2.1615969  
C   -1.8348311   -0.0008317    4.5510609  
C   -1.2972847   -0.0009736    5.9014604  
O   -2.0050672   -0.0014265    6.9001319  
C    0.2542623   -0.0004184    6.0817573  
O    0.7184670   -0.0002256    7.2139121  
C    1.0974552   -0.0000873    4.8889129  
H    2.0940752    0.0005483    2.0517982  
H   -2.9081052   -0.0011668    4.4207061  
H    2.1707277    0.0000911    5.0223670  
H   -2.1128194   -0.0014912    1.7406791  
