60

C    4.7433650   -0.6914384   -8.8436061  
C    5.5477214   -0.6453743   -9.9586649  
C    5.5297108    0.7008755  -10.4297134  
C    4.6905088    1.4368657   -9.5545085  
N    4.2280221    0.5609077   -8.6040238  
C    4.4413208    2.8030328   -9.7166233  
C    5.0506402    3.4378506  -10.7814776  
O    4.8418867    4.7711092  -10.9860680  
C    5.8910293    2.7205694  -11.6658255  
O    6.4231781    3.4938700  -12.6768479  
C    6.1370919    1.3727395  -11.5066594  
H    6.0808871   -1.4797155  -10.3812801  
H    3.8026167    3.3696509   -9.0531449  
H    5.3521019    5.0101014  -11.7708155  
H    6.9777374    2.9336902  -13.2284525  
H    6.7852589    0.8499244  -12.2002167  
H    4.4953483   -1.5188384   -8.2010684  
C    4.1774648   -0.7039258   -4.3991482  
C    3.1006054    0.0006263   -3.9654951  
C    2.5992402    0.7428151   -5.0980253  
C    3.4785677    0.4104974   -6.2351876  
N    4.4147929   -0.4705967   -5.7452437  
C    3.3361161    0.9100879   -7.4889113  
C    2.2439823    1.8371251   -7.7346382  
O    2.0321276    2.3416470   -8.8295708  
C    1.3005628    2.2033754   -6.5448385  
O    0.3778221    2.9830422   -6.7395981  
C    1.5546719    1.6002372   -5.2388884  
H    0.8967558    1.8588594   -4.4203627  
H    4.8177812   -1.3738064   -3.8485622  
H    5.1550885   -0.8824329   -6.2832025  
C    3.2798083    0.0005857   -1.4499652  
C    2.5571142    0.0005565   -2.5996556  
C    1.1637432    0.0001548   -2.2210361  
C    1.1336964   -0.0000200   -0.7459473  
N    2.4483512   -0.0001428   -0.3402723  
C    0.0000000    0.0000000    0.0000000  
C   -1.2757368   -0.0000186   -0.6964415  
O   -2.3524598   -0.0000639   -0.1142311  
C   -1.2676497   -0.0000872   -2.2584083  
O   -2.3355766   -0.0004101   -2.8557295  
C    0.0181558    0.0001758   -2.9516296  
H    0.0150788    0.0003319   -4.0331631  
H    4.3498547    0.0008612   -1.3200026  
H    2.7563626    0.0012823    0.6148059  
C    0.8400945    0.7047457    2.2710304  
C    0.0000000    0.0000000    1.4700000  
C   -0.8844236   -0.7423113    2.3369512  
C   -0.4878984   -0.4098547    3.7186280  
N    0.5629682    0.4714286    3.6095011  
C   -1.0836927   -0.9095027    4.8308716  
C   -2.1891196   -1.8367527    4.6554461  
O   -2.7906899   -2.3413415    5.5944904  
C   -2.6257283   -2.2031529    3.2011665  
O   -3.5549479   -2.9829990    3.0410059  
C   -1.9068976   -1.5999348    2.0816745  
H   -0.7774656   -0.6525820    5.8354244  
H   -2.2155208   -1.8586617    1.0779135  
H    1.6384792    1.3747609    1.9961646  
H    1.0518368    0.8833920    4.3830260  
