62

C   -3.9747612    0.7101850   -1.9417823  
C   -5.3221355    0.4600623   -2.0621546  
C   -5.4813673   -0.4485687   -3.1501041  
C   -4.1854344   -0.7197654   -3.6589634  
N   -3.2941075    0.0012873   -2.9038235  
C   -3.9615342   -1.5791670   -4.7388183  
C   -5.0659633   -2.1759000   -5.3152940  
O   -4.9043393   -3.0241176   -6.3723733  
C   -6.3670286   -1.9175708   -4.8220261  
O   -7.3627223   -2.5871489   -5.5029089  
C   -6.5886806   -1.0696515   -3.7569302  
H   -6.0952351    0.8816070   -1.4427913  
H   -2.9763329   -1.7899005   -5.1314648  
H   -5.7886690   -3.3250690   -6.6186536  
H   -8.2090764   -2.3577388   -5.1071047  
H   -7.5966689   -0.8909705   -3.4012484  
H   -3.4455419    1.3392825   -1.2467125  
C    0.0000000    0.0000000    0.0000000  
C    1.0541688   -0.0001722   -0.8560392  
C    0.5103135   -0.0000454   -2.1935954  
C   -0.9576375    0.0002459   -2.0455728  
N   -1.2018462   -0.0001392   -0.6915966  
C   -1.8348315    0.0008316   -3.0810604  
C   -1.2972851    0.0009737   -4.4314603  
O   -2.0050681    0.0014265   -5.4301316  
C    0.2542617    0.0004185   -4.6117570  
O    0.7184664    0.0002257   -5.7439119  
C    1.0974549    0.0000874   -3.4189129  
H    2.0940751   -0.0005482   -0.5817983  
H   -2.1128195    0.0014911   -0.2706785  
C    2.5562209   -0.0001551   -3.6003007  
C    3.5655122   -0.0016945   -2.6655301  
C    4.7980121   -0.0018083   -3.3835440  
C    4.4750727   -0.0000008   -4.7647151  
N    3.1056435   -0.0009834   -4.8610475  
C    5.4479441    0.0007089   -5.7688614  
C    6.7709209   -0.0001198   -5.3714847  
O    7.7613115    0.0008688   -6.3107073  
C    7.1131343   -0.0022981   -3.9982758  
O    8.4727586   -0.0033052   -3.7642611  
C    6.1538980   -0.0032724   -3.0071193  
H    3.4300840   -0.0037267   -1.5975188  
H    2.5841963    0.0104395   -5.7189192  
H    5.2083477    0.0019412   -6.8232781  
H    8.5970851   -0.0002571   -5.8262001  
H    8.6176748   -0.0047417   -2.8131561  
H    6.4463530   -0.0051256   -1.9635939  
C    0.0000000    0.0000000    1.4700000  
C    1.0662921    0.0000102    2.3034270  
C    0.4961870   -0.0000064    3.6418889  
C   -0.9663858    0.0000850    3.4240247  
N   -1.2632773    0.0000084    2.1528658  
C   -1.8985362    0.0000517    4.5177257  
C   -1.3925775   -0.0004564    5.7720543  
O   -2.1456383   -0.0005410    6.8851312  
C    0.0786232   -0.0009323    6.0245000  
O    0.4683759   -0.0012588    7.1921102  
C    1.0143166   -0.0008442    4.8859032  
H    2.1107198   -0.0000632    2.0421868  
H   -2.9622183    0.0003270    4.3293377  
H   -1.5042274   -0.0009692    7.6184419  
H    2.0724152   -0.0013148    5.1109744  
