60

C   -3.8573321   -2.1196516   -7.2919818  
C   -4.4718930   -1.6580940   -6.1510407  
C   -5.5080040   -0.7700709   -6.5663590  
C   -5.4777659   -0.7292067   -7.9838714  
N   -4.4626318   -1.5584100   -8.3919674  
C   -6.3630497    0.0477593   -8.7371202  
C   -7.2960496    0.7968892   -8.0468348  
O   -8.1847471    1.5731025   -8.7329277  
C   -7.3417535    0.7696227   -6.6326262  
O   -8.3271765    1.5701687   -6.0928020  
C   -6.4685347    0.0035663   -5.8888707  
H   -4.2053983   -1.9273742   -5.1433386  
H   -4.2093036   -1.7393359   -9.3464683  
H   -6.3450893    0.0833624   -9.8176812  
H   -8.7380494    2.0059182   -8.0697591  
H   -8.2896528    1.4942715   -5.1344514  
H   -3.0341872   -2.8036901   -7.4080954  
C   -3.2941076    0.0012874   -2.9038237  
C   -3.9928928    0.0012414   -1.7448249  
C   -5.3903273    0.0018076   -2.1493935  
C   -5.3503939    0.0022632   -3.6275641  
N   -4.1243043    0.0018803   -4.0755528  
C   -6.5485048    0.0028439   -4.4210475  
C   -7.7326801    0.0025752   -3.7675465  
O   -8.9284333    0.0030580   -4.3809106  
C   -7.8059028    0.0017434   -2.2766415  
O   -8.9180025    0.0016635   -1.7489540  
C   -6.5627961    0.0012026   -1.4850541  
H   -3.6076324    0.0007787   -0.7395140  
H   -9.5790601    0.0026680   -3.6557643  
H   -6.6586515    0.0004893   -0.4075375  
C    0.0000000    0.0000000    0.0000000  
C    1.0541688   -0.0001722   -0.8560393  
C    0.5103135   -0.0000454   -2.1935957  
C   -0.9576374    0.0002459   -2.0455730  
N   -1.2018460   -0.0001391   -0.6915968  
C   -1.8348314    0.0008317   -3.0810607  
C   -1.2972851    0.0009737   -4.4314604  
O   -2.0050676    0.0014265   -5.4301315  
C    0.2542619    0.0004184   -4.6117571  
O    0.7184666    0.0002257   -5.7439121  
C    1.0974550    0.0000874   -3.4189130  
H    2.0940752   -0.0005483   -0.5817984  
H    2.1707276   -0.0000911   -3.5523671  
H   -2.1128194    0.0014912   -0.2706789  
C    0.0000000    0.0000000    1.4700000  
C    1.0541688    0.0001722    2.3260392  
C    0.5103138    0.0000454    3.6635956  
C   -0.9576371   -0.0002459    3.5155732  
N   -1.2018458    0.0001392    2.1615969  
C   -1.8348311   -0.0008317    4.5510609  
C   -1.2972847   -0.0009736    5.9014604  
O   -2.0050672   -0.0014265    6.9001319  
C    0.2542623   -0.0004184    6.0817573  
O    0.7184670   -0.0002256    7.2139121  
C    1.0974552   -0.0000873    4.8889129  
H    2.0940752    0.0005483    2.0517982  
H   -2.9081052   -0.0011668    4.4207061  
H    2.1707277    0.0000911    5.0223670  
H   -2.1128194   -0.0014912    1.7406791  
