66

C    4.3849905   -2.1304615   -1.4422215  
C    3.1441142   -1.6666547   -1.8131358  
C    3.3426744   -0.7794829   -2.9122716  
C    4.7370041   -0.7414320   -3.1698022  
N    5.3406538   -1.5714192   -2.2580209  
C    5.2968245    0.0340161   -4.1896406  
C    4.4333178    0.7844924   -4.9637975  
O    4.9266816    1.5593202   -5.9733748  
C    3.0391174    0.7600316   -4.7220873  
O    2.3124330    1.5616238   -5.5780796  
C    2.4861704   -0.0045255   -3.7159919  
H    2.2107619   -1.9339278   -1.3479352  
H    6.3263284   -1.7542337   -2.2032057  
H    6.3586916    0.0674744   -4.3909404  
H    4.1660268    1.9934389   -6.3810646  
H    1.3814038    1.4876309   -5.3471834  
C    1.9903989   -4.3599500    1.6049045  
C    2.3779450   -3.5465658    0.5653451  
C    3.7978121   -3.6425604    0.4685839  
C    4.2246301   -4.5368924    1.4834356  
N    3.1023677   -4.9524845    2.1560632  
C    5.5680193   -4.8691695    1.6826488  
C    6.4974408   -4.2882736    0.8418683  
O    7.8227332   -4.5781750    0.9921016  
C    6.0911984   -3.3932488   -0.1763241  
O    7.1351625   -2.8981569   -0.9302259  
C    4.7661116   -3.0647837   -0.3732557  
H    1.7185100   -2.9557683   -0.0471059  
H    3.0920266   -5.6002193    2.9230786  
H    5.8998143   -5.5499838    2.4544041  
H    8.2910683   -4.0741486    0.3139538  
H    6.7749998   -2.3025166   -1.5943795  
H    1.0089076   -4.5632023    1.9977429  
C    0.0000000    0.0000000    0.0000000  
C    1.0521669   -0.0011848   -0.8862341  
C    0.4917221   -0.0011931   -2.1979130  
C   -0.9187427    0.0003100   -2.0478683  
N   -1.1833170   -0.0009472   -0.7007915  
C   -1.7951698    0.0010259   -3.1372090  
C   -1.2375835    0.0005161   -4.4010425  
O   -2.0474208    0.0015256   -5.4997580  
C    0.1673584   -0.0013557   -4.5711962  
O    0.5673529   -0.0020659   -5.8915551  
C    1.0325773   -0.0023359   -3.4969890  
H    2.0953059   -0.0030542   -0.6200560  
H   -2.0989777    0.0102265   -0.2891825  
H   -2.8710930    0.0020274   -3.0295514  
H   -1.4634881    0.0006427   -6.2693593  
H    1.5290715   -0.0033076   -5.9180042  
C    3.3041272   -0.0001177    3.0120429  
C    2.5845372    0.0004780    1.8395852  
C    1.2040006    0.0000008    2.1983588  
C    1.1422373   -0.0006037    3.6154372  
N    2.4348639   -0.0026109    4.0777464  
C   -0.0655181   -0.0008797    4.3197917  
C   -1.2321768   -0.0002324    3.5801400  
O   -2.4392816   -0.0001146    4.2172520  
C   -1.1911209    0.0000007    2.1655264  
O   -2.4371527    0.0002320    1.5732860  
C    0.0000000    0.0000000    1.4700000  
H    3.0031534    0.0000661    0.8477417  
H    2.7054629    0.0071099    5.0445261  
H   -0.1193549   -0.0014844    5.3997470  
H   -3.1132988    0.0000648    3.5251786  
H   -2.3200282    0.0004071    0.6183591  
H    4.3686625   -0.0004071    3.1724291  
