64

C    0.9651108   -1.0781170   -7.6493175  
C    2.0156730   -1.9638924   -7.7140291  
C    2.2552258   -2.2254749   -9.0956183  
C    1.3121284   -1.4646175   -9.8329037  
N    0.5430280   -0.7811480   -8.9240747  
C    1.2560561   -1.4779075  -11.2298532  
C    2.1688568   -2.2735416  -11.8946380  
O    2.1585699   -2.3234142  -13.2586100  
C    3.1172980   -3.0402104  -11.1766574  
O    3.9573413   -3.7812291  -11.9819907  
C    3.1730169   -3.0277942   -9.7985178  
H    2.5436194   -2.3722175   -6.8693184  
H   -0.2035108   -0.1502985   -9.1536174  
H    0.5396016   -0.9004189  -11.7976582  
H    2.8659719   -2.9293025  -13.5150232  
H    4.5662457   -4.2690134  -11.4190473  
H    3.9105286   -3.6257361   -9.2760056  
C    0.6496545   -0.7066349   -5.1591666  
C   -0.1496415   -0.0015615   -4.3176961  
C   -1.0762655    0.7401248   -5.1399521  
C   -0.7489652    0.4069443   -6.5394717  
N    0.3061889   -0.4741187   -6.4823094  
C   -1.3994873    0.9058715   -7.6209511  
C   -2.4949746    1.8330543   -7.3912234  
O   -3.1426434    2.3370198   -8.2994331  
C   -2.8587000    2.2002136   -5.9172140  
O   -3.7789322    2.9800103   -5.7114227  
C   -2.0849148    1.5977389   -4.8345631  
H   -1.1436099    0.6484272   -8.6393610  
H   -2.3432252    1.8569888   -3.8168260  
H    1.4608538   -1.3763735   -4.9240181  
C    3.3003543    0.0005276   -1.4738987  
C    2.5232814    0.0003497   -2.6090747  
C    1.1623200   -0.0001320   -2.1820103  
C    1.1711883    0.0000582   -0.7636140  
N    2.4852300   -0.0014919   -0.3662360  
C    0.0000000    0.0000000    0.0000000  
C   -1.2020384    0.0000519   -0.6806477  
O   -2.3759249    0.0003493    0.0157743  
C   -1.2314656   -0.0005115   -2.0955510  
O   -2.5054392   -0.0008039   -2.6250180  
C   -0.0764516   -0.0007274   -2.8495195  
H    2.8919955   -0.0005620   -3.6205304  
H    2.8036267    0.0088183    0.5858662  
H   -3.0835638    0.0000347   -0.6418818  
H   -2.4360047   -0.0011529   -3.5845921  
H    4.3715549    0.0004895   -1.3667136  
C    2.5311839    2.1237619    3.0120429  
C    1.9795631    1.6616747    1.8395852  
C    0.9223175    0.7739173    2.1983588  
C    0.8753926    0.7337535    3.6154372  
N    1.8668922    1.5631002    4.0777464  
C   -0.0496243   -0.0427881    4.3197917  
C   -0.9437528   -0.7922060    3.5801400  
O   -1.8685244   -1.5680278    4.2172520  
C   -0.9124520   -0.7656372    2.1655264  
O   -1.8671164   -1.5663939    1.5732860  
C    0.0000000    0.0000000    1.4700000  
H    2.3005065    1.9304404    0.8477417  
H    2.0679347    1.7444845    5.0445261  
H   -0.0904770   -0.0778569    5.3997470  
H   -2.3849669   -2.0011402    3.5251786  
H   -1.7775064   -1.4909735    0.6183591  
H    3.3468514    2.8078103    3.1724291  
