62

C   -6.8591837   -0.0028490   -5.4777161  
C   -5.8769211   -0.0043371   -6.4408498  
C   -6.5347863   -0.0053944   -7.7064763  
C   -7.9298994   -0.0041891   -7.4503831  
N   -8.0920270   -0.0046071   -6.0871775  
C   -8.8860611   -0.0044611   -8.4704542  
C   -8.4254740   -0.0056704   -9.7727727  
O   -9.3159439   -0.0056361  -10.8072183  
C   -7.0373854   -0.0072595  -10.0485002  
O   -6.7382070   -0.0087522  -11.3952870  
C   -6.0935426   -0.0072655   -9.0426744  
H   -4.8166641   -0.0057301   -6.2541772  
H   -8.9740053    0.0065864   -5.6076262  
H   -9.9507874   -0.0036915   -8.2818819  
H   -8.7917742   -0.0068762  -11.6187046  
H   -5.7812291   -0.0097394  -11.4942613  
H   -5.0371504   -0.0086855   -9.2845674  
C   -3.3460096   -0.0004265   -2.7913646  
C   -4.0351702    0.0002975   -1.6007663  
C   -5.4244873    0.0000966   -1.9238723  
C   -5.5227199   -0.0010536   -3.3388900  
N   -4.2424267    0.0006062   -3.8343331  
C   -6.7482118   -0.0018514   -4.0119108  
C   -7.8954377   -0.0017884   -3.2424625  
O   -9.1185481   -0.0028970   -3.8482795  
C   -7.8179698   -0.0002733   -1.8293760  
O   -9.0483375    0.0000109   -1.2052468  
C   -6.6093336    0.0007876   -1.1647523  
H   -3.5911529    0.0020019   -0.6200324  
H   -3.9968101   -0.0102582   -4.8077478  
H   -9.7745204   -0.0023404   -3.1390800  
H   -8.9066633    0.0010310   -0.2536526  
H   -6.5814276    0.0021214   -0.0813786  
C    0.0000000    0.0000000    0.0000000  
C    1.0662919   -0.0000103   -0.8334269  
C    0.4961869    0.0000064   -2.1718889  
C   -0.9663859   -0.0000850   -1.9540246  
N   -1.2632774   -0.0000084   -0.6828657  
C   -1.8985363   -0.0000518   -3.0477257  
C   -1.3925778    0.0004564   -4.3020545  
O   -2.1456384    0.0005409   -5.4151311  
C    0.0786230    0.0009323   -4.5544998  
O    0.4683758    0.0012588   -5.7221098  
C    1.0143164    0.0008442   -3.4159030  
H    2.1107195    0.0000633   -0.5721867  
H   -1.5042275    0.0009691   -6.1484418  
H    2.0724152    0.0013148   -3.6409744  
C    1.0965515   -0.0001358    2.2710304  
C    0.0000000    0.0000000    1.4700000  
C   -1.1546562   -0.0001469    2.3369512  
C   -0.6372014   -0.0003519    3.7186280  
N    0.7342871   -0.0007337    3.6095011  
C   -1.4147739   -0.0001353    4.8308716  
C   -2.8576048    0.0001048    4.6554461  
O   -3.6427778    0.0002493    5.5944904  
C   -3.4275839    0.0000726    3.2011665  
O   -4.6406829   -0.0000333    3.0410059  
C   -2.4891866    0.0001091    2.0816745  
H   -1.0150448   -0.0001615    5.8354244  
H   -2.8919121    0.0002919    1.0779135  
H    2.1388271   -0.0000662    1.9961646  
H    1.3735872    0.0006099    4.3830260  
