60

C    5.1174354   -4.5965709   -4.0186100  
C    6.3202801   -4.3845684   -4.6516086  
C    6.3320895   -3.0235048   -5.0781823  
C    5.0994604   -2.4498894   -4.6738115  
N    4.3849371   -3.4327294   -4.0349840  
C    4.7662197   -1.1161853   -4.9287104  
C    5.6943437   -0.3474580   -5.6038570  
O    5.4202851    0.9611564   -5.8785093  
C    6.9295675   -0.9018239   -6.0158264  
O    7.7466388   -0.0085353   -6.6774707  
C    7.2588733   -2.2175514   -5.7649396  
H    7.0935664   -5.1206932   -4.7899638  
H    3.4739222   -3.3172648   -3.6291508  
H    6.1893975    1.3083043   -6.3488493  
H    8.5592514   -0.4624032   -6.9209212  
H    8.2125691   -2.6142783   -6.0928868  
H    4.7234618   -5.4862786   -3.5579993  
C    2.8494835   -0.7287725   -3.3362167  
C    3.4912467   -0.5137431   -4.5134921  
C    2.6833698    0.4134337   -5.2701383  
C    1.5099393    0.7231864   -4.4311483  
N    1.6707636   -0.0012343   -3.2725974  
C    0.5077399    1.5643692   -4.7913044  
C    0.5901938    2.2074060   -6.0921659  
O   -0.2621883    2.9813176   -6.5078653  
C    1.8239356    1.8937367   -6.9973164  
O    1.9040948    2.4289607   -8.0947548  
C    2.8403293    0.9701078   -6.4996160  
H   -0.3442082    1.7780229   -4.1608711  
H    3.6915232    0.7583833   -7.1323605  
H    3.1383514   -1.3576862   -2.5098316  
C    1.0965514    0.0001358   -0.8010306  
C    0.0000000    0.0000000    0.0000000  
C   -1.1546565    0.0001470   -0.8669508  
C   -0.6372019    0.0003520   -2.2486278  
N    0.7342867    0.0007338   -2.1395012  
C   -1.4147744    0.0001354   -3.3608712  
C   -2.8576052   -0.0001047   -3.1854454  
O   -3.6427785   -0.0002490   -4.1244896  
C   -3.4275841   -0.0000727   -1.7311660  
O   -4.6406832    0.0000333   -1.5710049  
C   -2.4891868   -0.0001090   -0.6116739  
H   -1.0150456    0.0001617   -4.3654239  
H   -2.8919122   -0.0002919    0.3920871  
H    2.1388270    0.0000663   -0.5261650  
C    2.5128556    2.1077716    2.9199648  
C    1.9592212    1.6432552    4.0696553  
C    0.8915788    0.7479214    3.6910360  
C    0.8684491    0.7287414    2.2159470  
N    1.8754542    1.5738793    1.8102719  
C    0.0000000    0.0000000    1.4700000  
C   -0.9772830   -0.8200135    2.1664417  
O   -1.8021297   -1.5120829    1.5842315  
C   -0.9711318   -0.8147624    3.7284083  
O   -1.7894187   -1.5009653    4.3257297  
C    0.0140216    0.0115358    4.4216297  
H    2.2638494    1.8988021    5.0689105  
H    0.0117648    0.0094386    5.5031631  
H    3.3327358    2.7953732    2.7900019  
H    2.1123206    1.7707734    0.8551938  
