60

C   -4.4234274    2.1222536   -0.0293805  
C   -3.3650429    1.6606157   -0.7771636  
C   -3.9025167    0.7730545   -1.7559166  
C   -5.3060547    0.7325422   -1.5550032  
N   -5.5885352    1.5615014   -0.4978137  
C   -6.1607758   -0.0439273   -2.3432513  
C   -5.5882383   -0.7929132   -3.3529036  
O   -6.3767050   -1.5686456   -4.1526367  
C   -4.1898497   -0.7659922   -3.5687764  
O   -3.7730107   -1.5663378   -4.6123448  
C   -3.3460098   -0.0004261   -2.7913644  
H   -2.3324827    1.9295467   -0.6340274  
H   -6.5054757    1.7425841   -0.1311936  
H   -7.2312993   -0.0792603   -2.1951496  
H   -5.7852143   -2.0014411   -4.7819951  
H   -2.8171053   -1.4906985   -4.6906199  
H   -4.4392468    2.8060390    0.8019717  
C    0.0000000    0.0000000    0.0000000  
C    1.0662918   -0.0000103   -0.8334272  
C    0.4961866    0.0000066   -2.1718888  
C   -0.9663862   -0.0000848   -1.9540246  
N   -1.2632777   -0.0000084   -0.6828658  
C   -1.8985367   -0.0000514   -3.0477256  
C   -1.3925783    0.0004569   -4.3020543  
O   -2.1456389    0.0005417   -5.4151310  
C    0.0786225    0.0009329   -4.5544999  
O    0.4683752    0.0012595   -5.7221105  
C    1.0143159    0.0008446   -3.4159033  
H    2.1107193    0.0000632   -0.5721869  
H   -1.5042282    0.0009699   -6.1484418  
C    2.4521470    0.0014842   -3.7217487  
C    3.5087816    0.0013023   -2.8687549  
C    4.7039139    0.0022083   -3.6789976  
C    4.2537117    0.0029674   -5.0840268  
N    2.8785556    0.0020817   -5.0411859  
C    5.0840310    0.0043219   -6.1574662  
C    6.5167198    0.0048564   -5.9126445  
O    7.3462762    0.0060005   -6.8127192  
C    7.0158834    0.0038171   -4.4325636  
O    8.2198443    0.0039486   -4.2140713  
C    6.0245760    0.0026612   -3.3596421  
H    3.4569030    0.0004298   -1.7945474  
H    4.7332257    0.0049894   -7.1801313  
H    6.3784131    0.0021517   -2.3376229  
H    2.2773129    0.0038593   -5.8446485  
C    1.1319247   -0.0015655    2.2709268  
C    0.7969915   -0.0034943    3.5869401  
C   -0.6453339   -0.0035710    3.6542670  
C   -1.1266833   -0.0015433    2.2596025  
N    0.0000000    0.0000000    1.4700000  
C   -2.4346130   -0.0013964    1.8976294  
C   -3.4350110   -0.0031408    2.9520183  
O   -4.6384611   -0.0030974    2.7283916  
C   -2.9478959   -0.0050506    4.4361073  
O   -3.7809380   -0.0062218    5.3323774  
C   -1.5113823   -0.0053090    4.7012123  
H    1.4821238   -0.0045407    4.4159191  
H   -2.7664565   -0.0000232    0.8686553  
H   -1.1823530   -0.0068408    5.7314848  
H    2.1104316   -0.0009391    1.8188057  
