60

C   -9.1780709    3.2768368   -1.1395084  
C   -8.0220206    2.5949410   -1.4412252  
C   -8.3824360    1.2279564   -1.6311062  
C   -9.7836031    1.1352826   -1.4309388  
N  -10.2349506    2.3968917   -1.1321986  
C  -10.4849844   -0.0693475   -1.5391944  
C   -9.7587096   -1.2009863   -1.8555744  
O  -10.3936672   -2.4033995   -1.9740860  
C   -8.3600100   -1.1288151   -2.0586688  
O   -7.7797436   -2.3419583   -2.3667567  
C   -7.6673854    0.0591955   -1.9517685  
H   -7.0396158    3.0291507   -1.5142664  
H  -11.1910861    2.6432655   -0.9503066  
H  -11.5528203   -0.1466601   -1.3877012  
H   -9.7122969   -3.0512823   -2.1960039  
H   -6.8351875   -2.2052311   -2.4880929  
H   -9.3321343    4.3210068   -0.9275373  
C   -4.2186865    2.1401318   -0.0437260  
C   -5.4804250    1.7323141   -0.3144295  
C   -5.3466897    0.8217462   -1.4411418  
C   -3.8965666    0.7958597   -1.7293371  
N   -3.2302259    1.5666944   -0.9133753  
C   -3.3460097   -0.0004262   -2.7913647  
C   -4.2050302   -0.7376508   -3.5315799  
O   -3.8298203   -1.5261790   -4.5530896  
C   -5.6737596   -0.7329691   -3.2651708  
O   -6.3965398   -1.4282088   -3.9789289  
C   -6.2140638    0.0921566   -2.1701080  
H   -6.3895961    2.0144736    0.1884319  
H   -4.6590779   -1.9185769   -4.8809753  
H   -3.8917480    2.8223391    0.7248296  
C    0.0000000    0.0000000    0.0000000  
C    1.0662919   -0.0000103   -0.8334272  
C    0.4961868    0.0000066   -2.1718889  
C   -0.9663860   -0.0000849   -1.9540248  
N   -1.2632775   -0.0000084   -0.6828659  
C   -1.8985364   -0.0000515   -3.0477258  
C   -1.3925778    0.0004567   -4.3020543  
O   -2.1456385    0.0005412   -5.4151314  
C    0.0786229    0.0009326   -4.5544999  
O    0.4683756    0.0012594   -5.7221104  
C    1.0143162    0.0008443   -3.4159034  
H    2.1107195    0.0000631   -0.5721869  
H   -1.5042277    0.0009692   -6.1484420  
H    2.0724151    0.0013151   -3.6409746  
C    3.1301144    0.0010313    3.1728260  
C    2.5367765    0.0002768    1.9564670  
C    1.1089900   -0.0001027    2.2356185  
C    1.0177864    0.0004150    3.7115134  
N    2.1993570    0.0011613    4.2663826  
C   -0.2459220    0.0002880    4.3957118  
C   -1.3675327    0.0000606    3.6398520  
O   -2.6129319   -0.0000866    4.1448486  
C   -1.3083589   -0.0000910    2.1483229  
O   -2.3693264   -0.0004206    1.5241687  
C    0.0000000    0.0000000    1.4700000  
H    3.0096015    0.0001008    0.9892483  
H   -0.2829642    0.0004689    5.4753125  
H   -3.1967446   -0.0002093    3.3649027  
H    4.1849273    0.0015113    3.3971983  
