66

C    4.3172190   -2.1276211   -1.4346673  
C    5.3517550   -1.6299838   -2.1926640  
C    4.7753711   -0.7549581   -3.1605022  
C    3.3738280   -0.7583999   -2.9423474  
N    3.1294638   -1.6035967   -1.8885227  
C    2.4861704   -0.0045255   -3.7159919  
C    3.0231743    0.7671115   -4.7281092  
O    2.2016876    1.5228929   -5.5135828  
C    4.4189003    0.7834870   -4.9615577  
O    4.7982355    1.6013212   -6.0058733  
C    5.2951626    0.0398126   -4.1989051  
H    6.3935663   -1.8691800   -2.0645687  
H    2.2250250   -1.7989298   -1.4988873  
H    2.7718796    1.9765076   -6.1479166  
H    5.7549244    1.5549959   -6.0964457  
H    4.3324700   -2.8160053   -0.6071082  
C    8.4567013   -3.1215339   -4.2136240  
C    7.2609206   -2.4486746   -4.1144504  
C    7.5280879   -1.0790558   -4.4100277  
C    8.9158457   -0.9755366   -4.6845120  
N    9.4499353   -2.2335018   -4.5545553  
C    9.5329743    0.2343881   -5.0162070  
C    8.7345738    1.3602687   -5.0721225  
O    9.2856453    2.5674619   -5.3915246  
C    7.3480252    1.2772692   -4.8011740  
O    6.6895466    2.4857766   -4.8974007  
C    6.7385877    0.0840300   -4.4736198  
H    6.3129177   -2.8904449   -3.8592585  
H   10.4141991   -2.4724439   -4.6997559  
H   10.5901914    0.3199655   -5.2263746  
H    8.5644513    3.2099907   -5.3741633  
H    5.7590803    2.3417464   -4.6996850  
H    8.6799410   -4.1643897   -4.0667409  
C    0.0000000    0.0000000    0.0000000  
C    1.0521669   -0.0011848   -0.8862341  
C    0.4917221   -0.0011931   -2.1979130  
C   -0.9187427    0.0003100   -2.0478683  
N   -1.1833170   -0.0009472   -0.7007915  
C   -1.7951698    0.0010259   -3.1372090  
C   -1.2375835    0.0005161   -4.4010425  
O   -2.0474208    0.0015256   -5.4997580  
C    0.1673584   -0.0013557   -4.5711962  
O    0.5673529   -0.0020659   -5.8915551  
C    1.0325773   -0.0023359   -3.4969890  
H    2.0953059   -0.0030542   -0.6200560  
H   -2.0989777    0.0102265   -0.2891825  
H   -2.8710930    0.0020274   -3.0295514  
H   -1.4634881    0.0006427   -6.2693593  
H    1.5290715   -0.0033076   -5.9180042  
C    1.1188642   -0.0008217    2.2703808  
C    0.0000000    0.0000000    1.4700000  
C   -1.1323862   -0.0008904    2.3373528  
C   -0.6382662   -0.0019682    3.6669281  
N    0.7324016   -0.0038477    3.5902241  
C   -1.4770914   -0.0027325    4.7854808  
C   -2.8395474   -0.0020958    4.5576857  
O   -3.7039201   -0.0024443    5.6140350  
C   -3.3517868   -0.0013946    3.2384331  
O   -4.7300496   -0.0012389    3.1773122  
C   -2.5248543   -0.0009135    2.1344818  
H    1.3576314    0.0056174    4.3757045  
H   -1.1067570   -0.0036993    5.8013813  
H   -4.5940033   -0.0021850    5.2385129  
H   -4.9934601   -0.0007286    2.2519915  
H   -2.9462578   -0.0005617    1.1360343  
H    2.1619896   -0.0009344    2.0042067  
