60

C    9.5916971   -0.7186587    1.9280171  
C    9.0339157   -0.0011769    0.8952693  
C   10.0922797    0.7259930    0.2742301  
C   11.2830367    0.4095058    0.9769820  
N   10.9431807   -0.4685864    1.9760164  
C   12.5276720    0.9481579    0.6370897  
C   12.5710840    1.8219890   -0.4318876  
O   13.7605398    2.3767267   -0.8066881  
C   11.3937625    2.1503899   -1.1452489  
O   11.6014420    3.0347024   -2.1836148  
C   10.1655133    1.6195841   -0.8103232  
H   11.5837623   -0.8771932    2.6322765  
H   13.4388750    0.7110746    1.1687843  
H   13.5695026    2.9477555   -1.5621319  
H   10.7571160    3.2035071   -2.6128260  
H    9.2809835    1.8899063   -1.3751335  
H    9.1321878   -1.3878899    2.6350812  
C    6.5597224   -0.0008210    1.3835014  
C    7.6114515   -0.0009111    0.5244666  
C    7.0637934   -0.0009868   -0.8115372  
C    5.5962696   -0.0009035   -0.6593386  
N    5.3559137   -0.0012035    0.6953271  
C    4.7161325   -0.0005435   -1.6923264  
C    5.2498348   -0.0004420   -3.0442500  
O    4.5392134   -0.0001857   -4.0409037  
C    6.8008623   -0.0007794   -3.2289604  
O    7.2618442   -0.0010041   -4.3624314  
C    7.6474457   -0.0008759   -2.0385199  
H    8.7203338   -0.0009043   -2.1750270  
H    6.5627896   -0.0007238    2.4614069  
H    4.4461411    0.0003272    1.1188348  
C    3.2573665   -0.0002920   -1.5109385  
C    2.5379463   -0.0001709   -0.3591964  
C    1.1435038    0.0000331   -0.7338500  
C    1.1092599   -0.0000083   -2.2088477  
N    2.4227553    0.0001909   -2.6182613  
C   -0.0265539   -0.0002524   -2.9515660  
C   -1.3003040   -0.0002640   -2.2514977  
O   -2.3786790   -0.0004133   -2.8306421  
C   -1.2877727    0.0000311   -0.6895603  
O   -2.3539959    0.0003306   -0.0892030  
C    0.0000000    0.0000000    0.0000000  
H    2.9384091   -0.0000367    0.6389234  
H   -0.0296303   -0.0004086   -4.0327229  
H    2.7280482   -0.0013407   -3.5742119  
C    0.8175213    0.6860729    2.3021913  
C    0.0000000    0.0000000    1.4700000  
C   -0.8887526   -0.7456559    2.3478473  
C   -0.4549825   -0.3816753    3.7138435  
N    0.5448156    0.4573574    3.6934124  
C   -1.0945674   -0.9182058    4.8835240  
C   -2.1210866   -1.7789155    4.6970523  
O   -2.8083856   -2.3554314    5.6976972  
C   -2.5824069   -2.1655116    3.3310774  
O   -3.5227682   -2.9541547    3.2362962  
C   -1.9100805   -1.6015804    2.1470656  
H   -0.7567140   -0.6349833    5.8697035  
H   -3.4728268   -2.9124471    5.2533954  
H   -2.2742832   -1.9066565    1.1752040  
H    1.6189533    1.3585343    2.0405121  
