62

C    4.9209563   -4.3477971   -7.1217580  
C    3.8412590   -3.5267024   -6.8925724  
C    3.5409613   -3.6124836   -5.5007888  
C    4.4790980   -4.5083787   -4.9270308  
N    5.3011192   -4.9379328   -5.9391487  
C    4.4817874   -4.8318192   -3.5668221  
C    3.5201001   -4.2398437   -2.7712714  
O    3.4776006   -4.5202568   -1.4361398  
C    2.5752519   -3.3436576   -3.3252832  
O    1.6822025   -2.8375964   -2.4034869  
C    2.5718380   -3.0243255   -4.6671261  
H    3.3319797   -2.9391433   -7.6371537  
H    6.0706021   -5.5737698   -5.8315103  
H    5.1939869   -5.5139902   -3.1234069  
H    2.7419949   -4.0099139   -1.0732353  
H    1.0796164   -2.2418730   -2.8591255  
H    5.4490562   -4.5602836   -8.0354970  
C    1.5730417   -2.0888198   -5.2039079  
C    1.4267857   -1.6687779   -6.4820917  
C    0.2928026   -0.7579746   -6.4501588  
C   -0.1353499   -0.7453431   -5.0348464  
N    0.6114414   -1.5235251   -4.2995067  
C   -1.2456329    0.0471727   -4.5828766  
C   -1.8982730    0.7934563   -5.5029073  
O   -2.9511439    1.5798097   -5.2215673  
C   -1.4899805    0.8022335   -6.9386583  
O   -2.1295866    1.5052158   -7.7209243  
C   -0.3478313   -0.0192623   -7.3774796  
H    2.0157441   -1.9430541   -7.3405653  
H   -3.1964702    1.9804406   -6.0750677  
H   -0.0836678    0.0148381   -8.4259472  
C    1.1243410    0.0099923   -0.7919003  
C    0.7474076    0.0234544   -2.1148543  
C   -0.6787381    0.0234490   -2.1414700  
C   -1.1201745    0.0098592   -0.7935546  
N    0.0000000    0.0000000    0.0000000  
C   -2.4730816    0.0063709   -0.4408240  
C   -3.3971958    0.0170982   -1.4675058  
O   -4.7313517    0.0146259   -1.1793471  
C   -2.9763648    0.0303504   -2.8186324  
O   -4.0166480    0.0395118   -3.7247624  
C   -1.6418562    0.0335260   -3.1673481  
H    1.4178717    0.0310972   -2.9571209  
H   -2.8160166   -0.0041111    0.5845966  
H   -5.1938818    0.0230867   -2.0274384  
H   -3.6464675    0.0482293   -4.6127343  
H    2.1062467    0.0052819   -0.3505407  
C    0.8175213    0.6860729    2.3021913  
C    0.0000000    0.0000000    1.4700000  
C   -0.8887526   -0.7456559    2.3478473  
C   -0.4549825   -0.3816753    3.7138435  
N    0.5448156    0.4573574    3.6934124  
C   -1.0945674   -0.9182058    4.8835240  
C   -2.1210866   -1.7789155    4.6970523  
O   -2.8083856   -2.3554314    5.6976972  
C   -2.5824069   -2.1655116    3.3310774  
O   -3.5227682   -2.9541547    3.2362962  
C   -1.9100805   -1.6015804    2.1470656  
H   -0.7567140   -0.6349833    5.8697035  
H   -3.4728268   -2.9124471    5.2533954  
H   -2.2742832   -1.9066565    1.1752040  
H    1.6189533    1.3585343    2.0405121  
