60

C    3.8737440   -5.6350136   -7.4120814  
C    3.1377232   -4.6499078   -6.7953895  
C    3.3648870   -3.4437678   -7.5221791  
C    4.2553764   -3.7571818   -8.5808239  
N    4.5458957   -5.0953826   -8.4836965  
C    4.6992296   -2.8044517   -9.5028250  
C    4.2354579   -1.5118491   -9.3535930  
O    4.6367750   -0.5421766  -10.2263433  
C    3.3468279   -1.1795020   -8.3034979  
O    2.9760411    0.1492726   -8.2887099  
C    2.9087512   -2.1188234   -7.3933930  
H    2.5146997   -4.7838953   -5.9277022  
H    5.1451978   -5.6058614   -9.1067770  
H    5.3779906   -3.0369010  -10.3118077  
H    4.2027203    0.2740895   -9.9460391  
H    2.3760670    0.2894143   -7.5497952  
H    3.9735575   -6.6795703   -7.1714626  
C    1.9957412   -2.1407953   -5.0258943  
C    1.9855628   -1.7332340   -6.3163859  
C    0.8551749   -0.8225482   -6.4132069  
C    0.2799734   -0.7963197   -5.0512083  
N    0.9444052   -1.5670716   -4.2336130  
C   -0.8712826    0.0001710   -4.7267111  
C   -1.4226087    0.7372645   -5.7177042  
O   -2.4987599    1.5259551   -5.5567519  
C   -0.8649831    0.7322381   -7.1023301  
O   -1.4179257    1.4273747   -7.9545394  
C    0.3165526   -0.0930926   -7.4101071  
H   -2.6523129    1.9181964   -6.4352285  
H    0.6899766   -0.0690846   -8.4250991  
H    2.6823202   -2.8229905   -4.5502976  
C    1.0965514    0.0001359   -0.8010305  
C    0.0000000    0.0000000    0.0000000  
C   -1.1546563    0.0001470   -0.8669513  
C   -0.6372014    0.0003519   -2.2486282  
N    0.7342871    0.0007337   -2.1395014  
C   -1.4147739    0.0001352   -3.3608717  
C   -2.8576049   -0.0001048   -3.1854462  
O   -3.6427779   -0.0002494   -4.1244907  
C   -3.4275840   -0.0000725   -1.7311666  
O   -4.6406831    0.0000333   -1.5710060  
C   -2.4891867   -0.0001091   -0.6116744  
H   -2.8919122   -0.0002918    0.3920866  
H    2.1388272    0.0000663   -0.5261648  
H    1.3735872   -0.0006099   -2.9130262  
C    0.8681109    0.7263879    2.2709268  
C    0.6127770    0.5096195    3.5869401  
C   -0.4920590   -0.4175482    3.6542670  
C   -0.8620974   -0.7254003    2.2596025  
N    0.0000000    0.0000000    1.4700000  
C   -1.8641242   -1.5660088    1.8976294  
C   -2.6293522   -2.2103885    2.9520183  
O   -3.5512764   -2.9839180    2.7283916  
C   -2.2549728   -1.8987399    4.4361073  
O   -2.8923672   -2.4351063    5.3323774  
C   -1.1543735   -0.9755647    4.7012123  
H    1.1382914    0.9492124    4.4159191  
H   -2.1192137   -1.7782617    0.8686553  
H   -0.9013378   -0.7652422    5.7314848  
H    1.6172880    1.3558399    1.8188057  
