64

C    0.9653611   -3.1773110  -10.2570485  
C    0.5527018   -2.5059139   -9.1294825  
C    0.3994538   -1.1353409   -9.4936874  
C    0.7352781   -1.0297585  -10.8677322  
N    1.0760343   -2.2874703  -11.2997787  
C    0.6964290    0.1815650  -11.5648514  
C    0.3112631    1.3067492  -10.8621526  
O    0.2557316    2.5152447  -11.4941879  
C   -0.0272249    1.2216958   -9.4906540  
O   -0.3898708    2.4297433   -8.9316796  
C    0.0111366    0.0270753   -8.8022236  
H    0.3840645   -2.9492493   -8.1630418  
H    1.3501449   -2.5250832  -12.2359321  
H    0.9513148    0.2687165  -12.6120566  
H   -0.0312570    3.1569883  -10.8315664  
H   -0.6027533    2.2842988   -8.0047874  
H    1.1908810   -4.2202732  -10.3996318  
C    1.5730421   -2.0888199   -5.2039073  
C    1.4267859   -1.6687785   -6.4820906  
C    0.2928030   -0.7579751   -6.4501587  
C   -0.1353496   -0.7453433   -5.0348464  
N    0.6114415   -1.5235254   -4.2995057  
C   -1.2456329    0.0471727   -4.5828766  
C   -1.8982726    0.7934561   -5.5029077  
O   -2.9511436    1.5798093   -5.2215673  
C   -1.4899798    0.8022328   -6.9386586  
O   -2.1295862    1.5052153   -7.7209247  
C   -0.3478305   -0.0192633   -7.3774794  
H    2.0157446   -1.9430547   -7.3405642  
H   -3.1964695    1.9804398   -6.0750680  
H    2.3057727   -2.7751199   -4.8101161  
C    1.1243410    0.0099923   -0.7919003  
C    0.7474076    0.0234544   -2.1148543  
C   -0.6787381    0.0234490   -2.1414700  
C   -1.1201745    0.0098592   -0.7935546  
N    0.0000000    0.0000000    0.0000000  
C   -2.4730816    0.0063709   -0.4408240  
C   -3.3971958    0.0170982   -1.4675058  
O   -4.7313517    0.0146259   -1.1793471  
C   -2.9763648    0.0303504   -2.8186324  
O   -4.0166480    0.0395118   -3.7247624  
C   -1.6418562    0.0335260   -3.1673481  
H    1.4178717    0.0310972   -2.9571209  
H   -2.8160166   -0.0041111    0.5845966  
H   -5.1938818    0.0230867   -2.0274384  
H   -3.6464675    0.0482293   -4.6127343  
H    2.1062467    0.0052819   -0.3505407  
C    2.5285572    2.1210227    2.9438989  
C    1.9331703    1.6216660    4.0790748  
C    0.8903039    0.7472258    3.6520102  
C    0.8972198    0.7527806    2.2336141  
N    1.9028376    1.5986179    1.8362361  
C    0.0000000    0.0000000    1.4700000  
C   -0.9207814   -0.7726952    2.1506477  
O   -1.8198395   -1.5274828    1.4542253  
C   -0.9436862   -0.7911793    3.5655508  
O   -1.9197945   -1.6098497    4.0950179  
C   -0.0590329   -0.0485852    4.3195194  
H    2.2150357    1.8593692    5.0905303  
H    2.1533708    1.7953814    0.8841339  
H   -2.3621246   -1.9821033    2.1118817  
H   -1.8668290   -1.5649508    5.0545920  
H   -0.1007624   -0.0827977    5.4019087  
H    3.3491200    2.8096064    2.8367138  
