64

C    5.0534562   -0.9797857   -8.7413351  
C    4.5894920    0.0958017   -8.0200047  
C    4.6808985    1.2377107   -8.8698811  
C    5.2119714    0.7936821  -10.1079136  
N    5.4286010   -0.5572342   -9.9951560  
C    5.4385328    1.6546278  -11.1859818  
C    5.1229509    2.9880558  -11.0111792  
O    5.3239020    3.8721025  -12.0315200  
C    4.5924906    3.4503070   -9.7832749  
O    4.3301638    4.8046419   -9.7658156  
C    4.3689740    2.6015757   -8.7192150  
H    5.7914648   -1.1493260  -10.7202334  
H    5.8431821    1.3224771  -12.1320988  
H    5.0422781    4.7360832  -11.7036637  
H    3.9749024    5.0345164   -8.9017845  
H    3.9617552    2.9846402   -7.7908226  
H    5.1478008   -2.0146783   -8.4601673  
C    5.9953298   -2.1198587   -4.4000425  
C    5.8617355   -1.6205583   -5.6749221  
C    4.7347034   -0.7463313   -5.6637107  
C    4.2167179   -0.7519520   -4.3432613  
N    5.0043209   -1.5976220   -3.6022211  
C    3.1006054    0.0006263   -3.9654951  
C    2.4965723    0.7731834   -4.9383657  
O    1.4035938    1.5277714   -4.6237102  
C    2.9984077    0.7917304   -6.2614812  
O    2.2870645    1.6102452   -7.1143401  
C    4.0992761    0.0493358   -6.6349318  
H    6.4976311   -1.8581611   -6.5104917  
H    4.8851262   -1.7943842   -2.6249501  
H    1.1427970    1.9823229   -5.4352719  
H    2.6910609    1.5654018   -7.9863372  
H    6.7182510   -2.8082954   -3.9970553  
C    3.2798083    0.0005857   -1.4499652  
C    2.5571142    0.0005565   -2.5996556  
C    1.1637432    0.0001548   -2.2210361  
C    1.1336964   -0.0000200   -0.7459473  
N    2.4483512   -0.0001428   -0.3402723  
C    0.0000000    0.0000000    0.0000000  
C   -1.2757368   -0.0000186   -0.6964415  
O   -2.3524598   -0.0000639   -0.1142311  
C   -1.2676497   -0.0000872   -2.2584083  
O   -2.3355766   -0.0004101   -2.8557295  
C    0.0181558    0.0001758   -2.9516296  
H    0.0150788    0.0003319   -4.0331631  
H    4.3498547    0.0008612   -1.3200026  
H    2.7563626    0.0012823    0.6148059  
C    2.5285572    2.1210227    2.9438989  
C    1.9331703    1.6216660    4.0790748  
C    0.8903039    0.7472258    3.6520102  
C    0.8972198    0.7527806    2.2336141  
N    1.9028376    1.5986179    1.8362361  
C    0.0000000    0.0000000    1.4700000  
C   -0.9207814   -0.7726952    2.1506477  
O   -1.8198395   -1.5274828    1.4542253  
C   -0.9436862   -0.7911793    3.5655508  
O   -1.9197945   -1.6098497    4.0950179  
C   -0.0590329   -0.0485852    4.3195194  
H    2.2150357    1.8593692    5.0905303  
H    2.1533708    1.7953814    0.8841339  
H   -2.3621246   -1.9821033    2.1118817  
H   -1.8668290   -1.5649508    5.0545920  
H   -0.1007624   -0.0827977    5.4019087  
H    3.3491200    2.8096064    2.8367138  
