60

C   10.0451619    2.1291470   -6.3959374  
C   11.2726128    1.6318385   -6.0237577  
C   11.0498554    0.7564596   -4.9198146  
C    9.6552179    0.7593571   -4.6611535  
N    9.0751246    1.6045832   -5.5742270  
C    9.0743779    0.0050263   -3.6372398  
C    9.9167263   -0.7665154   -2.8604831  
O    9.4022389   -1.5227274   -1.8473396  
C   11.3109477   -0.7823508   -3.1027903  
O   12.0152239   -1.6001582   -2.2434128  
C   11.8846820   -0.0382264   -4.1125590  
H   12.2130136    1.8714746   -6.4898214  
H    8.0926016    1.7995955   -5.6420534  
H   10.1505887   -1.9761874   -1.4379348  
H   12.9478484   -1.5534540   -2.4750044  
H   12.9558181   -0.0704159   -4.2741516  
H    9.7850528    2.8176381   -7.1816087  
C    6.6317370    0.0027575   -4.3241615  
C    5.4016575    0.0020952   -3.7488541  
C    5.6054515    0.0015083   -2.3194126  
C    7.0655600    0.0019150   -2.1075798  
N    7.6303538    0.0022713   -3.3621306  
C    7.6659167    0.0019591   -0.8905027  
C    6.8173812    0.0013545    0.2895490  
O    7.2622819    0.0012817    1.4298836  
C    5.2683493    0.0006644    0.0887880  
O    4.5438183   -0.0001546    1.0748485  
C    4.7390840    0.0009613   -1.2727298  
H    4.4591018    0.0018434   -4.2667371  
H    8.7388159    0.0023907   -0.7570952  
H    6.8927419    0.0033433   -5.3699943  
C    3.2798077    0.0005856   -1.4499661  
C    2.5571132    0.0005565   -2.5996564  
C    1.1637425    0.0001547   -2.2210366  
C    1.1336959   -0.0000200   -0.7459475  
N    2.4483509   -0.0001429   -0.3402730  
C    0.0000000    0.0000000    0.0000000  
C   -1.2757370   -0.0000187   -0.6964411  
O   -2.3524597   -0.0000640   -0.1142306  
C   -1.2676502   -0.0000874   -2.2584078  
O   -2.3355774   -0.0004102   -2.8557287  
C    0.0181551    0.0001758   -2.9516297  
H    2.9547342    0.0006074   -3.5989118  
H    0.0150776    0.0003317   -4.0331632  
H    2.7563626    0.0012823    0.6148051  
C    2.3971438    2.0127888    3.1728260  
C    1.9431056    1.6308205    1.9564670  
C    0.8496017    0.7127664    2.2356185  
C    0.7794028    0.6545384    3.7115134  
N    1.6840587    1.4146091    4.2663826  
C   -0.1885723   -0.1578550    4.3957118  
C   -1.0476298   -0.8789867    3.6398520  
O   -2.0015663   -1.6796266    4.1448486  
C   -1.0022026   -0.8410666    2.1483229  
O   -1.8147390   -1.5232959    1.5241687  
C    0.0000000    0.0000000    1.4700000  
H    2.3054237    1.9346118    0.9892483  
H   -0.2170646   -0.1815267    5.4753125  
H   -2.4487139   -2.0549881    3.3649027  
H    3.2048689    2.6911772    3.3971983  
