62

C    1.8559644   -1.8420075   -8.4420107  
C    2.8015662   -2.6609619   -9.0143891  
C    2.6263590   -2.5751017  -10.4273762  
C    1.5500771   -1.6809270  -10.6597425  
N    1.1040155   -1.2556743   -9.4330382  
C    1.0992057   -1.3574337  -11.9430415  
C    1.7468259   -1.9471160  -13.0112367  
O    1.3474233   -1.6660074  -14.2857834  
C    2.8224695   -2.8421359  -12.7996989  
O    3.3631129   -3.3465690  -13.9644293  
C    3.2676211   -3.1619378  -11.5339609  
H    3.5275287   -3.2488723   -8.4792887  
H    0.3539182   -0.6057443   -9.2816235  
H    0.2793617   -0.6767886  -12.1268373  
H    1.9232826   -2.1751657  -14.8709407  
H    4.0828451   -3.9415447  -13.7329261  
H    4.0938016   -3.8509805  -11.4031042  
C    2.2783849   -2.0910257   -5.9524491  
C    1.7853127   -1.6292412   -4.7744381  
C    0.6997749   -0.7327359   -5.0949402  
C    0.6001069   -0.7099363   -6.5667883  
N    1.5849256   -1.5536733   -7.0262766  
C   -0.3061438    0.0202236   -7.2648431  
C   -1.2459580    0.8383997   -6.5165965  
O   -2.1000519    1.5316274   -7.0534952  
C   -1.1584126    0.8296992   -4.9570889  
O   -1.9441939    1.5148019   -4.3164307  
C   -0.1387079    0.0017019   -4.3179684  
H    2.1415247   -1.8870539   -3.7929800  
H   -0.3624275    0.0226853   -8.3445354  
H    3.0901481   -2.7785182   -6.1264725  
C    3.3041273    0.0001178   -1.5420428  
C    2.5845373   -0.0004780   -0.3695851  
C    1.2040007   -0.0000007   -0.7283589  
C    1.1422374    0.0006038   -2.1454372  
N    2.4348641    0.0026111   -2.6077464  
C   -0.0655179    0.0008799   -2.8497918  
C   -1.2321766    0.0002325   -2.1101402  
O   -2.4392814    0.0001148   -2.7472522  
C   -1.1911209   -0.0000007   -0.6955266  
O   -2.4371528   -0.0002320   -0.1032862  
C    0.0000000    0.0000000    0.0000000  
H    3.0031533   -0.0000660    0.6222584  
H    2.7054631   -0.0071097   -3.5745261  
H   -3.1132988   -0.0000648   -2.0551787  
H   -2.3200282   -0.0004072    0.8516409  
H    4.3686625    0.0004073   -1.7024290  
C    0.0000000    0.0000000    1.4700000  
C    1.0541688    0.0001722    2.3260392  
C    0.5103138    0.0000454    3.6635956  
C   -0.9576371   -0.0002459    3.5155732  
N   -1.2018458    0.0001392    2.1615969  
C   -1.8348311   -0.0008317    4.5510609  
C   -1.2972847   -0.0009736    5.9014604  
O   -2.0050672   -0.0014265    6.9001319  
C    0.2542623   -0.0004184    6.0817573  
O    0.7184670   -0.0002256    7.2139121  
C    1.0974552   -0.0000873    4.8889129  
H    2.0940752    0.0005483    2.0517982  
H   -2.9081052   -0.0011668    4.4207061  
H    2.1707277    0.0000911    5.0223670  
H   -2.1128194   -0.0014912    1.7406791  
