62

C    5.1635323   -3.7199739    0.3283641  
C    4.7072872   -4.5220549    1.3486445  
C    3.2899400   -4.3689852    1.3965633  
C    2.9353302   -3.4535262    0.3727889  
N    4.0967319   -3.0775561   -0.2552322  
C    1.6141788   -3.0666037    0.1285789  
C    0.6331003   -3.6140325    0.9323105  
O   -0.6734794   -3.2709591    0.7369581  
C    0.9670943   -4.5288092    1.9591734  
O   -0.1217903   -4.9849591    2.6730368  
C    2.2702591   -4.9107615    2.2008350  
H    5.3207011   -5.1404572    1.9813348  
H    1.3373638   -2.3692147   -0.6500249  
H   -1.1852219   -3.7586958    1.3953642  
H    0.1906354   -5.5973158    3.3460994  
H    2.4955564   -5.6132548    2.9947010  
H    6.1656645   -3.5542129   -0.0283055  
C    4.1863612   -2.1478769   -1.3903811  
C    5.2964354   -1.7420564   -2.0496420  
C    4.8117016   -0.8307209   -3.0748252  
C    3.3454835   -0.8022506   -2.8851479  
N    2.9730518   -1.5723541   -1.8991335  
C    2.4861704   -0.0045255   -3.7159919  
C    3.0653208    0.7316068   -4.6917118  
O    2.3851025    1.5212592   -5.5401182  
C    4.5422559    0.7243205   -4.9079759  
O    5.0006617    1.4186849   -5.8151378  
C    5.4023457   -0.1022428   -4.0425497  
H    6.3180530   -2.0259909   -1.8632149  
H    3.0670359    1.9124169   -6.1155445  
H    6.4672338   -0.0798677   -4.2316059  
C    0.0000000    0.0000000    0.0000000  
C    1.0521669   -0.0011848   -0.8862341  
C    0.4917221   -0.0011931   -2.1979130  
C   -0.9187427    0.0003100   -2.0478683  
N   -1.1833170   -0.0009472   -0.7007915  
C   -1.7951698    0.0010259   -3.1372090  
C   -1.2375835    0.0005161   -4.4010425  
O   -2.0474208    0.0015256   -5.4997580  
C    0.1673584   -0.0013557   -4.5711962  
O    0.5673529   -0.0020659   -5.8915551  
C    1.0325773   -0.0023359   -3.4969890  
H    2.0953059   -0.0030542   -0.6200560  
H   -2.0989777    0.0102265   -0.2891825  
H   -2.8710930    0.0020274   -3.0295514  
H   -1.4634881    0.0006427   -6.2693593  
H    1.5290715   -0.0033076   -5.9180042  
C    1.0965515   -0.0001358    2.2710304  
C    0.0000000    0.0000000    1.4700000  
C   -1.1546562   -0.0001469    2.3369512  
C   -0.6372014   -0.0003519    3.7186280  
N    0.7342871   -0.0007337    3.6095011  
C   -1.4147739   -0.0001353    4.8308716  
C   -2.8576048    0.0001048    4.6554461  
O   -3.6427778    0.0002493    5.5944904  
C   -3.4275839    0.0000726    3.2011665  
O   -4.6406829   -0.0000333    3.0410059  
C   -2.4891866    0.0001091    2.0816745  
H   -1.0150448   -0.0001615    5.8354244  
H   -2.8919121    0.0002919    1.0779135  
H    2.1388271   -0.0000662    1.9961646  
H    1.3735872    0.0006099    4.3830260  
