60

C    8.7705111    0.0014522   -2.9707477  
C    8.0260797    0.0014484   -4.1275924  
C    8.9480324    0.0020697   -5.2159874  
C   10.2517191    0.0021480   -4.6571267  
N   10.1077524    0.0037169   -3.2918842  
C   11.4101428    0.0024017   -5.4399711  
C   11.2495752    0.0022724   -6.8119758  
O   12.3471250    0.0021577   -7.6233936  
C    9.9570888    0.0025686   -7.3884256  
O    9.9637713    0.0028156   -8.7680265  
C    8.8138338    0.0025918   -6.6167422  
H    6.9508148    0.0021523   -4.1804959  
H   10.8615536   -0.0064264   -2.6288126  
H   12.4066169    0.0026067   -5.0201617  
H   12.0157959    0.0023781   -8.5308555  
H    9.0525129    0.0029797   -9.0765907  
H    7.8373016    0.0030038   -7.0867022  
C    4.7795901    0.0008674   -1.0815733  
C    5.8063529    0.0010475   -1.9702986  
C    7.0285665    0.0013957   -1.2015147  
C    6.6268097    0.0013744    0.2181265  
N    5.2509927    0.0014465    0.2224663  
C    7.4934510    0.0012527    1.2624622  
C    8.9169021    0.0013608    0.9686564  
O    9.7768360    0.0013263    1.8397559  
C    9.3650174    0.0016370   -0.5276718  
O   10.5607784    0.0020366   -0.7873207  
C    8.3375016    0.0014689   -1.5659693  
H    5.7176690    0.0011303   -3.0420957  
H    7.1779199    0.0011091    2.2965564  
H    4.6776564   -0.0001048    1.0460743  
C    3.3321168    0.0004716   -1.3379341  
C    2.6974177    0.0000118   -2.5332316  
C    1.2800432   -0.0002116   -2.2052842  
C    1.2395033    0.0000644   -0.7271298  
N    2.4394059    0.0005460   -0.2131041  
C    0.0000000    0.0000000    0.0000000  
C   -1.1468704    0.0000635   -0.7169542  
O   -2.3742206    0.0000074   -0.1695488  
C   -1.1388774    0.0001608   -2.2096352  
O   -2.2206238    0.0000906   -2.7970409  
C    0.1454514    0.0001818   -2.9324241  
H    3.1367978   -0.0000649   -3.5160956  
H   -2.9844350    0.0001027   -0.9290164  
H    0.1083567    0.0003684   -4.0135594  
C    0.8681109    0.7263879    2.2709268  
C    0.6127770    0.5096195    3.5869401  
C   -0.4920590   -0.4175482    3.6542670  
C   -0.8620974   -0.7254003    2.2596025  
N    0.0000000    0.0000000    1.4700000  
C   -1.8641242   -1.5660088    1.8976294  
C   -2.6293522   -2.2103885    2.9520183  
O   -3.5512764   -2.9839180    2.7283916  
C   -2.2549728   -1.8987399    4.4361073  
O   -2.8923672   -2.4351063    5.3323774  
C   -1.1543735   -0.9755647    4.7012123  
H    1.1382914    0.9492124    4.4159191  
H   -2.1192137   -1.7782617    0.8686553  
H   -0.9013378   -0.7652422    5.7314848  
H    1.6172880    1.3558399    1.8188057  
