62

C   10.1617238   -2.1163715   -1.3390426  
C    9.0494232   -1.6561020   -2.0049307  
C    9.5105933   -0.7689632   -3.0222342  
C   10.9252799   -0.7272865   -2.9281547  
N   11.2876032   -1.5551750   -1.8947425  
C   11.7172925    0.0491431   -3.7794256  
C   11.0694036    0.7968909   -4.7434230  
O   11.7944828    1.5725273   -5.6011312  
C    9.6587094    0.7687971   -4.8528190  
O    9.1634658    1.5679876   -5.8624586  
C    8.8767184    0.0032695   -4.0131849  
H    8.0308654   -1.9256505   -1.7838499  
H   12.2298000   -1.7353037   -1.5984343  
H   12.7959263    0.0853600   -3.7127984  
H   11.1567214    2.0043840   -6.1842484  
H    8.2044370    1.4916037   -5.8681035  
H   10.2409458   -2.7994621   -0.5107490  
C    5.5868522   -0.0000782   -1.0681555  
C    6.8043822    0.0011469   -1.6695666  
C    6.5701482    0.0006863   -3.0943367  
C    5.1058548   -0.0008899   -3.2749812  
N    4.5679461   -0.0016854   -2.0086701  
C    4.4796781   -0.0013359   -4.4789772  
C    5.3028527   -0.0004129   -5.6768576  
O    4.8337330   -0.0007802   -6.8074448  
C    6.8558139    0.0010077   -5.5091789  
O    7.5591501    0.0014867   -6.5104674  
C    7.4139954    0.0016536   -4.1592585  
H    7.7577673    0.0020655   -1.1719033  
H    3.4041779   -0.0023678   -4.5894724  
H    5.3482113   -0.0001589   -0.0169941  
C    3.1301149   -0.0010311   -1.7028252  
C    2.5367768   -0.0002767   -0.4864665  
C    1.1089904    0.0001028   -0.7656183  
C    1.0177872   -0.0004148   -2.2415132  
N    2.1993578   -0.0011611   -2.7963820  
C   -0.2459209   -0.0002877   -2.9257118  
C   -1.3675319   -0.0000605   -2.1698524  
O   -2.6129313    0.0000867   -2.6748490  
C   -1.3083584    0.0000910   -0.6783232  
O   -2.3693261    0.0004206   -0.0541692  
C    0.0000000    0.0000000    0.0000000  
H    3.0096017   -0.0001007    0.4807525  
H   -0.2829630   -0.0004687   -4.0053125  
H   -3.1967441    0.0002094   -1.8949034  
C    0.8676693    0.7151171    2.2619005  
C    0.5875920    0.4624972    3.5848544  
C   -0.5048400   -0.4542819    3.6114698  
C   -0.8517165   -0.7276451    2.2635546  
N    0.0000000    0.0000000    1.4700000  
C   -1.8902865   -1.5946756    1.9108239  
C   -2.5912627   -2.1969500    2.9375057  
O   -3.6148162   -3.0527051    2.6493466  
C   -2.2603868   -1.9365747    4.2886322  
O   -3.0513550   -2.6123276    5.1947621  
C   -1.2361111   -1.0811317    4.6373480  
H    1.1060808    0.8876438    4.4271209  
H   -2.1597133   -1.8070987    0.8854031  
H   -3.9636755   -3.3565188    3.4974381  
H   -2.7621927   -2.3810384    6.0827341  
H   -1.0058879   -0.9010589    5.6809233  
H    1.6167816    1.3499334    1.8205408  
