66

C   -3.9681781    0.7212692   -2.0574928  
C   -3.2578657    0.0024038   -2.9908501  
C   -4.2079312   -0.7249070   -3.7673780  
C   -5.4928337   -0.4070758   -3.2575406  
N   -5.3109899    0.4719187   -2.2188306  
C   -6.6702840   -0.9454748   -3.7852959  
C   -6.5484325   -1.8204302   -4.8472676  
O   -7.6659791   -2.3749797   -5.4009617  
C   -5.2751705   -2.1501798   -5.3696517  
O   -5.3203493   -3.0355026   -6.4267734  
C   -4.1131455   -1.6196243   -4.8493302  
H   -6.0450863    0.8815467   -1.6699334  
H   -7.6525968   -0.7073695   -3.4011482  
H   -7.3607867   -2.9469131   -6.1172116  
H   -4.4199147   -3.2051863   -6.7200807  
H   -3.1520870   -1.8909908   -5.2702876  
H   -3.6231050    1.3910304   -1.2885303  
C    0.0000000    0.0000000    0.0000000  
C    1.0521666   -0.0011902   -0.8862342  
C    0.4917215   -0.0011958   -2.1979130  
C   -0.9187431    0.0003147   -2.0478680  
N   -1.1833172   -0.0009412   -0.7007911  
C   -1.7951703    0.0010349   -3.1372087  
C   -1.2375842    0.0005222   -4.4010418  
O   -2.0474221    0.0015357   -5.4997576  
C    0.1673575   -0.0013569   -4.5711960  
O    0.5673518   -0.0020691   -5.8915554  
C    1.0325767   -0.0023415   -3.4969891  
H    2.0953058   -0.0030650   -0.6200564  
H   -2.0989777    0.0102372   -0.2891820  
H   -1.4634890    0.0006494   -6.2693593  
H    1.5290704   -0.0033156   -5.9180047  
C    4.3849784   -2.1304844   -1.4422216  
C    3.1441049   -1.6666712   -1.8131358  
C    3.3426696   -0.7795005   -2.9122719  
C    4.7369999   -0.7414568   -3.1698027  
N    5.3406445   -1.5714472   -2.2580209  
C    5.2968242    0.0339879   -4.1896410  
C    4.4333212    0.7844686   -4.9637980  
O    4.9266889    1.5592941   -5.9733758  
C    3.0391204    0.7600156   -4.7220880  
O    2.3124403    1.5616119   -5.5780805  
C    2.4861699   -0.0045385   -3.7159923  
H    2.2107510   -1.9339392   -1.3479353  
H    6.3263187   -1.7542669   -2.2032057  
H    6.3586910    0.0674407   -4.3909409  
H    4.1660368    1.9934161   -6.3810649  
H    1.3814108    1.4876230   -5.3471835  
H    4.6640879   -2.8147336   -0.6593678  
C    0.0000000    0.0000000    1.4700000  
C    1.0521667    0.0011902    2.3562342  
C    0.4917218    0.0011957    3.6679131  
C   -0.9187428   -0.0003148    3.5178682  
N   -1.1833171    0.0009411    2.1707914  
C   -1.7951701   -0.0010350    4.6072090  
C   -1.2375837   -0.0005224    5.8710424  
O   -2.0474215   -0.0015360    6.9697579  
C    0.1673580    0.0013566    6.0411963  
O    0.5673524    0.0020687    7.3615553  
C    1.0325770    0.0023412    4.9669890  
H    2.0953057    0.0030649    2.0900562  
H   -2.0989778   -0.0102372    1.7591824  
H   -2.8710934   -0.0020419    4.4995513  
H   -1.4634884   -0.0006497    7.7393593  
H    1.5290710    0.0033153    7.3880045  
H    2.1042148    0.0039609    5.1284455  
