60

C   10.8592164   -2.1248796   -0.7965116  
C   11.8435829   -1.6264618   -1.6181372  
C   11.2066629   -0.7522406   -2.5480132  
C    9.8216074   -0.7569548   -2.2421958  
N    9.6447781   -1.6021033   -1.1749219  
C    8.8863521   -0.0041285   -2.9586724  
C    9.3579344    0.7677490   -4.0026998  
O    8.4879736    1.5225416   -4.7351412  
C   10.7362110    0.7853872   -4.3234175  
O   11.0483680    1.6033039   -5.3896789  
C   11.6593929    0.0427475   -3.6171969  
H   12.8916157   -1.8646351   -1.5557281  
H    8.7668070   -1.7981914   -0.7291688  
H    9.0167302    1.9765289   -5.4041529  
H   11.9975165    1.5578625   -5.5401949  
H   12.7086684    0.0763020   -3.8862181  
H   10.9271156   -2.8130291    0.0285933  
C    6.7235404   -0.0015094    0.8630518  
C    5.4473217   -0.0011276    0.3990038  
C    5.5236520   -0.0015784   -1.0428730  
C    6.9592472   -0.0022882   -1.3832517  
N    7.6329843   -0.0018115   -0.1836821  
C    7.4493969   -0.0032604   -2.6487383  
C    6.4996351   -0.0034065   -3.7489599  
O    6.8417413   -0.0041910   -4.9242315  
C    4.9744857   -0.0024119   -3.4117302  
O    4.1654306   -0.0022185   -4.3297118  
C    4.5679461   -0.0016854   -2.0086701  
H    4.5543636   -0.0004092    0.9983692  
H    7.0761901   -0.0013786    1.8816429  
H    8.6315326   -0.0036616   -0.0839617  
C    3.1301149   -0.0010311   -1.7028252  
C    2.5367768   -0.0002767   -0.4864665  
C    1.1089904    0.0001028   -0.7656183  
C    1.0177872   -0.0004148   -2.2415132  
N    2.1993578   -0.0011611   -2.7963820  
C   -0.2459209   -0.0002877   -2.9257118  
C   -1.3675319   -0.0000605   -2.1698524  
O   -2.6129313    0.0000867   -2.6748490  
C   -1.3083584    0.0000910   -0.6783232  
O   -2.3693261    0.0004206   -0.0541692  
C    0.0000000    0.0000000    0.0000000  
H    3.0096017   -0.0001007    0.4807525  
H   -0.2829630   -0.0004687   -4.0053125  
H   -3.1967441    0.0002094   -1.8949034  
C    2.4951002    2.0940188    2.9809380  
C    1.9440701    1.6314916    1.8291961  
C    0.8759964    0.7350050    2.2038498  
C    0.8497377    0.7130254    3.6788474  
N    1.8560616    1.5571714    4.0882609  
C   -0.0205033   -0.0168748    4.4215661  
C   -0.9962600   -0.8356168    3.7214979  
O   -1.8224391   -1.5286685    4.3006425  
C   -0.9864710   -0.8277881    2.1595606  
O   -1.8030528   -1.5133726    1.5592035  
C    0.0000000    0.0000000    1.4700000  
H    2.2509283    1.8888011    0.8310761  
H   -0.0229599   -0.0187323    5.5027230  
H    3.3143982    2.7817323    3.1139444  
H    2.0889452    1.7545833    5.0442112  
