60

C    6.7868229   -0.0005273    3.2278692  
C    7.4830558   -0.0026655    2.0413944  
C    8.8704249   -0.0034349    2.3727636  
C    8.9602357   -0.0019663    3.7883401  
N    7.6770194    0.0017325    4.2761507  
C   10.1817005   -0.0025244    4.4686437  
C   11.3334843   -0.0049102    3.7060374  
O   12.5529661   -0.0059057    4.3191250  
C   11.2644255   -0.0060282    2.2925153  
O   12.4984857   -0.0079861    1.6757204  
C   10.0597684   -0.0052052    1.6207089  
H    7.4256062   -0.0070630    5.2481053  
H   10.2569104   -0.0012685    5.5473208  
H   13.2131469   -0.0072633    3.6138425  
H   12.3624770   -0.0086626    0.7232999  
H   10.0383094   -0.0059169    0.5371881  
H    5.7256732    0.0010106    3.4093009  
C    6.8847521   -0.0023785    0.6986611  
C    5.5715633   -0.0012904    0.3713800  
C    5.5475443   -0.0015350   -1.0832412  
C    6.9721656   -0.0027414   -1.4795197  
N    7.7607267   -0.0033210   -0.4392506  
C    7.3784669   -0.0033612   -2.8579262  
C    6.4057885   -0.0031903   -3.7977300  
O    6.6406190   -0.0037039   -5.1209443  
C    4.9592110   -0.0023543   -3.4295275  
O    4.1279730   -0.0021183   -4.3374175  
C    4.5679461   -0.0016854   -2.0086701  
H    4.7238856   -0.0005185    1.0350950  
H    8.4267357   -0.0040357   -3.1187771  
H    5.7562743   -0.0034384   -5.5297073  
C    3.1301149   -0.0010311   -1.7028252  
C    2.5367768   -0.0002767   -0.4864665  
C    1.1089904    0.0001028   -0.7656183  
C    1.0177872   -0.0004148   -2.2415132  
N    2.1993578   -0.0011611   -2.7963820  
C   -0.2459209   -0.0002877   -2.9257118  
C   -1.3675319   -0.0000605   -2.1698524  
O   -2.6129313    0.0000867   -2.6748490  
C   -1.3083584    0.0000910   -0.6783232  
O   -2.3693261    0.0004206   -0.0541692  
C    0.0000000    0.0000000    0.0000000  
H    3.0096017   -0.0001007    0.4807525  
H   -0.2829630   -0.0004687   -4.0053125  
H   -3.1967441    0.0002094   -1.8949034  
C    2.4951002    2.0940188    2.9809380  
C    1.9440701    1.6314916    1.8291961  
C    0.8759964    0.7350050    2.2038498  
C    0.8497377    0.7130254    3.6788474  
N    1.8560616    1.5571714    4.0882609  
C   -0.0205033   -0.0168748    4.4215661  
C   -0.9962600   -0.8356168    3.7214979  
O   -1.8224391   -1.5286685    4.3006425  
C   -0.9864710   -0.8277881    2.1595606  
O   -1.8030528   -1.5133726    1.5592035  
C    0.0000000    0.0000000    1.4700000  
H    2.2509283    1.8888011    0.8310761  
H   -0.0229599   -0.0187323    5.5027230  
H    3.3143982    2.7817323    3.1139444  
H    2.0889452    1.7545833    5.0442112  
