60

C    4.4308563   -2.1159805   -5.9883558  
C    5.4146422   -1.6163458   -6.8099383  
C    4.7767049   -0.7427860   -7.7397382  
C    3.3916557   -0.7491391   -7.4339209  
N    3.2158109   -1.5945857   -6.3667205  
C    2.4555246    0.0026601   -8.1503328  
C    2.9262080    0.7751767   -9.1942931  
O    2.0553690    1.5290194   -9.9266686  
C    4.3044632    0.7944470   -9.5150090  
O    4.6156675    1.6128193  -10.5811999  
C    5.2285088    0.0528213   -8.8088529  
H    6.4629517   -1.8533045   -6.7475496  
H    2.3380681   -1.7917342   -5.9209846  
H    2.5835968    1.9836804  -10.5956415  
H    5.5648684    1.5684958  -10.7317192  
H    6.2777443    0.0876208   -9.0778719  
H    4.4995574   -2.8041222   -5.1633106  
C    0.0139742    0.0003878   -4.4216236  
C    1.0778911    0.0006074   -5.2580807  
C    0.5039807    0.0007581   -6.5949148  
C   -0.9579662    0.0004846   -6.3728913  
N   -1.2512406    0.0003476   -5.1008931  
C   -1.8932244    0.0005794   -7.4639363  
C   -1.3908360    0.0013206   -8.7196988  
O   -2.1470602    0.0014881   -9.8306290  
C    0.0796408    0.0019843   -8.9763293  
O    0.4660700    0.0025191  -10.1450435  
C    1.0185693    0.0018284   -7.8403984  
H    2.1230579    0.0007508   -4.9998126  
H   -2.9563663    0.0001675   -7.2725232  
H   -1.5077380    0.0020876  -10.5657615  
C    3.2798085    0.0005856   -1.4499646  
C    2.5571146    0.0005565   -2.5996553  
C    1.1637435    0.0001548   -2.2210360  
C    1.1336964   -0.0000200   -0.7459470  
N    2.4483515   -0.0001429   -0.3402716  
C    0.0000000    0.0000000    0.0000000  
C   -1.2757368   -0.0000187   -0.6964415  
O   -2.3524594   -0.0000640   -0.1142314  
C   -1.2676495   -0.0000873   -2.2584081  
O   -2.3355761   -0.0004101   -2.8557295  
C    0.0181563    0.0001759   -2.9516296  
H    2.9547358    0.0006075   -3.5989104  
H    4.3498547    0.0008611   -1.3200019  
H    2.7563628    0.0012823    0.6148064  
C    0.0000000    0.0000000    1.4700000  
C    1.0662921    0.0000102    2.3034270  
C    0.4961870   -0.0000064    3.6418889  
C   -0.9663858    0.0000850    3.4240247  
N   -1.2632773    0.0000084    2.1528658  
C   -1.8985362    0.0000517    4.5177257  
C   -1.3925775   -0.0004564    5.7720543  
O   -2.1456383   -0.0005410    6.8851312  
C    0.0786232   -0.0009323    6.0245000  
O    0.4683759   -0.0012588    7.1921102  
C    1.0143166   -0.0008442    4.8859032  
H    2.1107198   -0.0000632    2.0421868  
H   -2.9622183    0.0003270    4.3293377  
H   -1.5042274   -0.0009692    7.6184419  
H    2.0724152   -0.0013148    5.1109744  
