60

C    5.0182713   -4.2338288   -3.0343695  
C    5.8050956   -4.8965197   -3.9477238  
C    5.3479726   -4.5165116   -5.2443472  
C    4.2712718   -3.6122091   -5.0575933  
N    4.0961215   -3.4641024   -3.7040774  
C    3.5771660   -3.0322265   -6.1237199  
C    3.9774698   -3.3710743   -7.4016542  
O    3.3343819   -2.8334699   -8.4788891  
C    5.0492780   -4.2718041   -7.6083658  
O    5.3274997   -4.5087653   -8.9386992  
C    5.7343060   -4.8445604   -6.5570755  
H    6.6088572   -5.5717136   -3.7088221  
H    3.4103093   -2.8740658   -3.2687619  
H    3.7650541   -3.1971400   -9.2634455  
H    6.0631038   -5.1266964   -8.9902043  
H    6.5510544   -5.5312583   -6.7464058  
H    5.0409669   -4.2504327   -1.9581877  
C    2.4602717   -2.0944452   -5.9392893  
C    1.9124728   -1.6318083   -4.7860506  
C    0.8432452   -0.7354854   -5.1577935  
C    0.8127879   -0.7137213   -6.6327140  
N    1.8180299   -1.5578231   -7.0448669  
C   -0.0596374    0.0159822   -7.3730582  
C   -1.0334829    0.8347251   -6.6703351  
O   -1.8613777    1.5276084   -7.2472263  
C   -1.0192493    0.8271228   -5.1084309  
O   -1.8341905    1.5127102   -4.5058515  
C   -0.0307352   -0.0004646   -4.4215603  
H    2.2221962   -1.8889424   -3.7887709  
H   -0.0651704    0.0176836   -8.4542048  
H    2.0482131   -1.7553490   -8.0014478  
C    3.2573670   -0.0002920   -1.5109380  
C    2.5379468   -0.0001709   -0.3591961  
C    1.1435043    0.0000332   -0.7338500  
C    1.1092609   -0.0000082   -2.2088477  
N    2.4227562    0.0001909   -2.6182613  
C   -0.0265532   -0.0002522   -2.9515663  
C   -1.3003035   -0.0002639   -2.2514981  
O   -2.3786784   -0.0004131   -2.8306429  
C   -1.2877725    0.0000312   -0.6895608  
O   -2.3539958    0.0003307   -0.0892036  
C    0.0000000    0.0000000    0.0000000  
H    2.9384091   -0.0000369    0.6389239  
H    4.3270394   -0.0004765   -1.6439446  
H    2.7280494   -0.0013406   -3.5742113  
C    2.5528530    2.1414826    2.8079335  
C    2.0663498    1.7338582    4.0032312  
C    0.9804344    0.8229586    3.6752840  
C    0.9495562    0.7966882    2.1971295  
N    1.8690446    1.5676019    1.6831036  
C    0.0000000    0.0000000    1.4700000  
C   -0.8785127   -0.7372425    2.1869543  
O   -1.8187535   -1.5261249    1.6395491  
C   -0.8723269   -0.7321790    3.6796354  
O   -1.7010379   -1.4274584    4.2670412  
C    0.1115397    0.0933559    4.4024240  
H    2.4028853    2.0163452    4.9860947  
H   -2.2861435   -1.9184361    2.3990168  
H    0.0832434    0.0693689    5.4835595  
H    3.3664920    2.8238276    2.6198634  
