64

C   -5.7459801    0.7225974    0.7317212  
C   -6.5857682    0.0057633   -0.0888713  
C   -7.4748210   -0.7206822    0.7575697  
C   -7.1268938   -0.4044407    2.0958015  
N   -6.0722011    0.4728135    2.0441759  
C   -7.7968143   -0.9425365    3.1987288  
C   -8.8371092   -1.8155476    2.9461122  
O   -9.5254060   -2.3697162    3.9863807  
C   -9.1989443   -2.1436922    1.6178753  
O  -10.2550551   -3.0271689    1.5316040  
C   -8.5383167   -1.6134348    0.5293326  
H   -5.6173914    0.8810776    2.8406995  
H   -7.5364125   -0.7056364    4.2211140  
H  -10.1994876   -2.9402192    3.5947114  
H  -10.4352990   -3.1958515    0.6017320  
H   -8.8379266   -1.8835422   -0.4765275  
H   -4.9391852    1.3911830    0.4846715  
C   -3.2578655    0.0024039   -2.9908504  
C   -4.0046937    0.0033122   -1.8566891  
C   -5.3897514    0.0044620   -2.2646697  
C   -5.3886199    0.0041178   -3.7400641  
N   -4.0656859    0.0032563   -4.1178667  
C   -6.5062991    0.0045469   -4.5098026  
C   -7.7964683    0.0056310   -3.8404768  
O   -8.8606469    0.0061488   -4.4453109  
C   -7.8213912    0.0062644   -2.2786881  
O   -8.9017017    0.0074845   -1.7040685  
C   -6.5505227    0.0054362   -1.5584488  
H   -3.6282784    0.0033729   -0.8492543  
H   -6.4834513    0.0041523   -5.5907229  
H   -3.7375608    0.0012868   -5.0662218  
C    0.0000000    0.0000000    0.0000000  
C    1.0521667   -0.0011902   -0.8862342  
C    0.4917216   -0.0011957   -2.1979129  
C   -0.9187429    0.0003148   -2.0478680  
N   -1.1833171   -0.0009412   -0.7007912  
C   -1.7951702    0.0010350   -3.1372088  
C   -1.2375841    0.0005225   -4.4010424  
O   -2.0474217    0.0015360   -5.4997576  
C    0.1673577   -0.0013567   -4.5711964  
O    0.5673522   -0.0020688   -5.8915554  
C    1.0325769   -0.0023413   -3.4969890  
H    2.0953057   -0.0030649   -0.6200562  
H   -2.0989779    0.0102372   -0.2891821  
H   -1.4634887    0.0006498   -6.2693588  
H    1.5290708   -0.0033153   -5.9180049  
H    2.1042148   -0.0039610   -3.6584453  
C    0.0000000    0.0000000    1.4700000  
C    1.0521667    0.0011902    2.3562342  
C    0.4917218    0.0011957    3.6679131  
C   -0.9187428   -0.0003148    3.5178682  
N   -1.1833171    0.0009411    2.1707914  
C   -1.7951701   -0.0010350    4.6072090  
C   -1.2375837   -0.0005224    5.8710424  
O   -2.0474215   -0.0015360    6.9697579  
C    0.1673580    0.0013566    6.0411963  
O    0.5673524    0.0020687    7.3615553  
C    1.0325770    0.0023412    4.9669890  
H    2.0953057    0.0030649    2.0900562  
H   -2.0989778   -0.0102372    1.7591824  
H   -2.8710934   -0.0020419    4.4995513  
H   -1.4634884   -0.0006497    7.7393593  
H    1.5290710    0.0033153    7.3880045  
H    2.1042148    0.0039609    5.1284455  
