60

C    0.8398284   -0.7093995   -5.2158384  
C    0.5541676   -0.4590037   -6.5380216  
C   -0.5449406    0.4498433   -6.5616409  
C   -0.8899496    0.7208841   -5.2127778  
N   -0.0307359   -0.0004648   -4.4215606  
C   -1.9337585    1.5804288   -4.8572000  
C   -2.6419924    2.1774670   -5.8819570  
O   -3.6708869    3.0258355   -5.5909922  
C   -2.3130868    1.9192974   -7.2339879  
O   -3.1114985    2.5891789   -8.1379466  
C   -1.2836442    1.0712374   -7.5855111  
H    1.0733205   -0.8805096   -7.3817075  
H   -2.2017960    1.7910445   -3.8310431  
H   -4.0243475    3.3269946   -6.4381244  
H   -2.8231978    2.3598597   -9.0267095  
H   -1.0550942    0.8926846   -8.6297159  
H    1.5947670   -1.3387152   -4.7765343  
C    3.2573667   -0.0002920   -1.5109386  
C    2.5379466   -0.0001709   -0.3591965  
C    1.1435040    0.0000332   -0.7338503  
C    1.1092604   -0.0000083   -2.2088478  
N    2.4227557    0.0001908   -2.6182616  
C   -0.0265538   -0.0002523   -2.9515663  
C   -1.3003040   -0.0002641   -2.2514979  
O   -2.3786787   -0.0004133   -2.8306426  
C   -1.2877728    0.0000312   -0.6895607  
O   -2.3539959    0.0003306   -0.0892033  
C    0.0000000    0.0000000    0.0000000  
H    2.9384091   -0.0000368    0.6389234  
H    2.7280486   -0.0013408   -3.5742120  
C    4.7161330   -0.0005435   -1.6923266  
C    5.6957072   -0.0010600   -0.7518432  
C    6.9559338   -0.0010601   -1.4565873  
C    6.6279078   -0.0004681   -2.8950550  
N    5.2541452   -0.0005756   -2.9703260  
C    7.5472421    0.0001050   -3.8933172  
C    8.9536517   -0.0000850   -3.5265089  
O    9.8573549    0.0003297   -4.3521114  
C    9.3240199   -0.0009621   -2.0090664  
O   10.5048028   -0.0014358   -1.6881095  
C    8.2443355   -0.0012473   -1.0251286  
H    5.5518787   -0.0015843    0.3139555  
H    7.2854493    0.0006638   -4.9423043  
H    8.5092053   -0.0016498    0.0234744  
H    4.7240363    0.0012977   -3.8223993  
C    2.5528530    2.1414826    2.8079335  
C    2.0663498    1.7338582    4.0032312  
C    0.9804344    0.8229586    3.6752840  
C    0.9495562    0.7966882    2.1971295  
N    1.8690446    1.5676019    1.6831036  
C    0.0000000    0.0000000    1.4700000  
C   -0.8785127   -0.7372425    2.1869543  
O   -1.8187535   -1.5261249    1.6395491  
C   -0.8723269   -0.7321790    3.6796354  
O   -1.7010379   -1.4274584    4.2670412  
C    0.1115397    0.0933559    4.4024240  
H    2.4028853    2.0163452    4.9860947  
H   -2.2861435   -1.9184361    2.3990168  
H    0.0832434    0.0693689    5.4835595  
H    3.3664920    2.8238276    2.6198634  
