62

C    1.8459869   -4.5526388   -7.2183998  
C    2.3054791   -4.3406338   -8.4976132  
C    2.0275016   -2.9791392   -8.8195764  
C    1.3924584   -2.4052759   -7.6885027  
N    1.2961114   -3.3883869   -6.7351784  
C    0.9760138   -1.0711313   -7.6508007  
C    1.2050834   -0.3022106   -8.7752852  
O    0.8189032    1.0068328   -8.7921373  
C    1.8369276   -0.8568180   -9.9137062  
O    1.9933736    0.0367098  -10.9531652  
C    2.2477804   -2.1729798   -9.9517014  
H    2.7813684   -5.0770326   -9.1223056  
H    0.8986882   -3.2728488   -5.8204726  
H    1.0686268    1.3540495   -9.6583612  
H    2.4275705   -0.4173451  -11.6818013  
H    2.7289817   -2.5698831  -10.8379240  
H    1.8656958   -5.4426073   -6.6129867  
C    0.6605682   -0.7024456   -5.1602328  
C   -0.1387079    0.0017019   -4.3179684  
C   -1.0653111    0.7443400   -5.1393883  
C   -0.7380204    0.4127270   -6.5392828  
N    0.3171090   -0.4684294   -6.4831128  
C   -1.3885286    0.9128903   -7.6201989  
C   -2.4839899    1.8398447   -7.3894267  
O   -3.1316443    2.3448509   -8.2970685  
C   -2.8477048    2.2053535   -5.9150050  
O   -3.7679152    2.9849438   -5.7083352  
C   -2.0739363    1.6016379   -4.8330332  
H   -1.1326586    0.6565863   -8.6388987  
H   -2.3322394    1.8597481   -3.8150046  
H    1.4717489   -1.3724717   -4.9258391  
C    3.3041273    0.0001178   -1.5420428  
C    2.5845373   -0.0004780   -0.3695851  
C    1.2040007   -0.0000007   -0.7283589  
C    1.1422374    0.0006038   -2.1454372  
N    2.4348641    0.0026111   -2.6077464  
C   -0.0655179    0.0008799   -2.8497918  
C   -1.2321766    0.0002325   -2.1101402  
O   -2.4392814    0.0001148   -2.7472522  
C   -1.1911209   -0.0000007   -0.6955266  
O   -2.4371528   -0.0002320   -0.1032862  
C    0.0000000    0.0000000    0.0000000  
H    3.0031533   -0.0000660    0.6222584  
H    2.7054631   -0.0071097   -3.5745261  
H   -3.1132988   -0.0000648   -2.0551787  
H   -2.3200282   -0.0004072    0.8516409  
H    4.3686625    0.0004073   -1.7024290  
C    2.5128556    2.1077716    2.9199648  
C    1.9592212    1.6432552    4.0696553  
C    0.8915788    0.7479214    3.6910360  
C    0.8684491    0.7287414    2.2159470  
N    1.8754542    1.5738793    1.8102719  
C    0.0000000    0.0000000    1.4700000  
C   -0.9772830   -0.8200135    2.1664417  
O   -1.8021297   -1.5120829    1.5842315  
C   -0.9711318   -0.8147624    3.7284083  
O   -1.7894187   -1.5009653    4.3257297  
C    0.0140216    0.0115358    4.4216297  
H    2.2638494    1.8988021    5.0689105  
H    0.0117648    0.0094386    5.5031631  
H    3.3327358    2.7953732    2.7900019  
H    2.1123206    1.7707734    0.8551938  
