62

C    2.1700170   -3.0827958   -8.9561405  
C    1.8450820   -1.8498597   -8.4396589  
C    1.8271805   -0.9325171   -9.5317949  
C    2.1513537   -1.6693887  -10.6996386  
N    2.3553285   -2.9711221  -10.3142773  
C    2.2259719   -1.0837282  -11.9670064  
C    1.9683537    0.2704093  -12.0571299  
O    2.0270675    0.8928084  -13.2704656  
C    1.6435899    1.0227306  -10.9032857  
O    1.4146763    2.3592789  -11.1574120  
C    1.5700621    0.4456746   -9.6526346  
H    2.5896399   -3.7287249  -10.9300027  
H    2.4726668   -1.6397976  -12.8609476  
H    1.8171185    1.8221991  -13.1110357  
H    1.2019986    2.7948173  -10.3263409  
H    1.3191233    1.0474985   -8.7870048  
H    2.2856552   -4.0327314   -8.4629780  
C    2.2675099   -2.0960610   -5.9498184  
C    1.7744249   -1.6329637   -4.7723284  
C    0.6888620   -0.7368507   -5.0938399  
C    0.5891931   -0.7157119   -6.5657127  
N    1.5740353   -1.5599383   -7.0242506  
C   -0.3170782    0.0136356   -7.2645898  
C   -1.2569154    0.8326278   -6.5172659  
O   -2.1110286    1.5252261   -7.0549444  
C   -1.1693695    0.8256867   -4.9577490  
O   -1.9551700    1.5114887   -4.3178627  
C   -0.1496415   -0.0015615   -4.3176961  
H    2.1306439   -1.8896606   -3.7905805  
H   -0.3733620    0.0148792   -8.3442837  
H    3.0792927   -2.7837268   -6.1230671  
C    3.3003543    0.0005276   -1.4738987  
C    2.5232814    0.0003497   -2.6090747  
C    1.1623200   -0.0001320   -2.1820103  
C    1.1711883    0.0000582   -0.7636140  
N    2.4852300   -0.0014919   -0.3662360  
C    0.0000000    0.0000000    0.0000000  
C   -1.2020384    0.0000519   -0.6806477  
O   -2.3759249    0.0003493    0.0157743  
C   -1.2314656   -0.0005115   -2.0955510  
O   -2.5054392   -0.0008039   -2.6250180  
C   -0.0764516   -0.0007274   -2.8495195  
H    2.8919955   -0.0005620   -3.6205304  
H    2.8036267    0.0088183    0.5858662  
H   -3.0835638    0.0000347   -0.6418818  
H   -2.4360047   -0.0011529   -3.5845921  
H    4.3715549    0.0004895   -1.3667136  
C    2.5528530    2.1414826    2.8079335  
C    2.0663498    1.7338582    4.0032312  
C    0.9804344    0.8229586    3.6752840  
C    0.9495562    0.7966882    2.1971295  
N    1.8690446    1.5676019    1.6831036  
C    0.0000000    0.0000000    1.4700000  
C   -0.8785127   -0.7372425    2.1869543  
O   -1.8187535   -1.5261249    1.6395491  
C   -0.8723269   -0.7321790    3.6796354  
O   -1.7010379   -1.4274584    4.2670412  
C    0.1115397    0.0933559    4.4024240  
H    2.4028853    2.0163452    4.9860947  
H   -2.2861435   -1.9184361    2.3990168  
H    0.0832434    0.0693689    5.4835595  
H    3.3664920    2.8238276    2.6198634  
