62

C   -0.4583957   -0.6137662   -9.5410256  
C   -0.8087169    0.6302883   -9.0697818  
C   -0.7749166    1.5217986  -10.1827364  
C   -0.3944924    0.7584350  -11.3160846  
N   -0.2082141   -0.5335351  -10.8909599  
C   -0.2596073    1.3144330  -12.5918053  
C   -0.5136765    2.6655961  -12.7259147  
O   -0.3972991    3.2595556  -13.9493049  
C   -0.8940309    3.4440760  -11.6069361  
O   -1.1115445    4.7738740  -11.9030263  
C   -1.0270314    2.8962916  -10.3480598  
H    0.0559741   -1.3048824  -11.4768002  
H    0.0301409    0.7380800  -13.4595972  
H   -0.6153931    4.1920172  -13.8219683  
H   -1.3642021    5.2283235  -11.0935551  
H   -1.3196965    3.5177159   -9.5098139  
H   -0.3658039   -1.5516832   -9.0207411  
C    0.9246157   -0.7181117   -5.2309988  
C    0.0950446    0.0004351   -4.4015596  
C   -0.8009655    0.7292742   -5.2385542  
C   -0.4676172    0.4126609   -6.5804038  
N    0.5854649   -0.4671107   -6.5399388  
C   -1.1476017    0.9527173   -7.6761905  
C   -2.1831574    1.8281088   -7.4125793  
O   -2.8808328    2.3842604   -8.4455167  
C   -2.5304882    2.1566613   -6.0805765  
O   -3.5835506    3.0426121   -5.9831350  
C   -1.8599262    1.6244700   -4.9990749  
H    1.0310611   -0.8761833   -7.3412410  
H   -3.5494798    2.9562284   -8.0467324  
H   -3.7537890    3.2114073   -5.0513996  
H   -2.1484983    1.8949472   -3.9900921  
H    1.7323265   -1.3886932   -4.9924974  
C    3.3321173    0.0004713   -1.3379338  
C    2.6974181    0.0000116   -2.5332314  
C    1.2800438   -0.0002119   -2.2052841  
C    1.2395034    0.0000643   -0.7271299  
N    2.4394062    0.0005460   -0.2131038  
C    0.0000000    0.0000000    0.0000000  
C   -1.1468702    0.0000634   -0.7169543  
O   -2.3742203    0.0000074   -0.1695487  
C   -1.1388770    0.0001607   -2.2096355  
O   -2.2206234    0.0000905   -2.7970411  
C    0.1454522    0.0001815   -2.9324241  
H    3.1367984   -0.0000653   -3.5160950  
H   -2.9844346    0.0001026   -0.9290167  
H    4.3940038    0.0007618   -1.1498640  
C    0.0000000    0.0000000    1.4700000  
C    1.0662921    0.0000102    2.3034270  
C    0.4961870   -0.0000064    3.6418889  
C   -0.9663858    0.0000850    3.4240247  
N   -1.2632773    0.0000084    2.1528658  
C   -1.8985362    0.0000517    4.5177257  
C   -1.3925775   -0.0004564    5.7720543  
O   -2.1456383   -0.0005410    6.8851312  
C    0.0786232   -0.0009323    6.0245000  
O    0.4683759   -0.0012588    7.1921102  
C    1.0143166   -0.0008442    4.8859032  
H    2.1107198   -0.0000632    2.0421868  
H   -2.9622183    0.0003270    4.3293377  
H   -1.5042274   -0.0009692    7.6184419  
H    2.0724152   -0.0013148    5.1109744  
