64

C    7.8246952   -2.1263678   -3.4225601  
C    9.0783847   -1.6284896   -3.6924631  
C    8.9469653   -0.7537570   -4.8114675  
C    7.5784235   -0.7576174   -5.1842997  
N    6.9254579   -1.6027712   -4.3217639  
C    7.0836098   -0.0041122   -6.2530272  
C    7.9867320    0.7675787   -6.9580380  
O    7.5571549    1.5230104   -8.0105603  
C    9.3562020    0.7843693   -6.6015451  
O   10.1285126    1.6022041   -7.4003096  
C    9.8450962    0.0410595   -5.5475056  
H    9.9772645   -1.8673416   -3.1502840  
H    5.9407987   -1.7983459   -4.3351250  
H    8.3364719    1.9767331   -8.3570629  
H   11.0388781    1.5561710   -7.0925438  
H   10.8992302    0.0739715   -5.2981142  
H    7.5010439   -2.8146521   -2.6606728  
C    3.2973507   -0.0000930   -3.8752373  
C    4.6195923   -0.0010146   -4.2548990  
C    4.6432645   -0.0012901   -5.6810969  
C    3.2943732   -0.0002132   -6.1197515  
N    2.5030708   -0.0014567   -4.9979421  
C    2.9388353    0.0001535   -7.4719278  
C    3.9636646   -0.0002734   -8.3981587  
O    3.6727443    0.0004069   -9.7317166  
C    5.3157203   -0.0017219   -7.9801151  
O    6.2197488   -0.0024021   -9.0222663  
C    5.6672027   -0.0023576   -6.6463295  
H    5.4632736   -0.0025419   -3.5861744  
H    1.4991496    0.0094624   -4.9958713  
H    1.9126561    0.0008290   -7.8127469  
H    4.5199215   -0.0003498  -10.1959958  
H    7.1085248   -0.0033474   -8.6539186  
C    3.3321175    0.0004715   -1.3379331  
C    2.6974186    0.0000117   -2.5332308  
C    1.2800441   -0.0002117   -2.2052838  
C    1.2395036    0.0000644   -0.7271292  
N    2.4394065    0.0005460   -0.2131033  
C    0.0000000    0.0000000    0.0000000  
C   -1.1468701    0.0000635   -0.7169542  
O   -2.3742199    0.0000073   -0.1695491  
C   -1.1388766    0.0001607   -2.2096354  
O   -2.2206227    0.0000905   -2.7970412  
C    0.1454526    0.0001817   -2.9324239  
H   -2.9844344    0.0001026   -0.9290168  
H    0.1083579    0.0003683   -4.0135594  
H    4.3940038    0.0007619   -1.1498630  
C    0.8576279    0.7185626    2.2703808  
C    0.0000000    0.0000000    1.4700000  
C   -0.8668858   -0.7285659    2.3373528  
C   -0.4876752   -0.4117774    3.6669281  
N    0.5635254    0.4678311    3.5902241  
C   -1.1297612   -0.9515493    4.7854808  
C   -2.1738724   -1.8268314    4.5576857  
O   -2.8357962   -2.3827064    5.6140350  
C   -2.5667212   -2.1555554    3.2384331  
O   -3.6226318   -3.0413663    3.1773122  
C   -1.9335634   -1.6236449    2.1344818  
H    1.0363952    0.8769718    4.3757045  
H   -0.8454472   -0.7142436    5.8013813  
H   -3.5178062   -2.9546422    5.2385129  
H   -3.8247440   -3.2102924    2.2519915  
H   -2.2566033   -1.8942483    1.1360343  
H    1.6567807    1.3889844    2.0042067  
