62

C   -4.2182307    0.7339125   -7.7976097  
C   -3.2577311    0.0159511   -8.4717308  
C   -3.9266205   -0.7096988   -9.5015943  
C   -5.3056834   -0.3918329   -9.4063350  
N   -5.4483441    0.4855822   -8.3601955  
C   -6.2668385   -0.9287898  -10.2681055  
C   -5.8277993   -1.8023116  -11.2440054  
O   -6.7240005   -2.3554178  -12.1122858  
C   -4.4560100   -2.1320719  -11.3547781  
O   -4.1775624   -3.0158697  -12.3768893  
C   -3.5072896   -1.6029385  -10.5047932  
H   -6.3145792    0.8948651   -8.0600192  
H   -7.3194255   -0.6906497  -10.2006442  
H   -6.2154477   -2.9265159  -12.7026121  
H   -3.2305991   -3.1856682  -12.3826192  
H   -2.4637546   -1.8742752  -10.6138358  
H   -4.1233629    1.4023805   -6.9590935  
C   -1.0641738    0.0073911   -4.6315339  
C    0.2077340    0.0068358   -5.1556689  
C    0.0728972    0.0090183   -6.5756740  
C   -1.3163591    0.0111477   -6.8618346  
N   -1.9782054    0.0081399   -5.6591012  
C   -1.8198413    0.0139274   -8.1661684  
C   -0.9041964    0.0148759   -9.2004660  
O   -1.3413930    0.0179230  -10.4934709  
C    0.4859166    0.0124095   -8.9351415  
O    1.2686357    0.0133318  -10.0712288  
C    0.9833257    0.0093938   -7.6486345  
H    1.1204512    0.0039692   -4.5847641  
H   -2.9756844    0.0192750   -5.5455505  
H   -0.5510075    0.0177823  -11.0489489  
H    2.1928159    0.0115560   -9.8038493  
H    2.0532874    0.0073712   -7.4764235  
C    1.1319245    0.0015656   -0.8009271  
C    0.7969914    0.0034943   -2.1169404  
C   -0.6453340    0.0035712   -2.1842672  
C   -1.1266833    0.0015434   -0.7896027  
N    0.0000000    0.0000000    0.0000000  
C   -2.4346131    0.0013965   -0.4276296  
C   -3.4350110    0.0031409   -1.4820182  
O   -4.6384610    0.0030975   -1.2583916  
C   -2.9478961    0.0050507   -2.9661073  
O   -3.7809383    0.0062220   -3.8623773  
C   -1.5113824    0.0053091   -3.2312124  
H    1.4821237    0.0045409   -2.9459193  
H   -2.7664564    0.0000233    0.6013449  
H    2.1104315    0.0009392   -0.3488061  
C    0.8400945    0.7047457    2.2710304  
C    0.0000000    0.0000000    1.4700000  
C   -0.8844236   -0.7423113    2.3369512  
C   -0.4878984   -0.4098547    3.7186280  
N    0.5629682    0.4714286    3.6095011  
C   -1.0836927   -0.9095027    4.8308716  
C   -2.1891196   -1.8367527    4.6554461  
O   -2.7906899   -2.3413415    5.5944904  
C   -2.6257283   -2.2031529    3.2011665  
O   -3.5549479   -2.9829990    3.0410059  
C   -1.9068976   -1.5999348    2.0816745  
H   -0.7774656   -0.6525820    5.8354244  
H   -2.2155208   -1.8586617    1.0779135  
H    1.6384792    1.3747609    1.9961646  
H    1.0518368    0.8833920    4.3830260  
