64

C    0.1177593   -0.7041729   -5.1422752  
C    0.3059621   -0.4523686   -6.4815442  
C   -0.7176648    0.4566396   -6.8821590  
C   -1.5071132    0.7263226   -5.7350021  
N   -0.9736290    0.0040453   -4.6965765  
C   -2.6097123    1.5856274   -5.7606864  
C   -2.9208562    2.1838179   -6.9663129  
O   -3.9871529    3.0320119   -7.0475024  
C   -2.1454315    1.9270114   -8.1219873  
O   -2.5829240    2.5979303   -9.2452908  
C   -1.0577180    1.0791885   -8.0974451  
H    1.0845206   -0.8730629   -7.0946165  
H   -3.2155191    1.7952110   -4.8898970  
H   -4.0265647    3.3340946   -7.9642674  
H   -2.0055182    2.3694982   -9.9801553  
H    0.6748221   -1.3340384   -4.4700332  
C    1.1188645    0.0008220   -0.8003804  
C    0.0000000    0.0000000    0.0000000  
C   -1.1323860    0.0008895   -0.8673535  
C   -0.6382657    0.0019672   -2.1969285  
N    0.7324021    0.0038478   -2.1202242  
C   -1.4770910    0.0027308   -3.3154809  
C   -2.8395468    0.0020930   -3.0876863  
O   -3.7039195    0.0024408   -4.1440354  
C   -3.3517864    0.0013917   -1.7684338  
O   -4.7300494    0.0012352   -1.7073128  
C   -2.5248542    0.0009113   -0.6644820  
H    1.3576321   -0.0056170   -2.9057044  
H   -4.5940027    0.0021808   -3.7685137  
H   -4.9934599    0.0007245   -0.7819923  
H   -2.9462577    0.0005594    0.3339655  
H    2.1619897    0.0009359   -0.5342067  
C   -0.2778197    0.8384275   -9.3200211  
C    0.8265210    0.0440703   -9.5247041  
C    1.1842548    0.1745523  -10.8993316  
C    0.2544931    1.0693454  -11.4882403  
N   -0.6205783    1.4520232  -10.5021234  
C    0.3040391    1.4314937  -12.8377528  
C    1.3106921    0.8805487  -13.6067028  
O    1.4055665    1.2003584  -14.9302350  
C    2.2475714   -0.0144192  -13.0373993  
O    3.1890060   -0.4776758  -13.9331874  
C    2.1991340   -0.3723438  -11.7062081  
H    1.3136027   -0.5565066   -8.7756697  
H   -1.3847970    2.0922319  -10.6207954  
H   -0.4016768    2.1128299  -13.2926677  
H    2.1656829    0.7138390  -15.2748882  
H    3.7825848   -1.0755290  -13.4686023  
H    2.9304421   -1.0603230  -11.2983457  
C    0.8400945    0.7047457    2.2710304  
C    0.0000000    0.0000000    1.4700000  
C   -0.8844236   -0.7423113    2.3369512  
C   -0.4878984   -0.4098547    3.7186280  
N    0.5629682    0.4714286    3.6095011  
C   -1.0836927   -0.9095027    4.8308716  
C   -2.1891196   -1.8367527    4.6554461  
O   -2.7906899   -2.3413415    5.5944904  
C   -2.6257283   -2.2031529    3.2011665  
O   -3.5549479   -2.9829990    3.0410059  
C   -1.9068976   -1.5999348    2.0816745  
H   -0.7774656   -0.6525820    5.8354244  
H   -2.2155208   -1.8586617    1.0779135  
H    1.6384792    1.3747609    1.9961646  
H    1.0518368    0.8833920    4.3830260  
