64

C    1.9672093   -1.9497147   -8.4172422  
C    2.9316501   -2.7812400   -8.9377112  
C    2.8005913   -2.7335372  -10.3572702  
C    1.7305851   -1.8486118  -10.6469591  
N    1.2456379   -1.3919294   -9.4465908  
C    1.3195355   -1.5606025  -11.9519029  
C    2.0012630   -2.1769165  -12.9832035  
O    1.6414550   -1.9309126  -14.2766615  
C    3.0712842   -3.0632440  -12.7143237  
O    3.6489625   -3.5971855  -13.8476985  
C    3.4771598   -3.3480458  -11.4272031  
H    3.6415153   -3.3528265   -8.3646721  
H    0.4900649   -0.7400985   -9.3361071  
H    0.5046855   -0.8871839  -12.1793439  
H    2.2362070   -2.4540322  -14.8297274  
H    4.3621111   -4.1839470  -13.5780070  
H    4.3000142   -4.0312550  -11.2522336  
C    2.3027749   -2.1230392   -5.9144753  
C    1.6515179   -1.6244163   -7.0188784  
C    0.6310519   -0.7498912   -6.5409098  
C    0.7085806   -0.7546401   -5.1246139  
N    1.7328874   -1.6001003   -4.7773247  
C   -0.1496415   -0.0015615   -4.3176961  
C   -1.1033077    0.7706088   -4.9520869  
O   -1.9667116    1.5256560   -4.2121869  
C   -1.1966337    0.7882865   -6.3641049  
O   -2.1980396    1.6065095   -6.8447735  
C   -0.3504844    0.0453980   -7.1607693  
H    2.0305492   -1.7962857   -3.8387673  
H   -2.5411493    1.9798215   -4.8422822  
H   -2.1929078    1.5610739   -7.8057695  
H   -0.4460591    0.0789900   -8.2397570  
H    3.1277799   -2.8114387   -5.8478929  
C    3.3003543    0.0005276   -1.4738987  
C    2.5232814    0.0003497   -2.6090747  
C    1.1623200   -0.0001320   -2.1820103  
C    1.1711883    0.0000582   -0.7636140  
N    2.4852300   -0.0014919   -0.3662360  
C    0.0000000    0.0000000    0.0000000  
C   -1.2020384    0.0000519   -0.6806477  
O   -2.3759249    0.0003493    0.0157743  
C   -1.2314656   -0.0005115   -2.0955510  
O   -2.5054392   -0.0008039   -2.6250180  
C   -0.0764516   -0.0007274   -2.8495195  
H    2.8919955   -0.0005620   -3.6205304  
H    2.8036267    0.0088183    0.5858662  
H   -3.0835638    0.0000347   -0.6418818  
H   -2.4360047   -0.0011529   -3.5845921  
H    4.3715549    0.0004895   -1.3667136  
C    2.5128556    2.1077716    2.9199648  
C    1.9592212    1.6432552    4.0696553  
C    0.8915788    0.7479214    3.6910360  
C    0.8684491    0.7287414    2.2159470  
N    1.8754542    1.5738793    1.8102719  
C    0.0000000    0.0000000    1.4700000  
C   -0.9772830   -0.8200135    2.1664417  
O   -1.8021297   -1.5120829    1.5842315  
C   -0.9711318   -0.8147624    3.7284083  
O   -1.7894187   -1.5009653    4.3257297  
C    0.0140216    0.0115358    4.4216297  
H    2.2638494    1.8988021    5.0689105  
H    0.0117648    0.0094386    5.5031631  
H    3.3327358    2.7953732    2.7900019  
H    2.1123206    1.7707734    0.8551938  
