62

C   -0.7426913    0.6299248   -9.1159754  
C    0.2455528   -0.2007464   -9.5911881  
C    0.1830289   -0.1499494  -11.0153051  
C   -0.8716273    0.7358969  -11.3542775  
N   -1.4137483    1.1901277  -10.1776743  
C   -1.2192959    1.0268313  -12.6768784  
C   -0.4887940    0.4125499  -13.6754796  
O   -0.7858410    0.6614400  -14.9842305  
C    0.5668786   -0.4746530  -13.3572928  
O    1.1983830   -1.0063134  -14.4626814  
C    0.9102386   -0.7623407  -12.0527381  
H    0.9268931   -0.7737642   -8.9858620  
H   -2.1736519    1.8419303  -10.1022990  
H   -2.0221274    1.7009659  -12.9418456  
H   -0.1652322    0.1393472  -15.5091391  
H    1.8976115   -1.5938538  -14.1602259  
H    1.7235904   -1.4461546  -11.8398158  
C    0.8693951   -0.7179713   -5.2245448  
C    0.0139741    0.0003876   -4.4216236  
C   -0.8554505    0.7289891   -5.2864016  
C   -0.4799915    0.4124312   -6.6170959  
N    0.5715134   -0.4670800   -6.5435098  
C   -1.1253127    0.9522981   -7.7337394  
C   -2.1688612    1.8274397   -7.5028483  
O   -2.8338449    2.3833990   -8.5572304  
C   -2.5579889    2.1559332   -6.1824361  
O   -3.6138123    3.0416265   -6.1181834  
C   -1.9216385    1.6239289   -5.0803672  
H    1.0421885   -0.8760588   -7.3303915  
H   -3.5148422    2.9552101   -8.1796864  
H   -3.8133085    3.2103985   -5.1922671  
H   -2.2418642    1.8943552   -4.0809657  
H    1.6693708   -1.3883492   -4.9607424  
C    3.2798085    0.0005853   -1.4499648  
C    2.5571144    0.0005562   -2.5996554  
C    1.1637436    0.0001546   -2.2210360  
C    1.1336965   -0.0000201   -0.7459470  
N    2.4483513   -0.0001430   -0.3402717  
C    0.0000000    0.0000000    0.0000000  
C   -1.2757367   -0.0000188   -0.6964414  
O   -2.3524597   -0.0000640   -0.1142313  
C   -1.2676494   -0.0000875   -2.2584081  
O   -2.3355762   -0.0004102   -2.8557294  
C    0.0181562    0.0001757   -2.9516296  
H    2.9547357    0.0006072   -3.5989105  
H    4.3498550    0.0008609   -1.3200021  
H    2.7563627    0.0012824    0.6148063  
C    0.8175213    0.6860729    2.3021913  
C    0.0000000    0.0000000    1.4700000  
C   -0.8887526   -0.7456559    2.3478473  
C   -0.4549825   -0.3816753    3.7138435  
N    0.5448156    0.4573574    3.6934124  
C   -1.0945674   -0.9182058    4.8835240  
C   -2.1210866   -1.7789155    4.6970523  
O   -2.8083856   -2.3554314    5.6976972  
C   -2.5824069   -2.1655116    3.3310774  
O   -3.5227682   -2.9541547    3.2362962  
C   -1.9100805   -1.6015804    2.1470656  
H   -0.7567140   -0.6349833    5.8697035  
H   -3.4728268   -2.9124471    5.2533954  
H   -2.2742832   -1.9066565    1.1752040  
H    1.6189533    1.3585343    2.0405121  
