64

C    3.8758963   -0.7315584   -4.5547718  
C    2.8310659   -0.0116218   -4.0232754  
C    2.2267726    0.7021014   -5.1003218  
C    2.9517227    0.3752585   -6.2748629  
N    3.9472864   -0.4957926   -5.9077934  
C    2.6324598    0.8994269   -7.5310904  
C    1.5616721    1.7691524   -7.6029847  
O    1.2064684    2.3098786   -8.8048417  
C    0.8263173    2.1077292   -6.4421940  
O   -0.2109569    2.9862818   -6.6778853  
C    1.1408823    1.5912147   -5.2025213  
H    4.6161958   -0.9090220   -6.5321192  
H    0.4459240    2.8803800   -8.6334801  
H   -0.6557439    3.1626650   -5.8432250  
H    0.5594785    1.8690837   -4.3311799  
H    4.5767360   -1.3934615   -4.0755366  
C    3.3041269    0.0001179   -1.5420438  
C    2.5845371   -0.0004781   -0.3695857  
C    1.2040004   -0.0000007   -0.7283595  
C    1.1422369    0.0006038   -2.1454374  
N    2.4348635    0.0026110   -2.6077469  
C   -0.0655184    0.0008799   -2.8497921  
C   -1.2321773    0.0002325   -2.1101399  
O   -2.4392821    0.0001149   -2.7472520  
C   -1.1911212   -0.0000006   -0.6955264  
O   -2.4371530   -0.0002320   -0.1032854  
C    0.0000000    0.0000000    0.0000000  
H    3.0031536   -0.0000663    0.6222571  
H   -0.1193554    0.0014844   -3.9297475  
H   -3.1132992   -0.0000647   -2.0551784  
H   -2.3200281   -0.0004072    0.8516410  
H    4.3686621    0.0004070   -1.7024303  
C    4.3819374   -2.9270815   -9.0433144  
C    3.7383678   -1.9768057   -8.2848546  
C    3.8284778   -0.7443810   -8.9973217  
C    4.5439131   -1.0066045  -10.1936992  
N    4.8666866   -2.3409256  -10.1890842  
C    4.8207610   -0.0169395  -11.1417005  
C    4.3668540    1.2606495  -10.8772910  
O    4.6092873    2.2648512  -11.7693775  
C    3.6516036    1.5420954   -9.6890053  
O    3.2675435    2.8618925   -9.5707814  
C    3.3783603    0.5663157   -8.7532075  
H    3.2634476   -2.1502892   -7.3344089  
H    5.3669951   -2.8195091  -10.9161540  
H    5.3656647   -0.2103109  -12.0554232  
H    4.2128780    3.0629913  -11.3964214  
H    2.7906831    2.9668007   -8.7418043  
H    4.5347774   -3.9763060   -8.8569621  
C    2.3971438    2.0127888    3.1728260  
C    1.9431056    1.6308205    1.9564670  
C    0.8496017    0.7127664    2.2356185  
C    0.7794028    0.6545384    3.7115134  
N    1.6840587    1.4146091    4.2663826  
C   -0.1885723   -0.1578550    4.3957118  
C   -1.0476298   -0.8789867    3.6398520  
O   -2.0015663   -1.6796266    4.1448486  
C   -1.0022026   -0.8410666    2.1483229  
O   -1.8147390   -1.5232959    1.5241687  
C    0.0000000    0.0000000    1.4700000  
H    2.3054237    1.9346118    0.9892483  
H   -0.2170646   -0.1815267    5.4753125  
H   -2.4487139   -2.0549881    3.3649027  
H    3.2048689    2.6911772    3.3971983  
