62

C    5.2112955   -2.4066320   -4.6871254  
C    4.8298539   -1.1036099   -4.9087170  
C    5.8999450   -0.4695112   -5.6068741  
C    6.9156311   -1.4434565   -5.7850253  
N    6.4659640   -2.6076781   -5.2131818  
C    8.1214120   -1.1681571   -6.4370176  
C    8.3050849    0.1136035   -6.9181951  
O    9.4638769    0.4364917   -7.5631429  
C    7.3035842    1.0992446   -6.7498911  
O    7.6365005    2.3268490   -7.2842112  
C    6.1139205    0.8284347   -6.1065495  
H    6.9685050   -3.4766203   -5.1938581  
H    8.8995552   -1.9059966   -6.5759002  
H    9.3872284    1.3664953   -7.8131062  
H    6.9071921    2.9345113   -7.1278170  
H    5.3654765    1.6038729   -5.9925123  
H    4.6882409   -3.2081223   -4.1941896  
C    2.9127956   -0.7214779   -3.3153352  
C    3.5543791   -0.5031924   -4.4921093  
C    2.7457291    0.4250572   -5.2466114  
C    1.5720410    0.7318908   -4.4069096  
N    1.7334695    0.0049281   -3.2500363  
C    0.5691404    1.5730682   -4.7651218  
C    0.6510578    2.2191792   -6.0644931  
O   -0.2019695    2.9933388   -6.4784039  
C    1.8850606    1.9086321   -6.9703642  
O    1.9647734    2.4464582   -8.0665621  
C    2.9022242    0.9847028   -6.4747986  
H   -0.2829855    1.7845533   -4.1341978  
H    3.7535942    0.7751516   -7.1080294  
H    3.2021879   -1.3520593   -2.4904059  
C    1.1319246    0.0015678   -0.8009268  
C    0.7969914    0.0034958   -2.1169401  
C   -0.6453340    0.0035696   -2.1842669  
C   -1.1266832    0.0015410   -0.7896025  
N    0.0000000    0.0000000    0.0000000  
C   -2.4346129    0.0013913   -0.4276292  
C   -3.4350111    0.0031335   -1.4820181  
O   -4.6384614    0.0030875   -1.2583914  
C   -2.9478961    0.0050442   -2.9661074  
O   -3.7809382    0.0062135   -3.8623773  
C   -1.5113825    0.0053055   -3.2312122  
H   -2.7664565    0.0000174    0.6013448  
H   -1.1823533    0.0068381   -4.2614848  
H    2.1104316    0.0009435   -0.3488059  
C    2.5311839    2.1237619    3.0120429  
C    1.9795631    1.6616747    1.8395852  
C    0.9223175    0.7739173    2.1983588  
C    0.8753926    0.7337535    3.6154372  
N    1.8668922    1.5631002    4.0777464  
C   -0.0496243   -0.0427881    4.3197917  
C   -0.9437528   -0.7922060    3.5801400  
O   -1.8685244   -1.5680278    4.2172520  
C   -0.9124520   -0.7656372    2.1655264  
O   -1.8671164   -1.5663939    1.5732860  
C    0.0000000    0.0000000    1.4700000  
H    2.3005065    1.9304404    0.8477417  
H    2.0679347    1.7444845    5.0445261  
H   -0.0904770   -0.0778569    5.3997470  
H   -2.3849669   -2.0011402    3.5251786  
H   -1.7775064   -1.4909735    0.6183591  
H    3.3468514    2.8078103    3.1724291  
