60

C    2.4963620   -2.1240792   -5.9704919  
C    1.9480114   -1.6619034   -4.7965367  
C    0.8896190   -0.7743524   -5.1524289  
C    0.8386567   -0.7344002   -6.5693737  
N    1.8289587   -1.5636688   -7.0343826  
C   -0.0884740    0.0419043   -7.2712052  
C   -0.9806045    0.7912982   -6.5291205  
O   -1.9072989    1.5668925   -7.1637111  
C   -0.9452756    0.7649386   -5.1145981  
O   -1.8983682    1.5656408   -4.5197594  
C   -0.0307359   -0.0004648   -4.4215606  
H    2.2718145   -1.9304788   -3.8055716  
H    2.0272766   -1.7451631   -8.0017035  
H   -0.1324047    0.0768112   -8.3510451  
H   -2.4218338    2.0000296   -6.4702335  
H   -1.8060311    1.4903718   -3.5650808  
H    3.3116701   -2.8080314   -6.1330999  
C    3.2573667   -0.0002920   -1.5109386  
C    2.5379466   -0.0001709   -0.3591965  
C    1.1435040    0.0000332   -0.7338503  
C    1.1092604   -0.0000083   -2.2088478  
N    2.4227557    0.0001908   -2.6182616  
C   -0.0265538   -0.0002523   -2.9515663  
C   -1.3003040   -0.0002641   -2.2514979  
O   -2.3786787   -0.0004133   -2.8306426  
C   -1.2877728    0.0000312   -0.6895607  
O   -2.3539959    0.0003306   -0.0892033  
C    0.0000000    0.0000000    0.0000000  
H    2.9384091   -0.0000368    0.6389234  
H    2.7280486   -0.0013408   -3.5742120  
C    5.6463485   -0.0007505   -0.7029966  
C    4.7161330   -0.0005435   -1.6923266  
C    5.4339820   -0.0003284   -2.9451346  
C    6.8689501   -0.0004570   -2.6021236  
N    6.9298893   -0.0003138   -1.2276506  
C    7.8767467   -0.0007180   -3.5109969  
C    7.5246263   -0.0006575   -4.9211554  
O    8.3596091   -0.0008154   -5.8161995  
C    6.0111288   -0.0002694   -5.3073305  
O    5.7025047    0.0000915   -6.4913957  
C    5.0159843   -0.0002904   -4.2379669  
H    8.9229464   -0.0009388   -3.2382776  
H    3.9702003   -0.0002258   -4.5137572  
H    5.5021925   -0.0009686    0.3652303  
H    7.7763881   -0.0019097   -0.6886840  
C    2.5128556    2.1077716    2.9199648  
C    1.9592212    1.6432552    4.0696553  
C    0.8915788    0.7479214    3.6910360  
C    0.8684491    0.7287414    2.2159470  
N    1.8754542    1.5738793    1.8102719  
C    0.0000000    0.0000000    1.4700000  
C   -0.9772830   -0.8200135    2.1664417  
O   -1.8021297   -1.5120829    1.5842315  
C   -0.9711318   -0.8147624    3.7284083  
O   -1.7894187   -1.5009653    4.3257297  
C    0.0140216    0.0115358    4.4216297  
H    2.2638494    1.8988021    5.0689105  
H    0.0117648    0.0094386    5.5031631  
H    3.3327358    2.7953732    2.7900019  
H    2.1123206    1.7707734    0.8551938  
