60

C    2.7528554   -3.0647961   -4.5524827  
C    3.7923873   -3.7419692   -5.1468543  
C    4.4262924   -4.5106248   -4.1261033  
C    3.7236819   -4.2602602   -2.9196283  
N    2.7149689   -3.3766869   -3.2135886  
C    4.0743351   -4.8535839   -1.7031583  
C    5.1537477   -5.7155824   -1.7047060  
O    5.5388730   -6.3224561   -0.5443625  
C    5.8676120   -5.9777899   -2.8982142  
O    6.9175283   -6.8579565   -2.7359622  
C    5.5224113   -5.3926061   -4.0985991  
H    4.0614586   -3.6876611   -6.1878366  
H    2.0434687   -3.0229419   -2.5563723  
H    3.5429868   -4.6667964   -0.7801296  
H    6.3008033   -6.8740377   -0.7645541  
H    7.3462427   -6.9804511   -3.5884893  
H    6.0881136   -5.6125257   -4.9964267  
C    1.7744462   -2.1336756   -5.1326812  
C    1.6746901   -1.7240756   -6.4187042  
C    0.5405880   -0.8130115   -6.4352721  
C    0.0614873   -0.7888181   -5.0365368  
N    0.7809199   -1.5609927   -4.2683232  
C   -1.0641734    0.0073898   -4.6315339  
C   -1.6828412    0.7461574   -5.5806429  
O   -2.7449529    1.5348090   -5.3440238  
C   -1.2228405    0.7432055   -7.0006961  
O   -1.8334839    1.4397974   -7.8113104  
C   -0.0658199   -0.0818749   -7.3911696  
H    2.2942502   -2.0053647   -7.2530297  
H   -2.9590931    1.9284671   -6.2090843  
H    0.2361347   -0.0563396   -8.4296300  
C    1.1319248    0.0015675   -0.8009270  
C    0.7969916    0.0034959   -2.1169404  
C   -0.6453336    0.0035703   -2.1842672  
C   -1.1266831    0.0015415   -0.7896027  
N    0.0000000    0.0000000    0.0000000  
C   -2.4346129    0.0013924   -0.4276297  
C   -3.4350110    0.0031352   -1.4820184  
O   -4.6384610    0.0030897   -1.2583919  
C   -2.9478958    0.0050460   -2.9661075  
O   -3.7809377    0.0062160   -3.8623775  
C   -1.5113821    0.0053068   -3.2312125  
H    1.4821240    0.0045436   -2.9459192  
H   -2.7664565    0.0000185    0.6013447  
H    2.1104318    0.0009428   -0.3488058  
C    2.3971438    2.0127888    3.1728260  
C    1.9431056    1.6308205    1.9564670  
C    0.8496017    0.7127664    2.2356185  
C    0.7794028    0.6545384    3.7115134  
N    1.6840587    1.4146091    4.2663826  
C   -0.1885723   -0.1578550    4.3957118  
C   -1.0476298   -0.8789867    3.6398520  
O   -2.0015663   -1.6796266    4.1448486  
C   -1.0022026   -0.8410666    2.1483229  
O   -1.8147390   -1.5232959    1.5241687  
C    0.0000000    0.0000000    1.4700000  
H    2.3054237    1.9346118    0.9892483  
H   -0.2170646   -0.1815267    5.4753125  
H   -2.4487139   -2.0549881    3.3649027  
H    3.2048689    2.6911772    3.3971983  
