66

C    1.3266578   -1.0599352   -7.3398642  
C    2.3281263   -1.9458194   -7.0162337  
C    3.0617844   -2.2001087   -8.2127640  
C    2.4567980   -1.4348950   -9.2425044  
N    1.4051738   -0.7559580   -8.6788114  
C    2.9210550   -1.4406814  -10.5612997  
C    4.0161750   -2.2331520  -10.8456945  
O    4.5108430   -2.2757172  -12.1171127  
C    4.6332708   -3.0040755   -9.8319459  
O    5.7126493   -3.7411466  -10.2735461  
C    4.1756395   -2.9990622   -8.5307643  
H    2.5071037   -2.3588959   -6.0383138  
H    0.7953592   -0.1235562   -9.1647902  
H    2.4643051   -0.8598421  -11.3507347  
H    5.2638717   -2.8805390  -12.0970079  
H    6.0711218   -4.2322087   -9.5279192  
H    4.6687278   -3.6001209   -7.7757348  
C    0.1064600   -0.7138168   -5.1554291  
C   -0.9736297    0.0040464   -4.6965763  
C   -1.4912364    0.7334043   -5.8077560  
C   -0.6795014    0.4177976   -6.9273113  
N    0.2821068   -0.4618995   -6.4959643  
C   -0.8998159    0.9585821   -8.1976668  
C   -1.9590503    1.8336802   -8.3405056  
O   -2.2193113    2.3905123   -9.5592002  
C   -2.7800667    2.1612319   -7.2353099  
O   -3.7933058    3.0470085   -7.5387754  
C   -2.5631419    1.6283223   -5.9817237  
H   -0.2846921    0.7221794   -9.0549515  
H   -2.9888519    2.9621252   -9.4394875  
H   -4.3001570    3.2151110   -6.7384960  
H   -3.2086819    1.8980388   -5.1540709  
H    0.7663116   -1.3844917   -4.6322179  
C    1.1188642    0.0008222   -0.8003808  
C    0.0000000    0.0000000    0.0000000  
C   -1.1323862    0.0008899   -0.8673528  
C   -0.6382663    0.0019679   -2.1969280  
N    0.7324016    0.0038481   -2.1202242  
C   -1.4770914    0.0027318   -3.3154808  
C   -2.8395473    0.0020945   -3.0876857  
O   -3.7039201    0.0024425   -4.1440349  
C   -3.3517868    0.0013931   -1.7684331  
O   -4.7300497    0.0012366   -1.7073121  
C   -2.5248543    0.0009123   -0.6644817  
H    1.3576314   -0.0056167   -2.9057046  
H   -4.5940032    0.0021826   -3.7685128  
H   -4.9934602    0.0007259   -0.7819913  
H   -2.9462577    0.0005603    0.3339659  
H    2.1619895    0.0009355   -0.5342068  
C    0.8676693    0.7151171    2.2619005  
C    0.5875920    0.4624972    3.5848544  
C   -0.5048400   -0.4542819    3.6114698  
C   -0.8517165   -0.7276451    2.2635546  
N    0.0000000    0.0000000    1.4700000  
C   -1.8902865   -1.5946756    1.9108239  
C   -2.5912627   -2.1969500    2.9375057  
O   -3.6148162   -3.0527051    2.6493466  
C   -2.2603868   -1.9365747    4.2886322  
O   -3.0513550   -2.6123276    5.1947621  
C   -1.2361111   -1.0811317    4.6373480  
H    1.1060808    0.8876438    4.4271209  
H   -2.1597133   -1.8070987    0.8854031  
H   -3.9636755   -3.3565188    3.4974381  
H   -2.7621927   -2.3810384    6.0827341  
H   -1.0058879   -0.9010589    5.6809233  
H    1.6167816    1.3499334    1.8205408  
