64

C    6.9021918   -0.7556284   -5.9613570  
C    8.2508443   -0.5119048   -6.0805375  
C    8.4163984    0.3863426   -7.1761386  
C    7.1228284    0.6580934   -7.6906821  
N    6.2267627   -0.0526691   -6.9314049  
C    6.9050384    1.5086969   -8.7787210  
C    8.0132632    2.0958998   -9.3576924  
O    7.8576483    2.9352777  -10.4227014  
C    9.3120568    1.8368566   -8.8588431  
O   10.3120977    2.4963986   -9.5431419  
C    9.5276799    0.9976121   -7.7856695  
H    9.0207152   -0.9309486   -5.4554816  
H    5.9216656    1.7197994   -9.1757280  
H    8.7437775    3.2305292  -10.6694118  
H   11.1565428    2.2671957   -9.1431625  
H   10.5340603    0.8181407   -7.4258538  
H    6.3687455   -1.3764041   -5.2620497  
C    2.8310661   -0.0116222   -4.0232753  
C    4.0831507   -0.0216172   -4.5930570  
C    3.8969795   -0.0342032   -6.0071939  
C    2.4982805   -0.0309392   -6.2428998  
N    1.8804233   -0.0190961   -5.0170412  
C    1.9478979   -0.0405793   -7.5281135  
C    2.8254815   -0.0534475   -8.5948189  
O    2.3417516   -0.0628992   -9.8711135  
C    4.2242805   -0.0572734   -8.3799609  
O    4.9653397   -0.0708549   -9.5435733  
C    4.7679481   -0.0480419   -7.1123394  
H    5.0159353   -0.0211372   -4.0555575  
H    0.8877443   -0.0037378   -4.8675958  
H    0.8827819   -0.0383008   -7.7144592  
H    3.1114972   -0.0713611  -10.4547959  
H    5.8985895   -0.0725624   -9.3098092  
C    3.3041271    0.0001176   -1.5420434  
C    2.5845372   -0.0004781   -0.3695856  
C    1.2040006   -0.0000008   -0.7283592  
C    1.1422371    0.0006035   -2.1454375  
N    2.4348636    0.0026108   -2.6077467  
C   -0.0655183    0.0008796   -2.8497920  
C   -1.2321770    0.0002323   -2.1101400  
O   -2.4392820    0.0001145   -2.7472520  
C   -1.1911210   -0.0000008   -0.6955263  
O   -2.4371529   -0.0002320   -0.1032859  
C    0.0000000    0.0000000    0.0000000  
H    3.0031536   -0.0000660    0.6222577  
H   -0.1193552    0.0014842   -3.9297471  
H   -3.1132988   -0.0000649   -2.0551784  
H   -2.3200282   -0.0004071    0.8516410  
H    4.3686623    0.0004070   -1.7024295  
C    2.5528530    2.1414826    2.8079335  
C    2.0663498    1.7338582    4.0032312  
C    0.9804344    0.8229586    3.6752840  
C    0.9495562    0.7966882    2.1971295  
N    1.8690446    1.5676019    1.6831036  
C    0.0000000    0.0000000    1.4700000  
C   -0.8785127   -0.7372425    2.1869543  
O   -1.8187535   -1.5261249    1.6395491  
C   -0.8723269   -0.7321790    3.6796354  
O   -1.7010379   -1.4274584    4.2670412  
C    0.1115397    0.0933559    4.4024240  
H    2.4028853    2.0163452    4.9860947  
H   -2.2861435   -1.9184361    2.3990168  
H    0.0832434    0.0693689    5.4835595  
H    3.3664920    2.8238276    2.6198634  
