64

C    2.9349613   -3.0437124   -8.1226209  
C    2.4353748   -1.8210743   -7.7378656  
C    2.8000911   -0.8849355   -8.7503992  
C    3.5269405   -1.6002569   -9.7362655  
N    3.5920824   -2.9077884   -9.3230650  
C    4.0437859   -0.9923812  -10.8843712  
C    3.8225950    0.3622254  -11.0402370  
O    4.3049407    1.0058390  -12.1430141  
C    3.1000488    1.0932355  -10.0674232  
O    2.9644119    2.4332078  -10.3664557  
C    2.5901119    0.4942574   -8.9344112  
H    4.0379933   -3.6537536   -9.8257387  
H    4.5987344   -1.5319608  -11.6394124  
H    4.0431421    1.9315875  -12.0551766  
H    2.4648273    2.8534861   -9.6597845  
H    2.0408797    1.0800624   -8.2066374  
H    2.8757763   -4.0016813   -7.6350227  
C    1.9332186   -2.1183845   -5.2802478  
C    1.0132700   -1.6573355   -4.3672339  
C    0.1425864   -0.7692371   -5.0656547  
C    0.5838244   -0.7278053   -6.4130661  
N    1.6739347   -1.5567572   -6.5085374  
C   -0.0442371    0.0493839   -7.3909745  
C   -1.1378299    0.7981573   -7.0016524  
O   -1.7886904    1.5745663   -7.9163019  
C   -1.5929067    0.7703231   -5.6618963  
O   -2.6929018    1.5705681   -5.4317602  
C   -0.9736297    0.0040464   -4.6965763  
H    0.9751831   -1.9269941   -3.3256838  
H    0.2872455    0.0854191   -8.4195762  
H   -2.5110529    2.0070699   -7.4425944  
H   -2.9357434    1.4942920   -4.5039598  
H    2.7546830   -2.8023050   -5.1521544  
C    1.1188642    0.0008222   -0.8003808  
C    0.0000000    0.0000000    0.0000000  
C   -1.1323862    0.0008899   -0.8673528  
C   -0.6382663    0.0019679   -2.1969280  
N    0.7324016    0.0038481   -2.1202242  
C   -1.4770914    0.0027318   -3.3154808  
C   -2.8395473    0.0020945   -3.0876857  
O   -3.7039201    0.0024425   -4.1440349  
C   -3.3517868    0.0013931   -1.7684331  
O   -4.7300497    0.0012366   -1.7073121  
C   -2.5248543    0.0009123   -0.6644817  
H    1.3576314   -0.0056167   -2.9057046  
H   -4.5940032    0.0021826   -3.7685128  
H   -4.9934602    0.0007259   -0.7819913  
H   -2.9462577    0.0005603    0.3339659  
H    2.1619895    0.0009355   -0.5342068  
C    2.5128556    2.1077716    2.9199648  
C    1.9592212    1.6432552    4.0696553  
C    0.8915788    0.7479214    3.6910360  
C    0.8684491    0.7287414    2.2159470  
N    1.8754542    1.5738793    1.8102719  
C    0.0000000    0.0000000    1.4700000  
C   -0.9772830   -0.8200135    2.1664417  
O   -1.8021297   -1.5120829    1.5842315  
C   -0.9711318   -0.8147624    3.7284083  
O   -1.7894187   -1.5009653    4.3257297  
C    0.0140216    0.0115358    4.4216297  
H    2.2638494    1.8988021    5.0689105  
H    0.0117648    0.0094386    5.5031631  
H    3.3327358    2.7953732    2.7900019  
H    2.1123206    1.7707734    0.8551938  
