62

C    7.6122791   -0.7137856   -5.2003062  
C    8.9627197   -0.4648074   -5.1179127  
C    9.2834850    0.4438956   -6.1695623  
C    8.0783656    0.7163138   -6.8662696  
N    7.0836098   -0.0041122   -6.2530272  
C    8.0190498    1.5761181   -7.9671808  
C    9.1977139    2.1720047   -8.3719616  
O    9.1965637    3.0205667   -9.4410530  
C   10.4102499    1.9124528   -7.6899011  
O   11.4970614    2.5812996   -8.2141406  
C   10.4695564    1.0641357   -6.6039144  
H    9.6342404   -0.8871418   -4.3901171  
H    7.1037562    1.7877811   -8.5025667  
H   10.1080145    3.3207992   -9.5523287  
H   12.2745789    2.3510795   -7.6963857  
H   11.4129322    0.8845126   -6.1016629  
H    6.9846184   -1.3425586   -4.5923219  
C    3.2973507   -0.0000930   -3.8752373  
C    4.6195923   -0.0010146   -4.2548990  
C    4.6432645   -0.0012901   -5.6810969  
C    3.2943732   -0.0002132   -6.1197515  
N    2.5030708   -0.0014567   -4.9979421  
C    2.9388353    0.0001535   -7.4719278  
C    3.9636646   -0.0002734   -8.3981587  
O    3.6727443    0.0004069   -9.7317166  
C    5.3157203   -0.0017219   -7.9801151  
O    6.2197488   -0.0024021   -9.0222663  
C    5.6672027   -0.0023576   -6.6463295  
H    5.4632736   -0.0025419   -3.5861744  
H    1.4991496    0.0094624   -4.9958713  
H    1.9126561    0.0008290   -7.8127469  
H    4.5199215   -0.0003498  -10.1959958  
H    7.1085248   -0.0033474   -8.6539186  
C    3.3321175    0.0004715   -1.3379331  
C    2.6974186    0.0000117   -2.5332308  
C    1.2800441   -0.0002117   -2.2052838  
C    1.2395036    0.0000644   -0.7271292  
N    2.4394065    0.0005460   -0.2131033  
C    0.0000000    0.0000000    0.0000000  
C   -1.1468701    0.0000635   -0.7169542  
O   -2.3742199    0.0000073   -0.1695491  
C   -1.1388766    0.0001607   -2.2096354  
O   -2.2206227    0.0000905   -2.7970412  
C    0.1454526    0.0001817   -2.9324239  
H   -2.9844344    0.0001026   -0.9290168  
H    0.1083579    0.0003683   -4.0135594  
H    4.3940038    0.0007619   -1.1498630  
C    0.8175213    0.6860729    2.3021913  
C    0.0000000    0.0000000    1.4700000  
C   -0.8887526   -0.7456559    2.3478473  
C   -0.4549825   -0.3816753    3.7138435  
N    0.5448156    0.4573574    3.6934124  
C   -1.0945674   -0.9182058    4.8835240  
C   -2.1210866   -1.7789155    4.6970523  
O   -2.8083856   -2.3554314    5.6976972  
C   -2.5824069   -2.1655116    3.3310774  
O   -3.5227682   -2.9541547    3.2362962  
C   -1.9100805   -1.6015804    2.1470656  
H   -0.7567140   -0.6349833    5.8697035  
H   -3.4728268   -2.9124471    5.2533954  
H   -2.2742832   -1.9066565    1.1752040  
H    1.6189533    1.3585343    2.0405121  
