62

C    2.5505143   -3.3865735   -8.7112213  
C    2.1805174   -2.1229467   -8.3127016  
C    2.2552158   -1.2846055   -9.4643105  
C    2.6797182   -2.0990829  -10.5452141  
N    2.8517569   -3.3690114  -10.0529712  
C    2.8621604   -1.6031866  -11.8396596  
C    2.6112107   -0.2606873  -12.0467783  
O    2.7731063    0.2755247  -13.2914798  
C    2.1873003    0.5682154  -10.9809285  
O    1.9790782    1.8818856  -11.3473382  
C    2.0073693    0.0797376   -9.7036108  
H    3.1392851   -4.1661325  -10.5914016  
H    3.1856469   -2.2186910  -12.6677372  
H    2.5488282    1.2121940  -13.2165513  
H    1.6950701    2.3730078  -10.5703294  
H    1.6820202    0.7388656   -8.9072590  
H    2.6247446   -4.2986881   -8.1442154  
C    2.3338136   -2.1434182   -5.7798768  
C    1.7883284   -1.7365454   -6.9496968  
C    0.7199250   -0.8256235   -6.5685995  
C    0.7626763   -0.7985191   -5.0907557  
N    1.7067550   -1.5690024   -4.6227165  
C   -0.1496415   -0.0015615   -4.3176961  
C   -1.0628929    0.7351418   -4.9904329  
O   -1.9748537    1.5241930   -4.3973341  
C   -1.1310328    0.7292321   -6.4815676  
O   -1.9880868    1.4240531   -7.0273726  
C   -0.1842258   -0.0965645   -7.2519836  
H   -2.4795475    1.9160028   -5.1328081  
H   -0.2663200   -0.0731951   -8.3303828  
H    3.1559294   -2.8255339   -5.6321686  
C    3.3003543    0.0005276   -1.4738987  
C    2.5232814    0.0003497   -2.6090747  
C    1.1623200   -0.0001320   -2.1820103  
C    1.1711883    0.0000582   -0.7636140  
N    2.4852300   -0.0014919   -0.3662360  
C    0.0000000    0.0000000    0.0000000  
C   -1.2020384    0.0000519   -0.6806477  
O   -2.3759249    0.0003493    0.0157743  
C   -1.2314656   -0.0005115   -2.0955510  
O   -2.5054392   -0.0008039   -2.6250180  
C   -0.0764516   -0.0007274   -2.8495195  
H    2.8919955   -0.0005620   -3.6205304  
H    2.8036267    0.0088183    0.5858662  
H   -3.0835638    0.0000347   -0.6418818  
H   -2.4360047   -0.0011529   -3.5845921  
H    4.3715549    0.0004895   -1.3667136  
C    2.4951002    2.0940188    2.9809380  
C    1.9440701    1.6314916    1.8291961  
C    0.8759964    0.7350050    2.2038498  
C    0.8497377    0.7130254    3.6788474  
N    1.8560616    1.5571714    4.0882609  
C   -0.0205033   -0.0168748    4.4215661  
C   -0.9962600   -0.8356168    3.7214979  
O   -1.8224391   -1.5286685    4.3006425  
C   -0.9864710   -0.8277881    2.1595606  
O   -1.8030528   -1.5133726    1.5592035  
C    0.0000000    0.0000000    1.4700000  
H    2.2509283    1.8888011    0.8310761  
H   -0.0229599   -0.0187323    5.5027230  
H    3.3143982    2.7817323    3.1139444  
H    2.0889452    1.7545833    5.0442112  
