64

C    0.8250144   -0.7186622   -5.2242752  
C   -0.0307359   -0.0004648   -4.4215606  
C   -0.9004945    0.7274894   -5.2865473  
C   -0.5248902    0.4107213   -6.6171507  
N    0.5270177   -0.4682865   -6.5433120  
C   -1.1704588    0.9499717   -7.7339496  
C   -2.2144091    1.8247010   -7.5033093  
O   -2.8796467    2.3800522   -8.5578509  
C   -2.6036870    2.1533952   -6.1829921  
O   -3.6599161    3.0386226   -6.1189936  
C   -1.9670931    1.6219995   -5.0807707  
H    0.9978802   -0.8772754   -7.3300762  
H   -0.8889030    0.7126781   -8.7506211  
H   -3.5609066    2.9516596   -8.1804727  
H   -3.8594903    3.2075692   -5.1931261  
H   -2.2874427    1.8925660   -4.0814470  
H    1.6252973   -1.3885971   -4.9602801  
C    3.2573667   -0.0002920   -1.5109386  
C    2.5379466   -0.0001709   -0.3591965  
C    1.1435040    0.0000332   -0.7338503  
C    1.1092604   -0.0000083   -2.2088478  
N    2.4227557    0.0001908   -2.6182616  
C   -0.0265538   -0.0002523   -2.9515663  
C   -1.3003040   -0.0002641   -2.2514979  
O   -2.3786787   -0.0004133   -2.8306426  
C   -1.2877728    0.0000312   -0.6895607  
O   -2.3539959    0.0003306   -0.0892033  
C    0.0000000    0.0000000    0.0000000  
H    2.9384091   -0.0000368    0.6389234  
H    2.7280486   -0.0013408   -3.5742120  
C    6.5860092   -0.0008873    1.4009368  
C    7.6166242   -0.0011137    0.4897294  
C    7.0248897   -0.0012669   -0.8081343  
C    5.6184276   -0.0008356   -0.6243133  
N    5.3862298   -0.0025644    0.7287197  
C    4.7161330   -0.0005435   -1.6923266  
C    5.2432555   -0.0003825   -2.9691660  
O    4.4073061    0.0002543   -4.0481478  
C    6.6437145   -0.0011825   -3.1729579  
O    7.0119358   -0.0013265   -4.5025281  
C    7.5344420   -0.0017441   -2.1198053  
H    8.6658466   -0.0022676    0.7308189  
H    4.4806937    0.0078489    1.1621678  
H    4.9726186   -0.0000401   -4.8315290  
H    7.9727444   -0.0018528   -4.5520295  
H    8.6019014   -0.0025341   -2.3069106  
H    6.6118217   -0.0011080    2.4771773  
C    0.0000000    0.0000000    1.4700000  
C    1.0521667    0.0011902    2.3562342  
C    0.4917218    0.0011957    3.6679131  
C   -0.9187428   -0.0003148    3.5178682  
N   -1.1833171    0.0009411    2.1707914  
C   -1.7951701   -0.0010350    4.6072090  
C   -1.2375837   -0.0005224    5.8710424  
O   -2.0474215   -0.0015360    6.9697579  
C    0.1673580    0.0013566    6.0411963  
O    0.5673524    0.0020687    7.3615553  
C    1.0325770    0.0023412    4.9669890  
H    2.0953057    0.0030649    2.0900562  
H   -2.0989778   -0.0102372    1.7591824  
H   -2.8710934   -0.0020419    4.4995513  
H   -1.4634884   -0.0006497    7.7393593  
H    1.5290710    0.0033153    7.3880045  
H    2.1042148    0.0039609    5.1284455  
