62

C    5.9956985   -0.0113347   -6.8730895  
C    6.6564891   -0.0208163   -8.0796272  
C    8.0530465   -0.0111883   -7.7895685  
C    8.1847308    0.0038987   -6.3773512  
N    6.9165240    0.0053560   -5.8517420  
C    9.4257924    0.0161027   -5.7336056  
C   10.5544806    0.0127132   -6.5299912  
O   11.7915719    0.0238452   -5.9533674  
C   10.4435974   -0.0018946   -7.9407736  
O   11.6588409   -0.0030684   -8.5938627  
C    9.2195860   -0.0136662   -8.5765273  
H    6.1893915   -0.0320494   -9.0495175  
H    9.5329072    0.0277716   -4.6576918  
H   12.4305734    0.0194221   -6.6778830  
H   11.4946901   -0.0133061   -9.5417832  
H    9.1660522   -0.0245522   -9.6588832  
H    4.9403951   -0.0137114   -6.6602792  
C    6.5907972    0.0037509   -4.4182844  
C    5.3731494    0.0029998   -3.8171113  
C    5.6071058    0.0014825   -2.3922963  
C    7.0713654    0.0014398   -2.2113661  
N    7.6095208    0.0024507   -3.4775716  
C    7.6973068    0.0005987   -1.0072486  
C    6.8738981   -0.0005525    0.1904707  
O    7.3427974   -0.0014291    1.3211488  
C    5.3209694   -0.0007806    0.0224890  
O    4.6174378   -0.0020529    1.0236397  
C    4.7630507    0.0004755   -1.3275395  
H    4.4198609    0.0032743   -4.3149605  
H    8.7727861    0.0007137   -0.8965432  
H    8.5911177    0.0042330   -3.6861682  
C    3.3003548    0.0005276   -1.4738982  
C    2.5232817    0.0003497   -2.6090743  
C    1.1623204   -0.0001319   -2.1820101  
C    1.1711886    0.0000583   -0.7636140  
N    2.4852302   -0.0014919   -0.3662356  
C    0.0000000    0.0000000    0.0000000  
C   -1.2020379    0.0000520   -0.6806479  
O   -2.3759249    0.0003495    0.0157742  
C   -1.2314652   -0.0005112   -2.0955511  
O   -2.5054384   -0.0008036   -2.6250184  
C   -0.0764510   -0.0007271   -2.8495195  
H    2.8919962   -0.0005619   -3.6205297  
H    2.8036267    0.0088181    0.5858667  
H   -3.0835636    0.0000348   -0.6418823  
H   -2.4360038   -0.0011526   -3.5845925  
H   -0.1304090   -0.0013420   -3.9319089  
C    2.3971438    2.0127888    3.1728260  
C    1.9431056    1.6308205    1.9564670  
C    0.8496017    0.7127664    2.2356185  
C    0.7794028    0.6545384    3.7115134  
N    1.6840587    1.4146091    4.2663826  
C   -0.1885723   -0.1578550    4.3957118  
C   -1.0476298   -0.8789867    3.6398520  
O   -2.0015663   -1.6796266    4.1448486  
C   -1.0022026   -0.8410666    2.1483229  
O   -1.8147390   -1.5232959    1.5241687  
C    0.0000000    0.0000000    1.4700000  
H    2.3054237    1.9346118    0.9892483  
H   -0.2170646   -0.1815267    5.4753125  
H   -2.4487139   -2.0549881    3.3649027  
H    3.2048689    2.6911772    3.3971983  
