62

C    0.0000000    0.0000000    0.0000000  
C    1.0521670   -0.0011919   -0.8862342  
C    0.4917223   -0.0011964   -2.1979131  
C   -0.9187421    0.0003160   -2.0478687  
N   -1.1833164   -0.0009395   -0.7007918  
C   -1.7951689    0.0010375   -3.1372099  
C   -1.2375821    0.0005241   -4.4010433  
O   -2.0474197    0.0015388   -5.4997590  
C    0.1673600   -0.0013571   -4.5711965  
O    0.5673544   -0.0020698   -5.8915553  
C    1.0325779   -0.0023428   -3.4969889  
H    2.0953060   -0.0030681   -0.6200556  
H   -2.0989773    0.0102402   -0.2891833  
H   -1.4634865    0.0006518   -6.2693599  
H    1.5290736   -0.0033179   -5.9180045  
H    2.1042161   -0.0039640   -3.6584449  
C   -4.5107076    2.0951330   -0.3556552  
C   -3.4200295    1.6321287   -1.0190736  
C   -3.9000899    0.7371487   -2.0454207  
C   -5.3703952    0.7165734   -1.9247152  
N   -5.6767082    1.5600108   -0.8817983  
C   -6.1968221   -0.0116911   -2.7174027  
C   -5.5982295   -0.8300289   -3.7588177  
O   -6.2574702   -1.5216451   -4.5239124  
C   -4.0430709   -0.8236675   -3.9045812  
O   -3.5277081   -1.5089273   -4.7775535  
C   -3.2578642    0.0024087   -2.9908519  
H   -2.3960516    1.8881747   -0.8128629  
H   -7.2728535   -0.0125376   -2.6122056  
H   -4.5607691    2.7820827    0.4734911  
C   -7.8333272    5.1941879    0.5346042  
C   -6.8558284    4.3838326    0.0662022  
C   -7.4682978    3.0668593   -0.0172383  
C   -8.8556399    3.2705981    0.4521818  
N   -9.0755064    4.5156483    0.7769879  
C   -9.8019351    2.1912792    0.5206169  
C   -9.3815045    0.9642797    0.1371511  
O  -10.1575648   -0.1328164    0.1494347  
C   -7.9877651    0.7267481   -0.3416295  
O   -7.6740185   -0.4160047   -0.6746458  
C   -7.0358069    1.8501255   -0.4026493  
H   -5.8441365    4.6472591   -0.1910173  
H  -10.8093363    2.3687863    0.8678102  
H   -9.5813731   -0.8477665   -0.1761437  
H   -7.7790239    6.2521557    0.7364164  
C    3.3041272   -0.0001177    3.0120429  
C    2.5845372    0.0004780    1.8395852  
C    1.2040006    0.0000008    2.1983588  
C    1.1422373   -0.0006037    3.6154372  
N    2.4348639   -0.0026109    4.0777464  
C   -0.0655181   -0.0008797    4.3197917  
C   -1.2321768   -0.0002324    3.5801400  
O   -2.4392816   -0.0001146    4.2172520  
C   -1.1911209    0.0000007    2.1655264  
O   -2.4371527    0.0002320    1.5732860  
C    0.0000000    0.0000000    1.4700000  
H    3.0031534    0.0000661    0.8477417  
H    2.7054629    0.0071099    5.0445261  
H   -0.1193549   -0.0014844    5.3997470  
H   -3.1132988    0.0000648    3.5251786  
H   -2.3200282    0.0004071    0.6183591  
H    4.3686625   -0.0004071    3.1724291  
