66

C    6.5582207    0.0029727   -4.4647477  
C    7.6103886    0.0023859   -3.5785137  
C    7.0499433    0.0016138   -2.2668352  
C    5.6394780    0.0014821   -2.4168803  
N    5.3749053    0.0042714   -3.7639549  
C    4.7630507    0.0004755   -1.3275395  
C    5.3206372   -0.0007212   -0.0637069  
O    4.5107990   -0.0020885    1.0350076  
C    6.7255801   -0.0002356    0.1064473  
O    7.1255749   -0.0011497    1.4268057  
C    7.5907994    0.0010304   -0.9677590  
H    8.6535289    0.0036054   -3.8446907  
H    4.4592348   -0.0057080   -4.1755737  
H    5.0947322   -0.0024568    1.8046094  
H    8.0872937   -0.0007699    1.4532563  
H    8.6624383    0.0015567   -0.8063019  
C    7.6824784    0.0221107   -6.7266310  
C    7.3054691    0.0345181   -8.0495738  
C    5.8793506    0.0257107   -8.0761978  
C    5.4380068    0.0080861   -6.7282985  
N    6.5582208    0.0043936   -5.9347473  
C    4.0851474   -0.0041175   -6.3755798  
C    3.1609842    0.0018818   -7.4022555  
O    1.8268692   -0.0091271   -7.1141077  
C    3.5817249    0.0190449   -8.7533660  
O    2.5414049    0.0226427   -9.6594925  
C    4.9161883    0.0308177   -9.1020706  
H    7.9758724    0.0471249   -8.8918286  
H    3.7422836   -0.0177131   -5.3501714  
H    1.3642955   -0.0027097   -7.9621926  
H    2.9115245    0.0345096  -10.5474536  
H    5.2082299    0.0436952  -10.1456344  
H    8.6643942    0.0230515   -6.2852698  
C    3.3003548    0.0005276   -1.4738982  
C    2.5232817    0.0003497   -2.6090743  
C    1.1623204   -0.0001319   -2.1820101  
C    1.1711886    0.0000583   -0.7636140  
N    2.4852302   -0.0014919   -0.3662356  
C    0.0000000    0.0000000    0.0000000  
C   -1.2020379    0.0000520   -0.6806479  
O   -2.3759249    0.0003495    0.0157742  
C   -1.2314652   -0.0005112   -2.0955511  
O   -2.5054384   -0.0008036   -2.6250184  
C   -0.0764510   -0.0007271   -2.8495195  
H    2.8919962   -0.0005619   -3.6205297  
H    2.8036267    0.0088181    0.5858667  
H   -3.0835636    0.0000348   -0.6418823  
H   -2.4360038   -0.0011526   -3.5845925  
H   -0.1304090   -0.0013420   -3.9319089  
C    2.5311839    2.1237619    3.0120429  
C    1.9795631    1.6616747    1.8395852  
C    0.9223175    0.7739173    2.1983588  
C    0.8753926    0.7337535    3.6154372  
N    1.8668922    1.5631002    4.0777464  
C   -0.0496243   -0.0427881    4.3197917  
C   -0.9437528   -0.7922060    3.5801400  
O   -1.8685244   -1.5680278    4.2172520  
C   -0.9124520   -0.7656372    2.1655264  
O   -1.8671164   -1.5663939    1.5732860  
C    0.0000000    0.0000000    1.4700000  
H    2.3005065    1.9304404    0.8477417  
H    2.0679347    1.7444845    5.0445261  
H   -0.0904770   -0.0778569    5.3997470  
H   -2.3849669   -2.0011402    3.5251786  
H   -1.7775064   -1.4909735    0.6183591  
H    3.3468514    2.8078103    3.1724291  
