64

C    0.6827532   -0.7107507   -5.1516735  
C    0.3353061   -0.4609401   -6.4590917  
C   -0.7638012    0.4477947   -6.4314648  
C   -1.0451347    0.7193735   -5.0680047  
N   -0.1496418   -0.0015612   -4.3176964  
C   -2.0711960    1.5789710   -4.6641739  
C   -2.8268261    2.1755109   -5.6548008  
O   -3.8410211    3.0239061   -5.3162067  
C   -2.5617282    1.9168005   -7.0206740  
O   -3.4017734    2.5862253   -7.8864318  
C   -1.5498286    1.0686877   -7.4197856  
H   -2.2907870    1.7899961   -3.6266528  
H   -4.2338969    3.3246749   -6.1459376  
H   -3.1554897    2.3565573   -8.7876538  
H   -1.3705331    0.8897148   -8.4734929  
H    1.4575543   -1.3398104   -4.7480329  
C    3.3003542    0.0005274   -1.4738989  
C    2.5232813    0.0003500   -2.6090754  
C    1.1623198   -0.0001317   -2.1820106  
C    1.1711884    0.0000582   -0.7636147  
N    2.4852300   -0.0014918   -0.3662361  
C    0.0000000    0.0000000    0.0000000  
C   -1.2020384    0.0000519   -0.6806478  
O   -2.3759247    0.0003492    0.0157742  
C   -1.2314657   -0.0005115   -2.0955509  
O   -2.5054391   -0.0008040   -2.6250184  
C   -0.0764518   -0.0007272   -2.8495197  
H    2.8919953   -0.0005616   -3.6205307  
H    2.8036268    0.0088182    0.5858658  
H   -3.0835641    0.0000344   -0.6418818  
H   -2.4360050   -0.0011528   -3.5845924  
H    4.3715548    0.0004898   -1.3667141  
C    0.9893847   -1.0369074   -7.6428753  
C    2.0450858   -1.9142936   -7.7331851  
C    2.2760278   -2.1463341   -9.1215017  
C    1.3226221   -1.3769299   -9.8363175  
N    0.5559419   -0.7170152   -8.9082388  
C    1.2562493   -1.3623600  -11.2328029  
C    2.1691558   -2.1384036  -11.9202145  
O    2.1490462   -2.1607748  -13.2848057  
C    3.1277988   -2.9131927  -11.2248562  
O    3.9665568   -3.6322702  -12.0511459  
C    3.1936836   -2.9282584   -9.8471921  
H    2.5819022   -2.3361346   -6.9007960  
H   -0.1963068   -0.0865605   -9.1194983  
H    0.5319101   -0.7782232  -11.7835472  
H    2.8583853   -2.7567111  -13.5585974  
H    4.5827404   -4.1273291  -11.5026590  
H    3.9388733   -3.5317908   -9.3422966  
C    2.5128556    2.1077716    2.9199648  
C    1.9592212    1.6432552    4.0696553  
C    0.8915788    0.7479214    3.6910360  
C    0.8684491    0.7287414    2.2159470  
N    1.8754542    1.5738793    1.8102719  
C    0.0000000    0.0000000    1.4700000  
C   -0.9772830   -0.8200135    2.1664417  
O   -1.8021297   -1.5120829    1.5842315  
C   -0.9711318   -0.8147624    3.7284083  
O   -1.7894187   -1.5009653    4.3257297  
C    0.0140216    0.0115358    4.4216297  
H    2.2638494    1.8988021    5.0689105  
H    0.0117648    0.0094386    5.5031631  
H    3.3327358    2.7953732    2.7900019  
H    2.1123206    1.7707734    0.8551938  
