62

C    0.0000000    0.0000000    0.0000000  
C    1.0521661   -0.0011902   -0.8862344  
C    0.4917211   -0.0011956   -2.1979132  
C   -0.9187435    0.0003148   -2.0478678  
N   -1.1833170   -0.0009412   -0.7007910  
C   -1.7951711    0.0010351   -3.1372085  
C   -1.2375846    0.0005226   -4.4010421  
O   -2.0474229    0.0015361   -5.4997574  
C    0.1673569   -0.0013566   -4.5711963  
O    0.5673506   -0.0020687   -5.8915553  
C    1.0325765   -0.0023412   -3.4969895  
H    2.0953057   -0.0030649   -0.6200566  
H   -2.0989777    0.0102372   -0.2891821  
H   -1.4634903    0.0006498   -6.2693591  
H    1.5290693   -0.0033152   -5.9180049  
H    2.1042134   -0.0039609   -3.6584462  
C   -3.2578661    0.0024039   -2.9908499  
C   -4.0046944    0.0033125   -1.8566885  
C   -5.3897524    0.0044627   -2.2646688  
C   -5.3886204    0.0041180   -3.7400636  
N   -4.0656866    0.0032564   -4.1178659  
C   -6.5062997    0.0045471   -4.5098019  
C   -7.7964690    0.0056317   -3.8404755  
O   -8.8606472    0.0061495   -4.4453096  
C   -7.8213911    0.0062654   -2.2786869  
O   -8.9017022    0.0074857   -1.7040673  
C   -6.5505227    0.0054371   -1.5584479  
H   -3.6282787    0.0033734   -0.8492537  
H   -6.5764546    0.0056780   -0.4772210  
H   -3.7375619    0.0012866   -5.0662212  
C   -3.9336581   -2.1058886   -7.3752713  
C   -4.4625742   -1.6414397   -8.5365679  
C   -5.5374028   -0.7452887   -8.1809097  
C   -5.5916864   -0.7255556   -6.7066456  
N   -4.5940231   -1.5711857   -6.2794835  
C   -6.4752356    0.0040105   -5.9794738  
C   -7.4370550    0.8243914   -6.6967003  
O   -8.2735756    1.5171980   -6.1322939  
C   -7.3979011    0.8185662   -8.2581865  
O   -8.2029407    1.5050716   -8.8729070  
C   -6.3988509   -0.0086116   -8.9301438  
H   -4.1370622   -1.8975450   -9.5290726  
H   -6.3782505   -0.0069078  -10.0114840  
H   -3.1171502   -2.7939642   -7.2277698  
H   -4.3775195   -1.7678819   -5.3195440  
C    0.0000000    0.0000000    1.4700000  
C    1.0521667    0.0011902    2.3562342  
C    0.4917218    0.0011957    3.6679131  
C   -0.9187428   -0.0003148    3.5178682  
N   -1.1833171    0.0009411    2.1707914  
C   -1.7951701   -0.0010350    4.6072090  
C   -1.2375837   -0.0005224    5.8710424  
O   -2.0474215   -0.0015360    6.9697579  
C    0.1673580    0.0013566    6.0411963  
O    0.5673524    0.0020687    7.3615553  
C    1.0325770    0.0023412    4.9669890  
H    2.0953057    0.0030649    2.0900562  
H   -2.0989778   -0.0102372    1.7591824  
H   -2.8710934   -0.0020419    4.4995513  
H   -1.4634884   -0.0006497    7.7393593  
H    1.5290710    0.0033153    7.3880045  
H    2.1042148    0.0039609    5.1284455  
