62

C    0.1252721    0.7101692   -7.2392610  
C   -1.0820789    0.4598031   -7.8492519  
C   -0.8276167   -0.4488056   -8.9189616  
C    0.5646770   -0.7197384   -8.9126234  
N    1.1135182    0.0014431   -7.8814647  
C    1.1721212   -1.5790476   -9.8331607  
C    0.3591983   -2.1759570  -10.7771054  
O    0.9003557   -3.0240948  -11.6995063  
C   -1.0320974   -1.9178918  -10.7998289  
O   -1.7053753   -2.5876219  -11.8005786  
C   -1.6319937   -1.0700641   -9.8921722  
H   -2.0294703    0.8811756   -7.5596177  
H    2.2327232   -1.7895799   -9.8337279  
H    0.1698003   -3.3251977  -12.2552849  
H   -2.6381395   -2.3583872  -11.7457420  
H   -2.7000965   -0.8915865   -9.9343737  
H    0.3598905    1.3393315   -6.3977933  
C    3.1006060    0.0006268   -3.9654947  
C    4.3965753    0.0006902   -4.3711275  
C    4.3857806    0.0007800   -5.8149835  
C    2.9671179    0.0007929   -6.2201831  
N    2.2396185    0.0002984   -5.0524357  
C    2.5349220    0.0012657   -7.5066161  
C    3.5336516    0.0015713   -8.5625873  
O    3.2452516    0.0019407   -9.7521782  
C    5.0419196    0.0013115   -8.1564677  
O    5.8918142    0.0012585   -9.0367738  
C    5.3843453    0.0010797   -6.7363984  
H    5.2614039    0.0004935   -3.7318427  
H    6.4309093    0.0011061   -6.4635840  
H    1.2375715    0.0017402   -4.9981499  
C    3.2798085    0.0005859   -1.4499648  
C    2.5571146    0.0005569   -2.5996553  
C    1.1637437    0.0001551   -2.2210359  
C    1.1336966   -0.0000198   -0.7459471  
N    2.4483513   -0.0001427   -0.3402720  
C    0.0000000    0.0000000    0.0000000  
C   -1.2757366   -0.0000185   -0.6964416  
O   -2.3524595   -0.0000640   -0.1142313  
C   -1.2676493   -0.0000870   -2.2584084  
O   -2.3355759   -0.0004098   -2.8557296  
C    0.0181563    0.0001763   -2.9516295  
H    0.0150795    0.0003323   -4.0331630  
H    4.3498549    0.0008614   -1.3200020  
H    2.7563627    0.0012824    0.6148062  
C    0.8576279    0.7185626    2.2703808  
C    0.0000000    0.0000000    1.4700000  
C   -0.8668858   -0.7285659    2.3373528  
C   -0.4876752   -0.4117774    3.6669281  
N    0.5635254    0.4678311    3.5902241  
C   -1.1297612   -0.9515493    4.7854808  
C   -2.1738724   -1.8268314    4.5576857  
O   -2.8357962   -2.3827064    5.6140350  
C   -2.5667212   -2.1555554    3.2384331  
O   -3.6226318   -3.0413663    3.1773122  
C   -1.9335634   -1.6236449    2.1344818  
H    1.0363952    0.8769718    4.3757045  
H   -0.8454472   -0.7142436    5.8013813  
H   -3.5178062   -2.9546422    5.2385129  
H   -3.8247440   -3.2102924    2.2519915  
H   -2.2566033   -1.8942483    1.1360343  
H    1.6567807    1.3889844    2.0042067  
