64

C   -2.4861733   -0.0034646   -3.7159914  
C   -3.5192705   -0.0043702   -2.8075989  
C   -4.7328136   -0.0062599   -3.5572052  
C   -4.3743087   -0.0067134   -4.9295754  
N   -3.0028530   -0.0030323   -4.9905072  
C   -5.3209195   -0.0087734   -5.9585132  
C   -6.6537170   -0.0107123   -5.5954370  
O   -7.6195171   -0.0131194   -6.5599253  
C   -7.0312835   -0.0099212   -4.2315238  
O   -8.3964981   -0.0116663   -4.0327020  
C   -6.0979690   -0.0076160   -3.2159235  
H   -3.4114740   -0.0026406   -1.7364452  
H   -2.4594035   -0.0129939   -5.8346303  
H   -5.0541697   -0.0089853   -7.0063907  
H   -8.4675256   -0.0138652   -6.0971655  
H   -8.5659328   -0.0110123   -3.0856565  
C    0.0000000    0.0000000    0.0000000  
C   -1.0521661   -0.0021967   -0.8862338  
C   -0.4917243   -0.0003872   -2.1979129  
C    0.9187381    0.0026422   -2.0478685  
N    1.1833073    0.0047498   -0.7007916  
C    1.7951629    0.0047430   -3.1372094  
C    1.2375777    0.0034607   -4.4010427  
O    2.0474136    0.0050538   -5.4997585  
C   -0.1673630    0.0008176   -4.5711958  
O   -0.5673581    0.0002421   -5.8915550  
C   -1.0325808   -0.0009827   -3.4969887  
H   -2.0953054   -0.0036795   -0.6200556  
H    2.0989992   -0.0034810   -0.2891831  
H    2.8710839    0.0071992   -3.0295520  
H    1.4634807    0.0040604   -6.2693598  
H   -1.5290761   -0.0016069   -5.9180046  
C   -4.5693130    2.1220825    0.4058514  
C   -4.7504069    1.6583509   -0.8765779  
C   -5.8653008    0.7692126   -0.8442570  
C   -6.3276190    0.7299396    0.4961333  
N   -5.5174014    1.5611242    1.2291390  
C   -7.4181170   -0.0475449    0.8975312  
C   -8.0536710   -0.7988395   -0.0719041  
O   -9.1241229   -1.5756495    0.2653075  
C   -7.6069928   -0.7731839   -1.4145277  
O   -8.3437634   -1.5758100   -2.2608751  
C   -6.5310889   -0.0066171   -1.8111793  
H   -4.1518159    1.9269358   -1.7301259  
H   -5.6103656    1.7434744    2.2120364  
H   -7.7753088   -0.0819426    1.9175471  
H   -9.4131782   -2.0100257   -0.5477296  
H   -7.9768679   -1.5009009   -3.1470918  
H   -3.8379791    2.8074934    0.7986903  
C    3.3321173   -0.0004715    2.8079335  
C    2.6974184   -0.0000116    4.0032312  
C    1.2800439    0.0002118    3.6752840  
C    1.2395035   -0.0000644    2.1971295  
N    2.4394063   -0.0005460    1.6831036  
C    0.0000000    0.0000000    1.4700000  
C   -1.1468701   -0.0000635    2.1869543  
O   -2.3742202   -0.0000073    1.6395491  
C   -1.1388768   -0.0001607    3.6796354  
O   -2.2206231   -0.0000905    4.2670412  
C    0.1454524   -0.0001816    4.4024240  
H    3.1367986    0.0000651    4.9860947  
H   -2.9844344   -0.0001026    2.3990168  
H    0.1083576   -0.0003682    5.4835595  
H    4.3940039   -0.0007619    2.6198634  
