60

C    0.0661661    0.7173190   -7.1174808  
C    1.0237155   -0.0002858   -7.7961634  
C    0.3497934   -0.7286300   -8.8208310  
C   -1.0291590   -0.4126994   -8.7178482  
N   -1.1669056    0.4662060   -7.6723015  
C   -1.9946239   -0.9525194   -9.5729858  
C   -1.5600907   -1.8269676  -10.5500730  
O   -2.4606187   -2.3828492  -11.4120818  
C   -0.1884869   -2.1548289  -10.6685042  
O    0.0851985   -3.0398716  -11.6908253  
C    0.7644864   -1.6228704   -9.8250652  
H   -2.0319549    0.8746651   -7.3676188  
H   -3.0471517   -0.7158651   -9.4996225  
H   -1.9547309   -2.9541392  -12.0045092  
H    1.0323685   -3.2082441  -11.7019392  
H    1.8077638   -1.8928026   -9.9399022  
H    0.1650214    1.3872986   -6.2806333  
C    3.1006060    0.0006268   -3.9654947  
C    4.3994794    0.0008534   -4.3456359  
C    4.3646292    0.0008284   -5.8000375  
C    2.9251417    0.0004560   -6.1383562  
N    2.1793119    0.0004171   -5.0670360  
C    2.4634065    0.0003689   -7.4991966  
C    3.3972670    0.0010303   -8.4775826  
O    3.1090955    0.0010284   -9.7902129  
C    4.8575568    0.0017905   -8.1682057  
O    5.6513836    0.0022449   -9.1089818  
C    5.3059844    0.0018212   -6.7643402  
H    5.2733150    0.0011076   -3.7167584  
H    3.9761780    0.0016100  -10.2344184  
H    6.3723227    0.0024984   -6.5822606  
C    3.2798085    0.0005859   -1.4499648  
C    2.5571146    0.0005569   -2.5996553  
C    1.1637437    0.0001551   -2.2210359  
C    1.1336966   -0.0000198   -0.7459471  
N    2.4483513   -0.0001427   -0.3402720  
C    0.0000000    0.0000000    0.0000000  
C   -1.2757366   -0.0000185   -0.6964416  
O   -2.3524595   -0.0000640   -0.1142313  
C   -1.2676493   -0.0000870   -2.2584084  
O   -2.3355759   -0.0004098   -2.8557296  
C    0.0181563    0.0001763   -2.9516295  
H    0.0150795    0.0003323   -4.0331630  
H    4.3498549    0.0008614   -1.3200020  
H    2.7563627    0.0012824    0.6148062  
C    2.5128556    2.1077716    2.9199648  
C    1.9592212    1.6432552    4.0696553  
C    0.8915788    0.7479214    3.6910360  
C    0.8684491    0.7287414    2.2159470  
N    1.8754542    1.5738793    1.8102719  
C    0.0000000    0.0000000    1.4700000  
C   -0.9772830   -0.8200135    2.1664417  
O   -1.8021297   -1.5120829    1.5842315  
C   -0.9711318   -0.8147624    3.7284083  
O   -1.7894187   -1.5009653    4.3257297  
C    0.0140216    0.0115358    4.4216297  
H    2.2638494    1.8988021    5.0689105  
H    0.0117648    0.0094386    5.5031631  
H    3.3327358    2.7953732    2.7900019  
H    2.1123206    1.7707734    0.8551938  
