64

C    9.8694545    0.7157395   -0.7569282  
C    9.2840101   -0.0022190    0.2600569  
C   10.3249670   -0.7310734    0.9079602  
C   11.5340993   -0.4150755    0.2370867  
N   11.2214880    0.4643599   -0.7696331  
C   12.7688409   -0.9553169    0.6090328  
C   12.7832757   -1.8302640    1.6778814  
O   13.9619231   -2.3865704    2.0832559  
C   11.5872849   -2.1581994    2.3597010  
O   11.7667255   -3.0437624    3.4022574  
C   10.3687865   -1.6258263    1.9931435  
H   11.8795029    0.8729824   -1.4084016  
H   13.6939410   -0.7186139    0.1017251  
H   13.7505299   -2.9581655    2.8328266  
H   10.9112408   -3.2121509    3.8089455  
H    9.4694465   -1.8958278    2.5342218  
H    9.4293492    1.3861409   -1.4751405  
C    5.6685262    0.0007277   -2.2869310  
C    4.7390840    0.0009613   -1.2727298  
C    5.4635794   -0.0000956   -0.0440289  
C    6.8430309   -0.0006642   -0.3742391  
N    6.9321467   -0.0020935   -1.7441565  
C    7.8522877   -0.0014302    0.5933291  
C    7.4618845   -0.0013188    1.9183810  
O    8.4063109   -0.0016935    2.9038108  
C    6.0904957   -0.0011304    2.2678231  
O    5.8636451   -0.0014626    3.6286619  
C    5.0942998   -0.0006479    1.3138209  
H    7.7872775    0.0077866   -2.2701178  
H    7.9262124   -0.0018351    3.7421244  
H    4.9133155   -0.0012788    3.7785862  
H    4.0523279   -0.0006957    1.6117685  
H    5.5300625    0.0009044   -3.3545388  
C    3.2798077    0.0005856   -1.4499661  
C    2.5571132    0.0005565   -2.5996564  
C    1.1637425    0.0001547   -2.2210366  
C    1.1336959   -0.0000200   -0.7459475  
N    2.4483509   -0.0001429   -0.3402730  
C    0.0000000    0.0000000    0.0000000  
C   -1.2757370   -0.0000187   -0.6964411  
O   -2.3524597   -0.0000640   -0.1142306  
C   -1.2676502   -0.0000874   -2.2584078  
O   -2.3355774   -0.0004102   -2.8557287  
C    0.0181551    0.0001758   -2.9516297  
H    2.9547342    0.0006074   -3.5989118  
H    0.0150776    0.0003317   -4.0331632  
H    2.7563626    0.0012823    0.6148051  
C    0.8576279    0.7185626    2.2703808  
C    0.0000000    0.0000000    1.4700000  
C   -0.8668858   -0.7285659    2.3373528  
C   -0.4876752   -0.4117774    3.6669281  
N    0.5635254    0.4678311    3.5902241  
C   -1.1297612   -0.9515493    4.7854808  
C   -2.1738724   -1.8268314    4.5576857  
O   -2.8357962   -2.3827064    5.6140350  
C   -2.5667212   -2.1555554    3.2384331  
O   -3.6226318   -3.0413663    3.1773122  
C   -1.9335634   -1.6236449    2.1344818  
H    1.0363952    0.8769718    4.3757045  
H   -0.8454472   -0.7142436    5.8013813  
H   -3.5178062   -2.9546422    5.2385129  
H   -3.8247440   -3.2102924    2.2519915  
H   -2.2566033   -1.8942483    1.1360343  
H    1.6567807    1.3889844    2.0042067  
