64

C    9.0650765    0.0039151   -3.7963023  
C    9.6896898    0.0056354   -5.0219952  
C   11.0942730    0.0075070   -4.7735210  
C   11.2679124    0.0065361   -3.3657655  
N   10.0158936    0.0063046   -2.8026779  
C   12.5275867    0.0075755   -2.7591301  
C   13.6320959    0.0093256   -3.5887282  
O   14.8858045    0.0100490   -3.0490728  
C   13.4792949    0.0106920   -4.9956636  
O   14.6745869    0.0127902   -5.6845881  
C   12.2369009    0.0099409   -5.5948136  
H    9.1939448    0.0066567   -5.9776255  
H    9.8226112   -0.0049019   -1.8175396  
H   12.6666618    0.0069884   -1.6868143  
H   15.5029789    0.0115640   -3.7922817  
H   14.4823099    0.0135775   -6.6272612  
H   12.1511948    0.0112078   -6.6751525  
C    6.6001506    0.0019432   -4.3713018  
C    7.6333543    0.0021445   -3.4630303  
C    7.0453163    0.0020497   -2.1634882  
C    5.6383364    0.0015001   -2.3433062  
N    5.4022893    0.0033999   -3.6956728  
C    4.7390840    0.0009613   -1.2727298  
C    5.2698382    0.0006705    0.0026046  
O    4.4369620   -0.0002077    1.0839606  
C    6.6708713    0.0015852    0.2024106  
O    7.0428744    0.0015758    1.5309279  
C    7.5585984    0.0023904   -0.8532722  
H    4.4955245   -0.0070443   -4.1265437  
H    5.0045018    0.0000321    1.8657301  
H    8.0038195    0.0021938    1.5776946  
H    8.6265854    0.0032633   -0.6692055  
H    6.6229006    0.0023217   -5.4476114  
C    3.2798077    0.0005856   -1.4499661  
C    2.5571132    0.0005565   -2.5996564  
C    1.1637425    0.0001547   -2.2210366  
C    1.1336959   -0.0000200   -0.7459475  
N    2.4483509   -0.0001429   -0.3402730  
C    0.0000000    0.0000000    0.0000000  
C   -1.2757370   -0.0000187   -0.6964411  
O   -2.3524597   -0.0000640   -0.1142306  
C   -1.2676502   -0.0000874   -2.2584078  
O   -2.3355774   -0.0004102   -2.8557287  
C    0.0181551    0.0001758   -2.9516297  
H    2.9547342    0.0006074   -3.5989118  
H    0.0150776    0.0003317   -4.0331632  
H    2.7563626    0.0012823    0.6148051  
C    0.8576279    0.7185626    2.2703808  
C    0.0000000    0.0000000    1.4700000  
C   -0.8668858   -0.7285659    2.3373528  
C   -0.4876752   -0.4117774    3.6669281  
N    0.5635254    0.4678311    3.5902241  
C   -1.1297612   -0.9515493    4.7854808  
C   -2.1738724   -1.8268314    4.5576857  
O   -2.8357962   -2.3827064    5.6140350  
C   -2.5667212   -2.1555554    3.2384331  
O   -3.6226318   -3.0413663    3.1773122  
C   -1.9335634   -1.6236449    2.1344818  
H    1.0363952    0.8769718    4.3757045  
H   -0.8454472   -0.7142436    5.8013813  
H   -3.5178062   -2.9546422    5.2385129  
H   -3.8247440   -3.2102924    2.2519915  
H   -2.2566033   -1.8942483    1.1360343  
H    1.6567807    1.3889844    2.0042067  
