62

C    1.1243411    0.0099384   -0.7919005  
C    0.7474078    0.0234185   -2.1148545  
C   -0.6787380    0.0234814   -2.1414695  
C   -1.1201744    0.0099129   -0.7935545  
N    0.0000000    0.0000000    0.0000000  
C   -2.4730816    0.0064892   -0.4408227  
C   -3.3971956    0.0172606   -1.4675042  
O   -4.7313519    0.0148525   -1.1793452  
C   -2.9763646    0.0304928   -2.8186314  
O   -4.0166473    0.0397038   -3.7247606  
C   -1.6418560    0.0336045   -3.1673474  
H    1.4178719    0.0310291   -2.9571215  
H   -2.8160170   -0.0039761    0.5845978  
H   -5.1938815    0.0233353   -2.0274368  
H   -3.6464666    0.0484034   -4.6127327  
H    2.1062466    0.0051810   -0.3505416  
C    1.5730300   -2.0887848   -5.2038814  
C    1.4267762   -1.6687573   -6.4820699  
C    0.2927987   -0.7579470   -6.4501483  
C   -0.1353540   -0.7452959   -5.0348361  
N    0.6114327   -1.5234734   -4.2994866  
C   -1.2456325    0.0472319   -4.5828760  
C   -1.8982682    0.7935083   -5.5029158  
O   -2.9511347    1.5798712   -5.2215853  
C   -1.4899754    0.8022658   -6.9386666  
O   -2.1295772    1.5052428   -7.7209412  
C   -0.3478308   -0.0192423   -7.3774776  
H    2.0157328   -1.9430474   -7.3405396  
H   -3.1964582    1.9804925   -6.0750903  
H   -0.0836671    0.0148443   -8.4259461  
C    4.8817206   -4.3227464   -7.0902561  
C    3.8157080   -3.5154163   -6.8538063  
C    3.5208531   -3.6096828   -5.4434832  
C    4.5095763   -4.5447925   -4.8735825  
N    5.3050298   -4.9414355   -5.9237348  
C    4.5669575   -4.8997194   -3.5649809  
C    3.5895593   -4.3223615   -2.6572994  
O    3.5583673   -4.5792071   -1.4609056  
C    2.5330551   -3.3298702   -3.2391628  
O    1.7049602   -2.8376841   -2.4846616  
C    2.5718208   -3.0242898   -4.6670879  
H    3.2951993   -2.9217631   -7.5840530  
H    5.3004343   -5.5873278   -3.1673419  
H    5.3935621   -4.5179565   -8.0185887  
H    6.0757558   -5.5802259   -5.8532027  
C    2.5311839    2.1237619    3.0120429  
C    1.9795631    1.6616747    1.8395852  
C    0.9223175    0.7739173    2.1983588  
C    0.8753926    0.7337535    3.6154372  
N    1.8668922    1.5631002    4.0777464  
C   -0.0496243   -0.0427881    4.3197917  
C   -0.9437528   -0.7922060    3.5801400  
O   -1.8685244   -1.5680278    4.2172520  
C   -0.9124520   -0.7656372    2.1655264  
O   -1.8671164   -1.5663939    1.5732860  
C    0.0000000    0.0000000    1.4700000  
H    2.3005065    1.9304404    0.8477417  
H    2.0679347    1.7444845    5.0445261  
H   -0.0904770   -0.0778569    5.3997470  
H   -2.3849669   -2.0011402    3.5251786  
H   -1.7775064   -1.4909735    0.6183591  
H    3.3468514    2.8078103    3.1724291  
