60

C   -9.0823972    3.2582386   -1.6103806  
C  -10.2244750    2.4913474   -1.6112564  
C   -9.8265408    1.1521815   -1.8991500  
C   -8.4179475    1.1631898   -2.0654967  
N   -7.9983863    2.4578588   -1.8854472  
C   -7.6821512    0.0113406   -2.3598349  
C   -8.3810172   -1.1732538   -2.4882928  
O   -7.7119481   -2.3279308   -2.7747907  
C   -9.7865788   -1.2044323   -2.3263023  
O  -10.3367459   -2.4595441   -2.4855288  
C  -10.5131400   -0.0684439   -2.0361895  
H  -11.2218490    2.8528805   -1.4281342  
H   -7.0456903    2.7710845   -1.9327861  
H   -8.3785583   -3.0256585   -2.8203025  
H  -11.2882688   -2.3926836   -2.3600814  
H  -11.5890060   -0.1232237   -1.9179200  
H   -8.9554574    4.3130785   -1.4367222  
C   -4.4297974    2.1087670   -0.2339398  
C   -5.6380117    1.6447705   -0.6450366  
C   -5.3911869    0.7496345   -1.7507690  
C   -3.9296543    0.7300040   -1.9515853  
N   -3.4052343    1.5747188   -1.0006228  
C   -3.2941076    0.0012878   -2.9038237  
C   -4.1035802   -0.8182213   -3.7902175  
O   -3.6253063   -1.5102279   -4.6794205  
C   -5.6534087   -0.8124879   -3.5957847  
O   -6.3452681   -1.4982638   -4.3362584  
C   -6.2225101    0.0137344   -2.5340254  
H   -6.5931606    1.9005373   -0.2220858  
H   -4.2016945    2.7960862    0.5644657  
H   -2.4284974    1.7712471   -0.8805867  
C    0.0000000    0.0000000    0.0000000  
C    1.0541688   -0.0001723   -0.8560392  
C    0.5103136   -0.0000455   -2.1935956  
C   -0.9576373    0.0002461   -2.0455730  
N   -1.2018460   -0.0001389   -0.6915968  
C   -1.8348314    0.0008319   -3.0810607  
C   -1.2972851    0.0009739   -4.4314603  
O   -2.0050676    0.0014268   -5.4301316  
C    0.2542619    0.0004184   -4.6117572  
O    0.7184666    0.0002257   -5.7439122  
C    1.0974551    0.0000873   -3.4189129  
H    2.0940752   -0.0005484   -0.5817983  
H    2.1707276   -0.0000912   -3.5523673  
H   -2.1128194    0.0014915   -0.2706789  
C    1.0965515   -0.0001358    2.2710304  
C    0.0000000    0.0000000    1.4700000  
C   -1.1546562   -0.0001469    2.3369512  
C   -0.6372014   -0.0003519    3.7186280  
N    0.7342871   -0.0007337    3.6095011  
C   -1.4147739   -0.0001353    4.8308716  
C   -2.8576048    0.0001048    4.6554461  
O   -3.6427778    0.0002493    5.5944904  
C   -3.4275839    0.0000726    3.2011665  
O   -4.6406829   -0.0000333    3.0410059  
C   -2.4891866    0.0001091    2.0816745  
H   -1.0150448   -0.0001615    5.8354244  
H   -2.8919121    0.0002919    1.0779135  
H    2.1388271   -0.0000662    1.9961646  
H    1.3735872    0.0006099    4.3830260  
