62

C   -0.0932350    0.7206730   -7.2779964  
C   -1.0551495    0.4719133   -8.2294729  
C   -0.4848825   -0.4355111   -9.1707360  
C    0.8381896   -0.7074104   -8.7377494  
N    1.0442345    0.0120828   -7.5868831  
C    1.6986279   -1.5659677   -9.4286292  
C    1.2145125   -2.1611179  -10.5773696  
O    2.0124391   -3.0084559  -11.2903535  
C   -0.1025841   -1.9020661  -11.0256626  
O   -0.4363780   -2.5700609  -12.1857085  
C   -0.9518880   -1.0549790  -10.3447417  
H   -2.0455975    0.8935697   -8.2440058  
H    2.7081549   -1.7772294   -9.1039361  
H    1.4876532   -3.3083496  -12.0439631  
H   -1.3408900   -2.3402538  -12.4194879  
H   -1.9554344   -0.8757126  -10.7124867  
H   -0.1280479    1.3486044   -6.4042406  
C    1.7334697    0.0049246   -3.2500361  
C    3.0913864    0.0046109   -3.2383151  
C    3.5242787    0.0065419   -4.6157896  
C    2.2984620    0.0080464   -5.4368631  
N    1.2476583    0.0065696   -4.5487757  
C    2.2819760    0.0104505   -6.7938550  
C    3.5566099    0.0114097   -7.4923122  
O    3.6472547    0.0134886   -8.7130007  
C    4.8674242    0.0095955   -6.6428609  
O    5.9464907    0.0100754   -7.2198161  
C    4.7574562    0.0073243   -5.1862365  
H    3.7182532    0.0030068   -2.3644448  
H    5.6697682    0.0062836   -4.6053670  
H    0.2773174    0.0086325   -4.8046684  
C    1.1319247    0.0015655   -0.8009267  
C    0.7969916    0.0034943   -2.1169401  
C   -0.6453337    0.0035710   -2.1842668  
C   -1.1266832    0.0015433   -0.7896026  
N    0.0000000    0.0000000    0.0000000  
C   -2.4346130    0.0013964   -0.4276294  
C   -3.4350109    0.0031408   -1.4820183  
O   -4.6384610    0.0030973   -1.2583915  
C   -2.9478956    0.0050505   -2.9661075  
O   -3.7809378    0.0062218   -3.8623775  
C   -1.5113821    0.0053090   -3.2312122  
H   -2.7664565    0.0000232    0.6013446  
H   -1.1823527    0.0068407   -4.2614846  
H    2.1104317    0.0009391   -0.3488056  
C    2.5311839    2.1237619    3.0120429  
C    1.9795631    1.6616747    1.8395852  
C    0.9223175    0.7739173    2.1983588  
C    0.8753926    0.7337535    3.6154372  
N    1.8668922    1.5631002    4.0777464  
C   -0.0496243   -0.0427881    4.3197917  
C   -0.9437528   -0.7922060    3.5801400  
O   -1.8685244   -1.5680278    4.2172520  
C   -0.9124520   -0.7656372    2.1655264  
O   -1.8671164   -1.5663939    1.5732860  
C    0.0000000    0.0000000    1.4700000  
H    2.3005065    1.9304404    0.8477417  
H    2.0679347    1.7444845    5.0445261  
H   -0.0904770   -0.0778569    5.3997470  
H   -2.3849669   -2.0011402    3.5251786  
H   -1.7775064   -1.4909735    0.6183591  
H    3.3468514    2.8078103    3.1724291  
