62

C    3.1083963   -0.7184880   -7.5321332  
C    2.1141631   -0.0018212   -8.1569191  
C    2.7294843    0.7256065   -9.2184406  
C    4.1121304    0.4101091   -9.1924464  
N    4.3084195   -0.4676666   -8.1553356  
C    5.0280797    0.9492590  -10.1008209  
C    4.5393011    1.8225794  -11.0529676  
O    5.3900246    2.3777685  -11.9645870  
C    3.1631231    2.1499927  -11.0948113  
O    2.8324072    3.0338987  -12.1011312  
C    2.2589905    1.6186952  -10.1988246  
H    5.1892813   -0.8756021   -7.8991088  
H    6.0831332    0.7129299  -10.0862175  
H    4.8516147    2.9483174  -12.5283713  
H    1.8860494    3.2020359  -12.0594077  
H    1.2108428    1.8882610  -10.2553877  
H    3.0567150   -1.3876128   -6.6903734  
C   -0.1496416   -0.0015616   -4.3176961  
C    0.8738328   -0.0018845   -5.2031790  
C    0.2377942   -0.0027133   -6.5115952  
C   -1.2121173   -0.0029014   -6.2211816  
N   -1.4453512   -0.0021480   -4.9368177  
C   -2.1975659   -0.0036293   -7.2671154  
C   -1.7546864   -0.0037566   -8.5450793  
O   -2.5622322   -0.0044170   -9.6192816  
C   -0.2978792   -0.0032025   -8.8704624  
O    0.0332557   -0.0034801  -10.0560299  
C    0.6933431   -0.0025036   -7.7798645  
H    1.9299719   -0.0015054   -4.9942638  
H   -3.2505493   -0.0039578   -7.0260012  
H   -1.9581274   -0.0043089  -10.3836182  
C    3.3003544    0.0005274   -1.4738988  
C    2.5232813    0.0003494   -2.6090747  
C    1.1623199   -0.0001321   -2.1820103  
C    1.1711883    0.0000582   -0.7636141  
N    2.4852299   -0.0014920   -0.3662360  
C    0.0000000    0.0000000    0.0000000  
C   -1.2020383    0.0000519   -0.6806477  
O   -2.3759250    0.0003494    0.0157744  
C   -1.2314656   -0.0005115   -2.0955510  
O   -2.5054391   -0.0008040   -2.6250180  
C   -0.0764517   -0.0007275   -2.8495195  
H    2.8919953   -0.0005622   -3.6205304  
H    2.8036267    0.0088182    0.5858661  
H   -3.0835639    0.0000346   -0.6418817  
H   -2.4360050   -0.0011531   -3.5845921  
H    4.3715546    0.0004893   -1.3667137  
C    2.4951002    2.0940188    2.9809380  
C    1.9440701    1.6314916    1.8291961  
C    0.8759964    0.7350050    2.2038498  
C    0.8497377    0.7130254    3.6788474  
N    1.8560616    1.5571714    4.0882609  
C   -0.0205033   -0.0168748    4.4215661  
C   -0.9962600   -0.8356168    3.7214979  
O   -1.8224391   -1.5286685    4.3006425  
C   -0.9864710   -0.8277881    2.1595606  
O   -1.8030528   -1.5133726    1.5592035  
C    0.0000000    0.0000000    1.4700000  
H    2.2509283    1.8888011    0.8310761  
H   -0.0229599   -0.0187323    5.5027230  
H    3.3143982    2.7817323    3.1139444  
H    2.0889452    1.7545833    5.0442112  
