62

C    8.5732774    0.7311733   -3.2707417  
C    8.2871482    0.0114099   -2.1338429  
C    9.4714521   -0.7024331   -1.7839092  
C   10.4555765   -0.3758383   -2.7517733  
N    9.8765746    0.4951867   -3.6409800  
C   11.7512695   -0.9001793   -2.7195827  
C   12.0591925   -1.7698252   -1.6914405  
O   13.3098581   -2.3107123   -1.6121239  
C   11.0907849   -2.1081552   -0.7164866  
O   11.5509620   -2.9866576    0.2425834  
C    9.8122755   -1.5914705   -0.7477746  
H   10.3367059    0.9082602   -4.4319485  
H   12.5058648   -0.6553399   -3.4543222  
H   13.3117065   -2.8811221   -0.8324485  
H   10.8359841   -3.1628701    0.8617440  
H    9.0918794   -1.8691517    0.0127507  
H    7.9503774    1.3930934   -3.8476438  
C    5.7628303    0.0000243   -2.0437091  
C    4.7795901    0.0008674   -1.0815733  
C    5.4361690    0.0004501    0.1847223  
C    6.8315417   -0.0003741   -0.0699541  
N    6.9950514   -0.0025645   -1.4329936  
C    7.7866665   -0.0006596    0.9510869  
C    7.3247567    0.0002043    2.2529380  
O    8.2141754    0.0003231    3.2882868  
C    5.9363881    0.0006585    2.5272563  
O    5.6358413    0.0010897    3.8737390  
C    4.9935669    0.0006673    1.5204720  
H    8.8515839   -0.0014312    0.7635961  
H    7.6891821    0.0006695    4.0992410  
H    4.6787629    0.0014066    3.9717414  
H    3.9369291    0.0008395    1.7612934  
H    5.6826514   -0.0003807   -3.1172687  
C    3.3321168    0.0004716   -1.3379341  
C    2.6974177    0.0000118   -2.5332316  
C    1.2800432   -0.0002116   -2.2052842  
C    1.2395033    0.0000644   -0.7271298  
N    2.4394059    0.0005460   -0.2131041  
C    0.0000000    0.0000000    0.0000000  
C   -1.1468704    0.0000635   -0.7169542  
O   -2.3742206    0.0000074   -0.1695488  
C   -1.1388774    0.0001608   -2.2096352  
O   -2.2206238    0.0000906   -2.7970409  
C    0.1454514    0.0001818   -2.9324241  
H    3.1367978   -0.0000649   -3.5160956  
H   -2.9844350    0.0001027   -0.9290164  
H    0.1083567    0.0003684   -4.0135594  
C    0.8681109    0.7263879    2.2709268  
C    0.6127770    0.5096195    3.5869401  
C   -0.4920590   -0.4175482    3.6542670  
C   -0.8620974   -0.7254003    2.2596025  
N    0.0000000    0.0000000    1.4700000  
C   -1.8641242   -1.5660088    1.8976294  
C   -2.6293522   -2.2103885    2.9520183  
O   -3.5512764   -2.9839180    2.7283916  
C   -2.2549728   -1.8987399    4.4361073  
O   -2.8923672   -2.4351063    5.3323774  
C   -1.1543735   -0.9755647    4.7012123  
H    1.1382914    0.9492124    4.4159191  
H   -2.1192137   -1.7782617    0.8686553  
H   -0.9013378   -0.7652422    5.7314848  
H    1.6172880    1.3558399    1.8188057  
