60

C    8.4779169   -3.2750517   -4.3823928  
C    7.2931240   -2.5933143   -4.2275799  
C    7.5558082   -1.2261244   -4.5380456  
C    8.9296190   -1.1331679   -4.8785313  
N    9.4601752   -2.3948147   -4.7718802  
C    9.5389800    0.0717184   -5.2414581  
C    8.7469923    1.2033274   -5.2613174  
O    9.2909403    2.4059837   -5.6088130  
C    7.3743694    1.1308758   -4.9244587  
O    6.7208186    2.3440256   -4.9914011  
C    6.7726139   -0.0573878   -4.5660651  
H    6.3551883   -3.0277595   -3.9267024  
H   10.4146671   -2.6410204   -4.9624263  
H   10.5855701    0.1492471   -5.5019176  
H    8.5760636    3.0537974   -5.5582778  
H    5.7998149    2.2071002   -4.7493126  
H    8.7003494   -4.3192953   -4.2444147  
C    4.2926942   -2.1403413   -1.5040812  
C    5.3604709   -1.7320208   -2.2284477  
C    4.8134481   -0.8208703   -3.2219620  
C    3.3612075   -0.7952320   -2.9446112  
N    3.0500070   -1.5667026   -1.9386405  
C    2.4521483    0.0014840   -3.7217481  
C    2.9703735    0.7393569   -4.7298757  
O    2.2390463    1.5283420   -5.5352975  
C    4.4316781    0.7349405   -5.0343914  
O    4.8335663    1.4307757   -5.9668722  
C    5.3436401   -0.0906363   -4.2228046  
H    6.3919441   -2.0142020   -2.1038949  
H    2.8845131    1.9211529   -6.1502981  
H    4.2782631   -2.8230632   -0.6694220  
C    0.0000000    0.0000000    0.0000000  
C    1.0662923   -0.0000101   -0.8334270  
C    0.4961873    0.0000065   -2.1718887  
C   -0.9663854   -0.0000848   -1.9540250  
N   -1.2632773   -0.0000083   -0.6828660  
C   -1.8985359   -0.0000514   -3.0477261  
C   -1.3925770    0.0004566   -4.3020547  
O   -2.1456378    0.0005414   -5.4151314  
C    0.0786240    0.0009326   -4.5545000  
O    0.4683767    0.0012591   -5.7221100  
C    1.0143171    0.0008444   -3.4159031  
H    2.1107200    0.0000633   -0.5721865  
H   -2.9622181   -0.0003268   -2.8593381  
H   -1.5042265    0.0009697   -6.1484419  
C    0.0000000    0.0000000    1.4700000  
C    1.0541688    0.0001722    2.3260392  
C    0.5103138    0.0000454    3.6635956  
C   -0.9576371   -0.0002459    3.5155732  
N   -1.2018458    0.0001392    2.1615969  
C   -1.8348311   -0.0008317    4.5510609  
C   -1.2972847   -0.0009736    5.9014604  
O   -2.0050672   -0.0014265    6.9001319  
C    0.2542623   -0.0004184    6.0817573  
O    0.7184670   -0.0002256    7.2139121  
C    1.0974552   -0.0000873    4.8889129  
H    2.0940752    0.0005483    2.0517982  
H   -2.9081052   -0.0011668    4.4207061  
H    2.1707277    0.0000911    5.0223670  
H   -2.1128194   -0.0014912    1.7406791  
