62

C    0.0000000    0.0000000    0.0000000  
C   -1.0521667   -0.0016055   -0.8862345  
C   -0.4917236   -0.0001107   -2.1979131  
C    0.9187400    0.0021264   -2.0478682  
N    1.1833105    0.0040852   -0.7007912  
C    1.7951670    0.0037350   -3.1372086  
C    1.2375809    0.0027660   -4.4010424  
O    2.0474185    0.0039042   -5.4997578  
C   -0.1673607    0.0009121   -4.5711964  
O   -0.5673558    0.0005614   -5.8915551  
C   -1.0325795   -0.0004022   -3.4969891  
H   -2.0953065   -0.0025024   -0.6200561  
H    2.0989964   -0.0046601   -0.2891826  
H    2.8710893    0.0055868   -3.0295509  
H    1.4634850    0.0032391   -6.2693593  
H   -1.5290741   -0.0007473   -5.9180046  
C   -2.4861732   -0.0020676   -3.7159923  
C   -3.4691561   -0.0035200   -2.7857657  
C   -4.7077449   -0.0047757   -3.5489147  
C   -4.2744162   -0.0037263   -4.9627069  
N   -2.9732131   -0.0022185   -5.0669059  
C   -5.2170376   -0.0045453   -6.0473962  
C   -6.5327451   -0.0067204   -5.7339563  
O   -7.5212075   -0.0076998   -6.6444411  
C   -7.0015536   -0.0081977   -4.3167841  
O   -8.2141985   -0.0100364   -4.1053340  
C   -6.0150658   -0.0072747   -3.2219032  
H   -3.3664317   -0.0038053   -1.7140733  
H   -8.3418915   -0.0092707   -6.1194385  
H   -6.3952615   -0.0085148   -2.2091449  
C   -3.6684842   -0.7277246   -7.9228579  
C   -3.4907869   -0.5100524   -9.2514351  
C   -4.5177386    0.4157858   -9.6674018  
C   -5.3139872    0.7218729   -8.4636202  
N   -4.7478919   -0.0031764   -7.4405226  
C   -6.3803878    1.5608816   -8.4399669  
C   -6.7700525    2.2052789   -9.6831272  
O   -7.7162868    2.9774385   -9.7650535  
C   -5.9411453    1.8954841  -10.9702726  
O   -6.2599647    2.4318819  -12.0228381  
C   -4.8121192    0.9739427  -10.8707051  
H   -2.7275333   -0.9482112   -9.8695576  
H   -6.9508474    1.7718548   -7.5461124  
H   -4.2431951    0.7648984  -11.7664438  
H   -3.1018404   -1.3566536   -7.2555851  
C    3.3003543   -0.0005276    2.9438989  
C    2.5232812   -0.0003497    4.0790748  
C    1.1623199    0.0001319    3.6520102  
C    1.1711883   -0.0000583    2.2336141  
N    2.4852299    0.0014920    1.8362361  
C    0.0000000    0.0000000    1.4700000  
C   -1.2020384   -0.0000520    2.1506477  
O   -2.3759250   -0.0003494    1.4542253  
C   -1.2314658    0.0005113    3.5655508  
O   -2.5054393    0.0008037    4.0950179  
C   -0.0764518    0.0007272    4.3195194  
H    2.8919952    0.0005619    5.0905303  
H    2.8036267   -0.0088181    0.8841339  
H   -3.0835639   -0.0000348    2.1118817  
H   -2.4360050    0.0011527    5.0545920  
H   -0.1304098    0.0013421    5.4019087  
H    4.3715549   -0.0004895    2.8367138  
