60

C    7.9818792    0.7206170   -4.3603352  
C    8.6213209    0.0029129   -3.3762192  
C    9.6735843   -0.7238849   -4.0079671  
C    9.6270994   -0.4069519   -5.3897483  
N    8.5872139    0.4710360   -5.5697270  
C   10.5217796   -0.9451589   -6.3196245  
C   11.4810484   -1.8189944   -5.8459244  
O   12.3799395   -2.3733079   -6.7106470  
C   11.5432838   -2.1478369   -4.4708583  
O   12.5543762   -3.0320941   -4.1560170  
C   10.6608139   -1.6174702   -3.5529889  
H    8.3179642    0.8798881   -6.4462690  
H   10.4915403   -0.7077344   -7.3740995  
H   12.9516316   -2.9444207   -6.1812485  
H   12.5266851   -3.2012134   -3.2093198  
H   10.7329062   -1.8881245   -2.5060755  
H    7.1409945    1.3896950   -4.2954833  
C    4.7390840    0.0009613   -1.2727298  
C    5.7159780    0.0017137   -2.2159966  
C    6.9782049    0.0017419   -1.5148417  
C    6.6542736    0.0009092   -0.0754467  
N    5.2807306    0.0008646    0.0037337  
C    7.5764457    0.0002870    0.9201955  
C    8.9818048    0.0006743    0.5493866  
O    9.8878556    0.0002336    1.3724144  
C    9.3478544    0.0018078   -0.9691032  
O   10.5277193    0.0024491   -1.2934190  
C    8.2653746    0.0021236   -1.9499649  
H    5.5691178    0.0023766   -3.2813817  
H    7.3176385   -0.0004497    1.9699235  
H    4.7530492   -0.0011857    0.8573115  
C    3.2798077    0.0005856   -1.4499661  
C    2.5571132    0.0005565   -2.5996564  
C    1.1637425    0.0001547   -2.2210366  
C    1.1336959   -0.0000200   -0.7459475  
N    2.4483509   -0.0001429   -0.3402730  
C    0.0000000    0.0000000    0.0000000  
C   -1.2757370   -0.0000187   -0.6964411  
O   -2.3524597   -0.0000640   -0.1142306  
C   -1.2676502   -0.0000874   -2.2584078  
O   -2.3355774   -0.0004102   -2.8557287  
C    0.0181551    0.0001758   -2.9516297  
H    2.9547342    0.0006074   -3.5989118  
H    0.0150776    0.0003317   -4.0331632  
H    2.7563626    0.0012823    0.6148051  
C    2.5128556    2.1077716    2.9199648  
C    1.9592212    1.6432552    4.0696553  
C    0.8915788    0.7479214    3.6910360  
C    0.8684491    0.7287414    2.2159470  
N    1.8754542    1.5738793    1.8102719  
C    0.0000000    0.0000000    1.4700000  
C   -0.9772830   -0.8200135    2.1664417  
O   -1.8021297   -1.5120829    1.5842315  
C   -0.9711318   -0.8147624    3.7284083  
O   -1.7894187   -1.5009653    4.3257297  
C    0.0140216    0.0115358    4.4216297  
H    2.2638494    1.8988021    5.0689105  
H    0.0117648    0.0094386    5.5031631  
H    3.3327358    2.7953732    2.7900019  
H    2.1123206    1.7707734    0.8551938  
