60

C   10.1115885    2.1319037   -6.4113606  
C    9.0639270    1.6675698   -5.6502640  
C    9.6158435    0.7803908   -4.6792329  
C   11.0167361    0.7428785   -4.8983602  
N   11.2838059    1.5731801   -5.9584976  
C   11.8831783   -0.0324253   -4.1218478  
C   11.3252993   -0.7833090   -3.1054216  
O   12.1256400   -1.5580191   -2.3165651  
C    9.9297762   -0.7593886   -2.8714134  
O    9.5281266   -1.5613399   -1.8231318  
C    9.0743779    0.0050263   -3.6372398  
H    8.0290554    1.9345053   -5.7797963  
H   12.1955446    1.7563938   -6.3368399  
H   12.9517604   -0.0654738   -4.2838451  
H   11.5432375   -1.9924745   -1.6799168  
H    8.5731657   -1.4877014   -1.7324112  
H   10.1152415    2.8163252   -7.2423307  
C    6.6317370    0.0027575   -4.3241615  
C    5.4016575    0.0020952   -3.7488541  
C    5.6054515    0.0015083   -2.3194126  
C    7.0655600    0.0019150   -2.1075798  
N    7.6303538    0.0022713   -3.3621306  
C    7.6659167    0.0019591   -0.8905027  
C    6.8173812    0.0013545    0.2895490  
O    7.2622819    0.0012817    1.4298836  
C    5.2683493    0.0006644    0.0887880  
O    4.5438183   -0.0001546    1.0748485  
C    4.7390840    0.0009613   -1.2727298  
H    4.4591018    0.0018434   -4.2667371  
H    8.7388159    0.0023907   -0.7570952  
H    6.8927419    0.0033433   -5.3699943  
C    3.2798077    0.0005856   -1.4499661  
C    2.5571132    0.0005565   -2.5996564  
C    1.1637425    0.0001547   -2.2210366  
C    1.1336959   -0.0000200   -0.7459475  
N    2.4483509   -0.0001429   -0.3402730  
C    0.0000000    0.0000000    0.0000000  
C   -1.2757370   -0.0000187   -0.6964411  
O   -2.3524597   -0.0000640   -0.1142306  
C   -1.2676502   -0.0000874   -2.2584078  
O   -2.3355774   -0.0004102   -2.8557287  
C    0.0181551    0.0001758   -2.9516297  
H    2.9547342    0.0006074   -3.5989118  
H    0.0150776    0.0003317   -4.0331632  
H    2.7563626    0.0012823    0.6148051  
C    2.3971438    2.0127888    3.1728260  
C    1.9431056    1.6308205    1.9564670  
C    0.8496017    0.7127664    2.2356185  
C    0.7794028    0.6545384    3.7115134  
N    1.6840587    1.4146091    4.2663826  
C   -0.1885723   -0.1578550    4.3957118  
C   -1.0476298   -0.8789867    3.6398520  
O   -2.0015663   -1.6796266    4.1448486  
C   -1.0022026   -0.8410666    2.1483229  
O   -1.8147390   -1.5232959    1.5241687  
C    0.0000000    0.0000000    1.4700000  
H    2.3054237    1.9346118    0.9892483  
H   -0.2170646   -0.1815267    5.4753125  
H   -2.4487139   -2.0549881    3.3649027  
H    3.2048689    2.6911772    3.3971983  
