62

C    3.6917067   -5.6281526   -7.5240770  
C    2.9738681   -4.6436872   -6.8853259  
C    3.1796351   -3.4368750   -7.6173537  
C    4.0389303   -3.7492379   -8.7017739  
N    4.3322932   -5.0874871   -8.6143444  
C    4.4556328   -2.7956350   -9.6354713  
C    3.9962742   -1.5032242   -9.4716384  
O    4.3718917   -0.5327281  -10.3548505  
C    3.1385865   -1.1719206   -8.3958016  
O    2.7682529    0.1567931   -8.3690344  
C    2.7273107   -2.1121034   -7.4741534  
H    2.3764061   -4.7785225   -5.9999723  
H    4.9132366   -5.5973375   -9.2550758  
H    5.1105564   -3.0272813  -10.4640950  
H    3.9461057    0.2832341  -10.0612912  
H    2.1900504    0.2962039   -7.6128268  
H    3.7985953   -6.6729092   -7.2873974  
C    1.8836766   -2.1362882   -5.0810766  
C    1.8358578   -1.7275857   -6.3703609  
C    0.7030360   -0.8169587   -6.4333932  
C    0.1677630   -0.7920097   -5.0551896  
N    0.8558147   -1.5634005   -4.2579876  
C   -0.9736297    0.0040464   -4.6965763  
C   -1.5536730    0.7419468   -5.6704281  
O   -2.6247575    1.5303572   -5.4774855  
C   -1.0366301    0.7382178   -7.0707185  
O   -1.6142408    1.4340381   -7.9058356  
C    0.1355197   -0.0866893   -7.4135266  
H   -2.8038828    1.9233567   -6.3507658  
H    0.4792071   -0.0617348   -8.4389469  
H    2.5838918   -2.8188169   -4.6262944  
C    1.1188642    0.0008222   -0.8003808  
C    0.0000000    0.0000000    0.0000000  
C   -1.1323862    0.0008899   -0.8673528  
C   -0.6382663    0.0019679   -2.1969280  
N    0.7324016    0.0038481   -2.1202242  
C   -1.4770914    0.0027318   -3.3154808  
C   -2.8395473    0.0020945   -3.0876857  
O   -3.7039201    0.0024425   -4.1440349  
C   -3.3517868    0.0013931   -1.7684331  
O   -4.7300497    0.0012366   -1.7073121  
C   -2.5248543    0.0009123   -0.6644817  
H    1.3576314   -0.0056167   -2.9057046  
H   -4.5940032    0.0021826   -3.7685128  
H   -4.9934602    0.0007259   -0.7819913  
H   -2.9462577    0.0005603    0.3339659  
H    2.1619895    0.0009355   -0.5342068  
C    0.8400945    0.7047457    2.2710304  
C    0.0000000    0.0000000    1.4700000  
C   -0.8844236   -0.7423113    2.3369512  
C   -0.4878984   -0.4098547    3.7186280  
N    0.5629682    0.4714286    3.6095011  
C   -1.0836927   -0.9095027    4.8308716  
C   -2.1891196   -1.8367527    4.6554461  
O   -2.7906899   -2.3413415    5.5944904  
C   -2.6257283   -2.2031529    3.2011665  
O   -3.5549479   -2.9829990    3.0410059  
C   -1.9068976   -1.5999348    2.0816745  
H   -0.7774656   -0.6525820    5.8354244  
H   -2.2155208   -1.8586617    1.0779135  
H    1.6384792    1.3747609    1.9961646  
H    1.0518368    0.8833920    4.3830260  
