64

C    5.0967800   -1.0502097   -6.7331350  
C    6.1107072   -1.9351278   -6.4479336  
C    6.8127381   -2.1709102   -7.6670146  
C    6.1765089   -1.3959235   -8.6702762  
N    5.1374997   -0.7292187   -8.0697935  
C    6.6047849   -1.3830262  -10.0011421  
C    7.6953810   -2.1665153  -10.3250590  
O    8.1555125   -2.1908345  -11.6098566  
C    8.3433064   -2.9469533   -9.3381820  
O    9.4136436   -3.6731699   -9.8181120  
C    7.9211790   -2.9603719   -8.0251119  
H    6.3180724   -2.3594538   -5.4804936  
H    4.5118241   -0.0938199   -8.5310733  
H    6.1241072   -0.7946594  -10.7705415  
H    8.9115631   -2.7921578  -11.6177762  
H    9.7944813   -4.1717050   -9.0887085  
H    8.4373388   -3.5683502   -7.2913415  
C    3.9370048   -0.7184850   -4.5079678  
C    4.0728231   -0.4678501   -5.8537774  
C    3.0408019    0.4490220   -6.2127731  
C    2.3004594    0.7244849   -5.0346653  
N    2.8699641   -0.0020530   -4.0185824  
C    1.2043122    1.5921808   -5.0158398  
C    0.8492525    2.1929739   -6.2079631  
O   -0.2129520    3.0492937   -6.2460638  
C    1.5753378    1.9304957   -7.3940167  
O    1.0979198    2.6049620   -8.4987839  
C    2.6566531    1.0743953   -7.4133823  
H    0.6358232    1.8062018   -4.1212913  
H   -0.2870896    3.3518555   -7.1605175  
H    1.6433828    2.3722826   -9.2563680  
H    3.1933392    0.8927014   -8.3371977  
H    4.5159686   -1.3527191   -3.8587321  
C    3.2573670   -0.0002921   -1.5109382  
C    2.5379468   -0.0001711   -0.3591962  
C    1.1435043    0.0000330   -0.7338498  
C    1.1092608   -0.0000085   -2.2088474  
N    2.4227562    0.0001906   -2.6182610  
C   -0.0265533   -0.0002525   -2.9515663  
C   -1.3003033   -0.0002641   -2.2514979  
O   -2.3786785   -0.0004132   -2.8306425  
C   -1.2877724    0.0000310   -0.6895608  
O   -2.3539956    0.0003306   -0.0892035  
C    0.0000000    0.0000000    0.0000000  
H    2.9384091   -0.0000370    0.6389240  
H   -0.0296290   -0.0004088   -4.0327231  
H    4.3270394   -0.0004767   -1.6439445  
C    2.5311839    2.1237619    3.0120429  
C    1.9795631    1.6616747    1.8395852  
C    0.9223175    0.7739173    2.1983588  
C    0.8753926    0.7337535    3.6154372  
N    1.8668922    1.5631002    4.0777464  
C   -0.0496243   -0.0427881    4.3197917  
C   -0.9437528   -0.7922060    3.5801400  
O   -1.8685244   -1.5680278    4.2172520  
C   -0.9124520   -0.7656372    2.1655264  
O   -1.8671164   -1.5663939    1.5732860  
C    0.0000000    0.0000000    1.4700000  
H    2.3005065    1.9304404    0.8477417  
H    2.0679347    1.7444845    5.0445261  
H   -0.0904770   -0.0778569    5.3997470  
H   -2.3849669   -2.0011402    3.5251786  
H   -1.7775064   -1.4909735    0.6183591  
H    3.3468514    2.8078103    3.1724291  
