62

C   -4.2078675    0.7049043   -5.9117154  
C   -5.5602663    0.4537854   -5.8911159  
C   -5.8311586   -0.4555782   -6.9561394  
C   -4.5950050   -0.7261742   -7.5969427  
N   -3.6304806   -0.0040757   -6.9390032  
C   -4.4840378   -1.5860399   -8.6938049  
C   -5.6420098   -2.1838633   -9.1519388  
O   -5.5906198   -3.0325749  -10.2196752  
C   -6.8848807   -1.9261472   -8.5261025  
O   -7.9455168   -2.5968005   -9.0993536  
C   -6.9951388   -1.0777707   -7.4441468  
H   -6.2650392    0.8751527   -5.1948842  
H   -3.5448819   -1.7963206   -9.1867249  
H   -6.4955514   -3.3342759  -10.3724547  
H   -8.7462638   -2.3677463   -8.6177488  
H   -7.9607808   -0.8995796   -6.9856038  
H   -3.6096676    1.3347640   -5.2757970  
C   -0.1496416   -0.0015616   -4.3176961  
C    0.8738324   -0.0018843   -5.2031795  
C    0.2377936   -0.0027127   -6.5115956  
C   -1.2121180   -0.0029009   -6.2211815  
N   -1.4453515   -0.0021478   -4.9368177  
C   -2.1975666   -0.0036285   -7.2671149  
C   -1.7546874   -0.0037558   -8.5450792  
O   -2.5622331   -0.0044163   -9.6192815  
C   -0.2978805   -0.0032016   -8.8704623  
O    0.0332545   -0.0034787  -10.0560298  
C    0.6933420   -0.0025029   -7.7798645  
H    1.9299714   -0.0015053   -4.9942642  
H   -1.9581288   -0.0043079  -10.3836172  
H    1.7389224   -0.0020005   -8.0573388  
C    3.3003544    0.0005274   -1.4738988  
C    2.5232813    0.0003494   -2.6090747  
C    1.1623199   -0.0001321   -2.1820103  
C    1.1711883    0.0000582   -0.7636141  
N    2.4852299   -0.0014920   -0.3662360  
C    0.0000000    0.0000000    0.0000000  
C   -1.2020383    0.0000519   -0.6806477  
O   -2.3759250    0.0003494    0.0157744  
C   -1.2314656   -0.0005115   -2.0955510  
O   -2.5054391   -0.0008040   -2.6250180  
C   -0.0764517   -0.0007275   -2.8495195  
H    2.8919953   -0.0005622   -3.6205304  
H    2.8036267    0.0088182    0.5858661  
H   -3.0835639    0.0000346   -0.6418817  
H   -2.4360050   -0.0011531   -3.5845921  
H    4.3715546    0.0004893   -1.3667137  
C    0.8400945    0.7047457    2.2710304  
C    0.0000000    0.0000000    1.4700000  
C   -0.8844236   -0.7423113    2.3369512  
C   -0.4878984   -0.4098547    3.7186280  
N    0.5629682    0.4714286    3.6095011  
C   -1.0836927   -0.9095027    4.8308716  
C   -2.1891196   -1.8367527    4.6554461  
O   -2.7906899   -2.3413415    5.5944904  
C   -2.6257283   -2.2031529    3.2011665  
O   -3.5549479   -2.9829990    3.0410059  
C   -1.9068976   -1.5999348    2.0816745  
H   -0.7774656   -0.6525820    5.8354244  
H   -2.2155208   -1.8586617    1.0779135  
H    1.6384792    1.3747609    1.9961646  
H    1.0518368    0.8833920    4.3830260  
