62

C    7.5426325   -5.3101742   -1.1774316  
C    8.8148312   -4.7867926   -1.1843294  
C    8.6907548   -3.3945727   -1.4688086  
C    7.3074377   -3.1237478   -1.6269620  
N    6.6387861   -4.3089085   -1.4455301  
C    6.8148668   -1.8475901   -1.9160717  
C    7.7354959   -0.8261634   -2.0476287  
O    7.3089163    0.4394248   -2.3292844  
C    9.1198474   -1.0766105   -1.8937973  
O    9.9086882    0.0436677   -2.0551991  
C    9.6065123   -2.3353740   -1.6088462  
H    9.7209161   -5.3405699   -1.0073114  
H    5.6424813   -4.4254859   -1.4875780  
H    8.1011725    0.9900705   -2.3781061  
H   10.8283734   -0.2121038   -1.9353472  
H   10.6722865   -2.4967716   -1.4967967  
H    7.2085624   -6.3187575   -1.0038985  
C    4.3630986   -2.0949034   -1.3110654  
C    3.1522517   -1.6320804   -1.7156885  
C    3.3924175   -0.7354492   -2.8216760  
C    4.8529069   -0.7137076   -3.0297345  
N    5.3832068   -1.5581153   -2.0817645  
C    5.4827049    0.0162382   -3.9848461  
C    4.6677390    0.8352839   -4.8666226  
O    5.1406425    1.5283994   -5.7578312  
C    3.1189444    0.8277105   -4.6641777  
O    2.4225432    1.5135518   -5.4003220  
C    2.5562217   -0.0001543   -3.6003001  
H    2.1995752   -1.8892845   -1.2880585  
H    6.5552965    0.0179179   -4.1206910  
H    4.5960548   -2.7827973   -0.5145584  
C    0.0000000    0.0000000    0.0000000  
C    1.0541688   -0.0001719   -0.8560391  
C    0.5103141   -0.0000449   -2.1935955  
C   -0.9576367    0.0002461   -2.0455733  
N   -1.2018459   -0.0001392   -0.6915970  
C   -1.8348306    0.0008319   -3.0810611  
C   -1.2972842    0.0009739   -4.4314605  
O   -2.0050664    0.0014267   -5.4301321  
C    0.2542628    0.0004190   -4.6117571  
O    0.7184677    0.0002263   -5.7439119  
C    1.0974556    0.0000880   -3.4189127  
H    2.0940752   -0.0005479   -0.5817978  
H   -2.9081050    0.0011669   -2.9507065  
H   -2.1128195    0.0014911   -0.2706793  
C    3.3003543   -0.0005276    2.9438989  
C    2.5232812   -0.0003497    4.0790748  
C    1.1623199    0.0001319    3.6520102  
C    1.1711883   -0.0000583    2.2336141  
N    2.4852299    0.0014920    1.8362361  
C    0.0000000    0.0000000    1.4700000  
C   -1.2020384   -0.0000520    2.1506477  
O   -2.3759250   -0.0003494    1.4542253  
C   -1.2314658    0.0005113    3.5655508  
O   -2.5054393    0.0008037    4.0950179  
C   -0.0764518    0.0007272    4.3195194  
H    2.8919952    0.0005619    5.0905303  
H    2.8036267   -0.0088181    0.8841339  
H   -3.0835639   -0.0000348    2.1118817  
H   -2.4360050    0.0011527    5.0545920  
H   -0.1304098    0.0013421    5.4019087  
H    4.3715549   -0.0004895    2.8367138  
