60

C    5.9945976    0.0077636   -4.5566444  
C    6.2933514    0.0059030   -3.2138081  
C    7.7154865    0.0057792   -3.1036644  
C    8.2351586    0.0079116   -4.4234616  
N    7.1634172    0.0071240   -5.2813577  
C    9.6064125    0.0087031   -4.6963188  
C   10.4687696    0.0076236   -3.6171907  
O   11.8175196    0.0086785   -3.8266801  
C    9.9694792    0.0051195   -2.2929857  
O   10.9548705    0.0038904   -1.3274053  
C    8.6168280    0.0040642   -2.0230608  
H    5.5746794    0.0036688   -2.4122475  
H    7.2222472    0.0187898   -6.2835471  
H   10.0088526    0.0101827   -5.6999334  
H   12.2295522    0.0073462   -2.9528997  
H   10.5332877    0.0022400   -0.4626113  
H    8.2640632    0.0019593   -0.9983512  
C    1.7334697    0.0049246   -3.2500361  
C    3.0863259    0.0047399   -3.2131613  
C    3.4995616    0.0065860   -4.6080570  
C    2.2333973    0.0076345   -5.3718701  
N    1.1947442    0.0067485   -4.5811809  
C    2.2116357    0.0095937   -6.8087452  
C    3.4007181    0.0108548   -7.4532716  
O    3.5293452    0.0127184   -8.7909908  
C    4.6955642    0.0102163   -6.7106177  
O    5.7398288    0.0113189   -7.3623315  
C    4.6914549    0.0081553   -5.2368793  
H    3.7249597    0.0035938   -2.3464312  
H    1.2717197    0.0101182   -7.3411618  
H    4.4909169    0.0132674   -8.9476192  
C    1.1319247    0.0015655   -0.8009267  
C    0.7969916    0.0034943   -2.1169401  
C   -0.6453337    0.0035710   -2.1842668  
C   -1.1266832    0.0015433   -0.7896026  
N    0.0000000    0.0000000    0.0000000  
C   -2.4346130    0.0013964   -0.4276294  
C   -3.4350109    0.0031408   -1.4820183  
O   -4.6384610    0.0030973   -1.2583915  
C   -2.9478956    0.0050505   -2.9661075  
O   -3.7809378    0.0062218   -3.8623775  
C   -1.5113821    0.0053090   -3.2312122  
H   -2.7664565    0.0000232    0.6013446  
H   -1.1823527    0.0068407   -4.2614846  
H    2.1104317    0.0009391   -0.3488056  
C    2.5528530    2.1414826    2.8079335  
C    2.0663498    1.7338582    4.0032312  
C    0.9804344    0.8229586    3.6752840  
C    0.9495562    0.7966882    2.1971295  
N    1.8690446    1.5676019    1.6831036  
C    0.0000000    0.0000000    1.4700000  
C   -0.8785127   -0.7372425    2.1869543  
O   -1.8187535   -1.5261249    1.6395491  
C   -0.8723269   -0.7321790    3.6796354  
O   -1.7010379   -1.4274584    4.2670412  
C    0.1115397    0.0933559    4.4024240  
H    2.4028853    2.0163452    4.9860947  
H   -2.2861435   -1.9184361    2.3990168  
H    0.0832434    0.0693689    5.4835595  
H    3.3664920    2.8238276    2.6198634  
