62

C   -0.0601834   -0.3640971   -9.6959823  
C   -0.5499491    0.8512330   -9.2769704  
C   -0.2133130    1.8049621  -10.2827924  
C    0.4870705    1.1074106  -11.3000487  
N    0.5641690   -0.2069312  -10.9112308  
C    0.9723197    1.7354109  -12.4511076  
C    0.7461548    3.0922464  -12.5776992  
O    1.1981200    3.7551658  -13.6819091  
C    0.0497102    3.8057120  -11.5733363  
O   -0.0947920    5.1504593  -11.8455835  
C   -0.4290463    3.1868747  -10.4373977  
H    0.9967951   -0.9436978  -11.4384793  
H    1.5069953    1.2094371  -13.2300025  
H    0.9382159    4.6789903  -13.5711775  
H   -0.5753564    5.5580370  -11.1185745  
H   -0.9587730    3.7595396   -9.6851187  
H   -0.1055732   -1.3303357   -9.2234548  
C    0.0032431   -0.7070486   -5.1230097  
C    0.1389296   -0.4524109   -6.4680805  
C   -0.8935728    0.4649643   -6.8243974  
C   -1.6340599    0.7365948   -5.6454899  
N   -1.0641734    0.0073898   -4.6315339  
C   -2.7306621    1.6036560   -5.6241304  
C   -3.0860377    2.2077438   -6.8144937  
O   -4.1486912    3.0636135   -6.8500938  
C   -2.3598153    1.9491140   -8.0013078  
O   -2.8375876    2.6265547   -9.1041002  
C   -1.2780504    1.0936416   -8.0231743  
H    0.8890558   -0.8766288   -7.1133275  
H   -3.2992632    1.8147639   -4.7289611  
H   -4.2229887    3.3688076   -7.7636589  
H   -2.2920027    2.3963769   -9.8623602  
H    0.5825401   -1.3428730   -4.4756292  
C    1.1319248    0.0015675   -0.8009270  
C    0.7969916    0.0034959   -2.1169404  
C   -0.6453336    0.0035703   -2.1842672  
C   -1.1266831    0.0015415   -0.7896027  
N    0.0000000    0.0000000    0.0000000  
C   -2.4346129    0.0013924   -0.4276297  
C   -3.4350110    0.0031352   -1.4820184  
O   -4.6384610    0.0030897   -1.2583919  
C   -2.9478958    0.0050460   -2.9661075  
O   -3.7809377    0.0062160   -3.8623775  
C   -1.5113821    0.0053068   -3.2312125  
H    1.4821240    0.0045436   -2.9459192  
H   -2.7664565    0.0000185    0.6013447  
H    2.1104318    0.0009428   -0.3488058  
C    2.5128556    2.1077716    2.9199648  
C    1.9592212    1.6432552    4.0696553  
C    0.8915788    0.7479214    3.6910360  
C    0.8684491    0.7287414    2.2159470  
N    1.8754542    1.5738793    1.8102719  
C    0.0000000    0.0000000    1.4700000  
C   -0.9772830   -0.8200135    2.1664417  
O   -1.8021297   -1.5120829    1.5842315  
C   -0.9711318   -0.8147624    3.7284083  
O   -1.7894187   -1.5009653    4.3257297  
C    0.0140216    0.0115358    4.4216297  
H    2.2638494    1.8988021    5.0689105  
H    0.0117648    0.0094386    5.5031631  
H    3.3327358    2.7953732    2.7900019  
H    2.1123206    1.7707734    0.8551938  
