62

C    7.6427728   -0.0244934    3.6246284  
C    7.2318103   -0.0368377    4.9374209  
C    5.8054895   -0.0265004    4.9273182  
C    5.3990182   -0.0080504    3.5685072  
N    6.5392972   -0.0053594    2.8040641  
C    4.0557032    0.0057024    3.1810743  
C    3.1054048    0.0004328    4.1836126  
O    1.7791646    0.0129541    3.8612111  
C    3.4911976   -0.0175341    5.5451035  
O    2.4278879   -0.0202457    6.4241420  
C    4.8162264   -0.0308354    5.9280501  
H    7.8802907   -0.0503855    5.7966553  
H    3.7393714    0.0199336    2.1471819  
H    1.2948998    0.0068153    4.6971035  
H    2.7750074   -0.0327418    7.3213352  
H    5.0812860   -0.0442983    6.9787836  
H    8.6357261   -0.0263780    3.2086968  
C    6.5771497   -0.0035572    1.3345526  
C    7.6645486   -0.0027621    0.5288593  
C    7.1290980   -0.0009888   -0.8238378  
C    5.6614004   -0.0010505   -0.6437068  
N    5.3318753   -0.0024720    0.6193847  
C    4.7577216    0.0005129   -1.7610467  
C    5.2958115    0.0024560   -3.0019297  
O    4.5716622    0.0040581   -4.1340279  
C    6.7730249    0.0029428   -3.2164081  
O    7.1927143    0.0046217   -4.3735937  
C    7.6790892    0.0012690   -2.0540962  
H    8.7019038   -0.0032208    0.8169064  
H    5.2317431    0.0052552   -4.8505783  
H    8.7426329    0.0018008   -2.2518462  
C    3.3041270    0.0001177   -1.5420435  
C    2.5845370   -0.0004780   -0.3695856  
C    1.2040004   -0.0000007   -0.7283590  
C    1.1422370    0.0006038   -2.1454373  
N    2.4348634    0.0026110   -2.6077469  
C   -0.0655187    0.0008799   -2.8497918  
C   -1.2321769    0.0002326   -2.1101398  
O   -2.4392822    0.0001149   -2.7472517  
C   -1.1911211   -0.0000007   -0.6955263  
O   -2.4371526   -0.0002319   -0.1032858  
C    0.0000000    0.0000000    0.0000000  
H    3.0031534   -0.0000661    0.6222578  
H    2.7054623   -0.0071098   -3.5745266  
H   -0.1193555    0.0014846   -3.9297472  
H   -3.1132992   -0.0000646   -2.0551783  
H   -2.3200279   -0.0004070    0.8516411  
C    0.0000000    0.0000000    1.4700000  
C    1.0662921    0.0000102    2.3034270  
C    0.4961870   -0.0000064    3.6418889  
C   -0.9663858    0.0000850    3.4240247  
N   -1.2632773    0.0000084    2.1528658  
C   -1.8985362    0.0000517    4.5177257  
C   -1.3925775   -0.0004564    5.7720543  
O   -2.1456383   -0.0005410    6.8851312  
C    0.0786232   -0.0009323    6.0245000  
O    0.4683759   -0.0012588    7.1921102  
C    1.0143166   -0.0008442    4.8859032  
H    2.1107198   -0.0000632    2.0421868  
H   -2.9622183    0.0003270    4.3293377  
H   -1.5042274   -0.0009692    7.6184419  
H    2.0724152   -0.0013148    5.1109744  
