62

C   -1.2650268    0.6885100   -8.9959857  
C   -0.3090097   -0.1288831   -9.5530908  
C   -0.4598901   -0.0412058  -10.9687700  
C   -1.5327497    0.8524175  -11.2184407  
N   -2.0002586    1.2756071   -9.9990301  
C   -1.9616885    1.1773245  -12.5088819  
C   -1.2952475    0.5896490  -13.5665543  
O   -1.6728408    0.8722008  -14.8474129  
C   -0.2226666   -0.3047910  -13.3377221  
O    0.3384075   -0.8071704  -14.4936439  
C    0.2008529   -0.6259866  -12.0649340  
H    0.4081051   -0.7169463   -9.0063545  
H   -2.7533979    1.9247181   -9.8596857  
H   -2.7788075    1.8575588  -12.7058569  
H   -1.0865491    0.3643213  -15.4232481  
H    1.0545355   -1.4018828  -14.2505772  
H    1.0252283   -1.3145404  -11.9207898  
C    0.5437027   -0.7271855   -5.2249461  
C    0.2434227   -0.5105994   -6.5314672  
C   -0.8629397    0.4167214   -6.5610285  
C   -1.1848923    0.7248622   -5.1545486  
N   -0.2963293   -0.0005341   -4.3948471  
C   -2.1737969    1.5656803   -4.7585730  
C   -2.9746388    2.2099974   -5.7862128  
O   -3.8882419    2.9837016   -5.5312376  
C   -2.6514148    1.8980444   -7.2822128  
O   -3.3190914    2.4343555   -8.1561913  
C   -1.5606854    0.9746610   -7.5847433  
H    0.7401387   -0.9504094   -7.3779032  
H   -2.3934219    1.7781436   -3.7214932  
H    1.3078531   -1.3566733   -4.7986720  
C    3.1301146   -0.0010313   -1.7028256  
C    2.5367765   -0.0002766   -0.4864669  
C    1.1089901    0.0001027   -0.7656184  
C    1.0177865   -0.0004150   -2.2415133  
N    2.1993571   -0.0011612   -2.7963824  
C   -0.2459219   -0.0002879   -2.9257116  
C   -1.3675326   -0.0000606   -2.1698520  
O   -2.6129318    0.0000865   -2.6748483  
C   -1.3083588    0.0000910   -0.6783229  
O   -2.3693264    0.0004206   -0.0541685  
C    0.0000000    0.0000000    0.0000000  
H    3.0096016   -0.0001007    0.4807518  
H   -3.1967444    0.0002093   -1.8949026  
H    4.1849275   -0.0015114   -1.9271979  
C    0.0000000    0.0000000    1.4700000  
C    1.0521667    0.0011902    2.3562342  
C    0.4917218    0.0011957    3.6679131  
C   -0.9187428   -0.0003148    3.5178682  
N   -1.1833171    0.0009411    2.1707914  
C   -1.7951701   -0.0010350    4.6072090  
C   -1.2375837   -0.0005224    5.8710424  
O   -2.0474215   -0.0015360    6.9697579  
C    0.1673580    0.0013566    6.0411963  
O    0.5673524    0.0020687    7.3615553  
C    1.0325770    0.0023412    4.9669890  
H    2.0953057    0.0030649    2.0900562  
H   -2.0989778   -0.0102372    1.7591824  
H   -2.8710934   -0.0020419    4.4995513  
H   -1.4634884   -0.0006497    7.7393593  
H    1.5290710    0.0033153    7.3880045  
H    2.1042148    0.0039609    5.1284455  
