62

C    9.8578367    0.7064878   -0.7694124  
C   11.2101010    0.4550905   -0.7948459  
C   11.4846440   -0.4541669    0.2693333  
C   10.2507517   -0.7244142    0.9146273  
N    9.2840101   -0.0022190    0.2600569  
C   10.1435633   -1.5840913    2.0120130  
C   11.3030560   -2.1820806    2.4660626  
O   11.2553420   -3.0306199    3.5341062  
C   12.5437174   -1.9247125    1.8357128  
O   13.6062753   -2.5954949    2.4052415  
C   12.6502477   -1.0765224    0.7532385  
H   11.9124467    0.8762085   -1.4936765  
H    9.2061458   -1.7941053    2.5083448  
H   12.1607557   -3.3324821    3.6836703  
H   14.4053293   -2.3666768    1.9207207  
H   13.6142674   -0.8985976    0.2911923  
H    9.2574762    1.3363730   -1.4032676  
C    5.6685262    0.0007277   -2.2869310  
C    4.7390840    0.0009613   -1.2727298  
C    5.4635794   -0.0000956   -0.0440289  
C    6.8430309   -0.0006642   -0.3742391  
N    6.9321467   -0.0020935   -1.7441565  
C    7.8522877   -0.0014302    0.5933291  
C    7.4618845   -0.0013188    1.9183810  
O    8.4063109   -0.0016935    2.9038108  
C    6.0904957   -0.0011304    2.2678231  
O    5.8636451   -0.0014626    3.6286619  
C    5.0942998   -0.0006479    1.3138209  
H    7.7872775    0.0077866   -2.2701178  
H    7.9262124   -0.0018351    3.7421244  
H    4.9133155   -0.0012788    3.7785862  
H    4.0523279   -0.0006957    1.6117685  
H    5.5300625    0.0009044   -3.3545388  
C    3.2798077    0.0005856   -1.4499661  
C    2.5571132    0.0005565   -2.5996564  
C    1.1637425    0.0001547   -2.2210366  
C    1.1336959   -0.0000200   -0.7459475  
N    2.4483509   -0.0001429   -0.3402730  
C    0.0000000    0.0000000    0.0000000  
C   -1.2757370   -0.0000187   -0.6964411  
O   -2.3524597   -0.0000640   -0.1142306  
C   -1.2676502   -0.0000874   -2.2584078  
O   -2.3355774   -0.0004102   -2.8557287  
C    0.0181551    0.0001758   -2.9516297  
H    2.9547342    0.0006074   -3.5989118  
H    0.0150776    0.0003317   -4.0331632  
H    2.7563626    0.0012823    0.6148051  
C    2.4951002    2.0940188    2.9809380  
C    1.9440701    1.6314916    1.8291961  
C    0.8759964    0.7350050    2.2038498  
C    0.8497377    0.7130254    3.6788474  
N    1.8560616    1.5571714    4.0882609  
C   -0.0205033   -0.0168748    4.4215661  
C   -0.9962600   -0.8356168    3.7214979  
O   -1.8224391   -1.5286685    4.3006425  
C   -0.9864710   -0.8277881    2.1595606  
O   -1.8030528   -1.5133726    1.5592035  
C    0.0000000    0.0000000    1.4700000  
H    2.2509283    1.8888011    0.8310761  
H   -0.0229599   -0.0187323    5.5027230  
H    3.3143982    2.7817323    3.1139444  
H    2.0889452    1.7545833    5.0442112  
