64

C    0.5183079    0.0274014   -8.8588733  
C    1.5777653   -0.6474421   -9.4197689  
C    1.6201538   -0.2838114  -10.7983822  
C    0.5531462    0.6234853  -11.0225098  
N   -0.0968359    0.7890510   -9.8247085  
C    0.2924972    1.1901787  -12.2737932  
C    1.1243216    0.8347165  -13.3177721  
O    0.9150469    1.3588608  -14.5605472  
C    2.1939695   -0.0692603  -13.1140663  
O    2.9312984   -0.3234404  -14.2520818  
C    2.4515291   -0.6289130  -11.8799759  
H    2.2380726   -1.3200183   -8.8995492  
H   -0.8903110    1.3850513   -9.6725189  
H   -0.5192061    1.8821849  -12.4511862  
H    1.5974259    0.9848881  -15.1330583  
H    3.6328835   -0.9424406  -14.0279816  
H    3.2780833   -1.3184933  -11.7544155  
C    1.8886554   -2.0886686   -5.2633577  
C    0.9763566   -1.6271610   -4.3696034  
C    0.1009361   -0.7303188   -5.0866450  
C    0.5814327   -0.7070197   -6.4814109  
N    1.6673588   -1.5508188   -6.5221211  
C    0.0179870    0.0235613   -7.4766417  
C   -1.1387598    0.8416956   -7.1524079  
O   -1.7168203    1.5352810   -7.9788982  
C   -1.6645101    0.8324701   -5.6815895  
O   -2.6375206    1.5175330   -5.3966326  
C   -0.9736297    0.0040464   -4.6965763  
H    0.9228834   -1.8853690   -3.3269707  
H    2.7041549   -2.7762786   -5.1083002  
H    2.2136190   -1.7473802   -7.3406623  
C    1.1188642    0.0008222   -0.8003808  
C    0.0000000    0.0000000    0.0000000  
C   -1.1323862    0.0008899   -0.8673528  
C   -0.6382663    0.0019679   -2.1969280  
N    0.7324016    0.0038481   -2.1202242  
C   -1.4770914    0.0027318   -3.3154808  
C   -2.8395473    0.0020945   -3.0876857  
O   -3.7039201    0.0024425   -4.1440349  
C   -3.3517868    0.0013931   -1.7684331  
O   -4.7300497    0.0012366   -1.7073121  
C   -2.5248543    0.0009123   -0.6644817  
H    1.3576314   -0.0056167   -2.9057046  
H   -4.5940032    0.0021826   -3.7685128  
H   -4.9934602    0.0007259   -0.7819913  
H   -2.9462577    0.0005603    0.3339659  
H    2.1619895    0.0009355   -0.5342068  
C    2.5311839    2.1237619    3.0120429  
C    1.9795631    1.6616747    1.8395852  
C    0.9223175    0.7739173    2.1983588  
C    0.8753926    0.7337535    3.6154372  
N    1.8668922    1.5631002    4.0777464  
C   -0.0496243   -0.0427881    4.3197917  
C   -0.9437528   -0.7922060    3.5801400  
O   -1.8685244   -1.5680278    4.2172520  
C   -0.9124520   -0.7656372    2.1655264  
O   -1.8671164   -1.5663939    1.5732860  
C    0.0000000    0.0000000    1.4700000  
H    2.3005065    1.9304404    0.8477417  
H    2.0679347    1.7444845    5.0445261  
H   -0.0904770   -0.0778569    5.3997470  
H   -2.3849669   -2.0011402    3.5251786  
H   -1.7775064   -1.4909735    0.6183591  
H    3.3468514    2.8078103    3.1724291  
