62

C    2.7015518   -3.0393877   -8.2148501  
C    2.2183896   -1.8168390   -7.8093922  
C    2.5422197   -0.8801357   -8.8352193  
C    3.2283444   -1.5950363   -9.8501453  
N    3.3096490   -2.9028723   -9.4407908  
C    3.6985743   -0.9865563  -11.0178040  
C    3.4717706    0.3682333  -11.1636933  
O    3.9093749    1.0124323  -12.2846409  
C    2.7894231    1.0988302  -10.1619708  
O    2.6423095    2.4390535  -10.4543786  
C    2.3254898    0.4992556   -9.0096686  
H    3.7345911   -3.6486492   -9.9615826  
H    4.2223379   -1.5258130  -11.7950267  
H    3.6516892    1.9382116  -12.1856700  
H    2.1718640    2.8590227   -9.7278046  
H    1.8063526    1.0847544   -8.2598913  
H    2.6617712   -3.9976690   -7.7258990  
C    1.8159016   -2.1156534   -5.3336806  
C    0.9337941   -1.6549081   -4.3839084  
C    0.0359166   -0.7660298   -5.0459596  
C    0.4223297   -0.7238310   -6.4100823  
N    1.5073772   -1.5530969   -6.5501064  
C   -0.2444663    0.0542445   -7.3612762  
C   -1.3211419    0.8031322   -6.9275550  
O   -2.0081610    1.5803925   -7.8146200  
C   -1.7216870    0.7745412   -5.5705127  
O   -2.8111770    1.5750115   -5.2955535  
C   -1.0641734    0.0073898   -4.6315339  
H    0.9377500   -1.9252650   -3.3418506  
H    0.0451694    0.0908672   -8.4024158  
H   -2.7106169    2.0128237   -7.3118039  
H   -3.0163349    1.4981861   -4.3587442  
H    2.6416167   -2.7999472   -5.2393636  
C    1.1319248    0.0015675   -0.8009270  
C    0.7969916    0.0034959   -2.1169404  
C   -0.6453336    0.0035703   -2.1842672  
C   -1.1266831    0.0015415   -0.7896027  
N    0.0000000    0.0000000    0.0000000  
C   -2.4346129    0.0013924   -0.4276297  
C   -3.4350110    0.0031352   -1.4820184  
O   -4.6384610    0.0030897   -1.2583919  
C   -2.9478958    0.0050460   -2.9661075  
O   -3.7809377    0.0062160   -3.8623775  
C   -1.5113821    0.0053068   -3.2312125  
H    1.4821240    0.0045436   -2.9459192  
H   -2.7664565    0.0000185    0.6013447  
H    2.1104318    0.0009428   -0.3488058  
C    2.4951002    2.0940188    2.9809380  
C    1.9440701    1.6314916    1.8291961  
C    0.8759964    0.7350050    2.2038498  
C    0.8497377    0.7130254    3.6788474  
N    1.8560616    1.5571714    4.0882609  
C   -0.0205033   -0.0168748    4.4215661  
C   -0.9962600   -0.8356168    3.7214979  
O   -1.8224391   -1.5286685    4.3006425  
C   -0.9864710   -0.8277881    2.1595606  
O   -1.8030528   -1.5133726    1.5592035  
C    0.0000000    0.0000000    1.4700000  
H    2.2509283    1.8888011    0.8310761  
H   -0.0229599   -0.0187323    5.5027230  
H    3.3143982    2.7817323    3.1139444  
H    2.0889452    1.7545833    5.0442112  
