62

C    1.7615151   -1.8478838   -8.4860912  
C    2.7156337   -2.6675376   -9.0431298  
C    2.5623911   -2.5826751  -10.4587266  
C    1.4901134   -1.6883601  -10.7084202  
N    1.0252061   -1.2620674   -9.4890956  
C    1.0592999   -1.3656881  -11.9987968  
C    1.7232331   -1.9563513  -13.0563817  
O    1.3437336   -1.6760724  -14.3371774  
C    2.7951951   -2.8515266  -12.8275252  
O    3.3536875   -3.3569813  -13.9833570  
C    3.2205630   -3.1705187  -11.5547990  
H    3.4330308   -3.2552620   -8.4963985  
H    0.2730471   -0.6118070   -9.3498137  
H    0.2426113   -0.6849410  -12.1957894  
H    1.9284462   -2.1858323  -14.9129561  
H    4.0695622   -3.9519943  -13.7402787  
H    4.0444060   -3.8597044  -11.4106336  
C    2.1451928   -2.0951773   -5.9900943  
C    1.6340471   -1.6323753   -4.8202142  
C    0.5538824   -0.7357923   -5.1581773  
C    0.4770637   -0.7140558   -6.6314102  
N    1.4686361   -1.5584202   -7.0749453  
C   -0.4180293    0.0158494   -7.3439773  
C   -1.3690894    0.8348539   -6.6110028  
O   -2.2145426    1.5279314   -7.1615959  
C   -1.3057472    0.8272852   -5.0503184  
O   -2.1011642    1.5130918   -4.4224315  
C   -0.2963293   -0.0005341   -4.3948471  
H    1.9749144   -1.8895632   -3.8331589  
H   -0.4575579    0.0175262   -8.4244138  
H    2.9593496   -2.7830347   -6.1509979  
C    3.1301146   -0.0010313   -1.7028256  
C    2.5367765   -0.0002766   -0.4864669  
C    1.1089901    0.0001027   -0.7656184  
C    1.0177865   -0.0004150   -2.2415133  
N    2.1993571   -0.0011612   -2.7963824  
C   -0.2459219   -0.0002879   -2.9257116  
C   -1.3675326   -0.0000606   -2.1698520  
O   -2.6129318    0.0000865   -2.6748483  
C   -1.3083588    0.0000910   -0.6783229  
O   -2.3693264    0.0004206   -0.0541685  
C    0.0000000    0.0000000    0.0000000  
H    3.0096016   -0.0001007    0.4807518  
H   -3.1967444    0.0002093   -1.8949026  
H    4.1849275   -0.0015114   -1.9271979  
C    0.8676693    0.7151171    2.2619005  
C    0.5875920    0.4624972    3.5848544  
C   -0.5048400   -0.4542819    3.6114698  
C   -0.8517165   -0.7276451    2.2635546  
N    0.0000000    0.0000000    1.4700000  
C   -1.8902865   -1.5946756    1.9108239  
C   -2.5912627   -2.1969500    2.9375057  
O   -3.6148162   -3.0527051    2.6493466  
C   -2.2603868   -1.9365747    4.2886322  
O   -3.0513550   -2.6123276    5.1947621  
C   -1.2361111   -1.0811317    4.6373480  
H    1.1060808    0.8876438    4.4271209  
H   -2.1597133   -1.8070987    0.8854031  
H   -3.9636755   -3.3565188    3.4974381  
H   -2.7621927   -2.3810384    6.0827341  
H   -1.0058879   -0.9010589    5.6809233  
H    1.6167816    1.3499334    1.8205408  
