62

C    0.0000000    0.0000000    0.0000000  
C    1.0521666   -0.0011919   -0.8862347  
C    0.4917214   -0.0011970   -2.1979137  
C   -0.9187430    0.0003150   -2.0478685  
N   -1.1833169   -0.0009400   -0.7007914  
C   -1.7951704    0.0010362   -3.1372093  
C   -1.2375839    0.0005226   -4.4010426  
O   -2.0474219    0.0015368   -5.4997582  
C    0.1673578   -0.0013584   -4.5711968  
O    0.5673517   -0.0020713   -5.8915553  
C    1.0325771   -0.0023435   -3.4969896  
H    2.0953056   -0.0030677   -0.6200564  
H   -2.0989775    0.0102397   -0.2891824  
H   -1.4634892    0.0006500   -6.2693593  
H    1.5290702   -0.0033188   -5.9180049  
H    2.1042143   -0.0039648   -3.6584464  
C   -3.9705525    0.7070975   -2.0745739  
C   -3.2578656    0.0024070   -2.9908506  
C   -4.2093235   -0.7382521   -3.7851983  
C   -5.5443152   -0.4048853   -3.2527939  
N   -5.3302022    0.4752933   -2.2172597  
C   -6.7108617   -0.9029277   -3.7353163  
C   -6.6473155   -1.8292862   -4.8535100  
O   -7.6421039   -2.3324251   -5.3590286  
C   -5.2441074   -2.1966257   -5.4330563  
O   -5.1780557   -2.9757341   -6.3742720  
C   -4.0579927   -1.5951374   -4.8287417  
H   -3.0902117   -1.8545058   -5.2359909  
H   -3.6168779    1.3760943   -1.3069498  
H   -6.0507890    0.8875112   -1.6534528  
C   -8.4579453    0.6588888   -2.7618948  
C   -8.0281028   -0.5527294   -3.1847368  
C   -9.1581290   -1.4451109   -2.9769041  
C  -10.2145737   -0.5820397   -2.4062751  
N   -9.8099695    0.6523942   -2.2779892  
C  -11.5098365   -1.0960237   -2.0552746  
C  -11.7394105   -2.4122971   -2.2651650  
O  -12.9016426   -3.0256517   -1.9839998  
C  -10.6936623   -3.3091262   -2.8398544  
O  -10.9720944   -4.4969410   -3.0035367  
C   -9.3729021   -2.7580299   -3.1917223  
H  -12.2629770   -0.4425331   -1.6397760  
H  -12.7602721   -3.9546585   -2.2411247  
H   -8.6427889   -3.4405726   -3.6056062  
H   -7.9137996    1.5898872   -2.7508727  
C    0.0000000    0.0000000    1.4700000  
C    1.0521667    0.0011902    2.3562342  
C    0.4917218    0.0011957    3.6679131  
C   -0.9187428   -0.0003148    3.5178682  
N   -1.1833171    0.0009411    2.1707914  
C   -1.7951701   -0.0010350    4.6072090  
C   -1.2375837   -0.0005224    5.8710424  
O   -2.0474215   -0.0015360    6.9697579  
C    0.1673580    0.0013566    6.0411963  
O    0.5673524    0.0020687    7.3615553  
C    1.0325770    0.0023412    4.9669890  
H    2.0953057    0.0030649    2.0900562  
H   -2.0989778   -0.0102372    1.7591824  
H   -2.8710934   -0.0020419    4.4995513  
H   -1.4634884   -0.0006497    7.7393593  
H    1.5290710    0.0033153    7.3880045  
H    2.1042148    0.0039609    5.1284455  
