60

C    2.5739599   -2.1205413   -6.0299301  
C    2.0624115   -1.6592053   -4.8391513  
C    0.9926084   -0.7724382   -5.1612768  
C    0.8970784   -0.7320764   -6.5759042  
N    1.8729612   -1.5603567   -7.0721127  
C   -0.0523143    0.0436663   -7.2479647  
C   -0.9212935    0.7920667   -6.4779327  
O   -1.8681346    1.5670783   -7.0827992  
C   -0.8414765    0.7652849   -5.0652301  
O   -1.7760616    1.5649891   -4.4404368  
C    0.0950450    0.0004357   -4.4015596  
H    2.4174427   -1.9278227   -3.8589517  
H    2.0409129   -1.7413737   -8.0452541  
H   -0.1302101    0.0788810   -8.3258765  
H   -2.3609694    1.9995572   -6.3733337  
H   -1.6536852    1.4894934   -3.4891598  
H    3.3843232   -2.8037502   -6.2183331  
C    3.3321174    0.0004722   -1.3379336  
C    2.6974183    0.0000122   -2.5332313  
C    1.2800441   -0.0002113   -2.2052840  
C    1.2395036    0.0000646   -0.7271298  
N    2.4394063    0.0005463   -0.2131037  
C    0.0000000    0.0000000    0.0000000  
C   -1.1468699    0.0000637   -0.7169543  
O   -2.3742201    0.0000076   -0.1695489  
C   -1.1388769    0.0001611   -2.2096357  
O   -2.2206234    0.0000908   -2.7970412  
C    0.1454523    0.0001820   -2.9324241  
H    3.1367987   -0.0000643   -3.5160945  
H   -2.9844345    0.0001025   -0.9290168  
C    6.6781263    0.0000534   -4.1292985  
C    7.7444184    0.0009691   -3.2958721  
C    7.1743136    0.0014033   -1.9574103  
C    5.7117410    0.0007377   -2.1752739  
N    5.4148493   -0.0001355   -3.4464328  
C    4.7795905    0.0008679   -1.0815729  
C    5.2855493    0.0012395    0.1727556  
O    4.5324893    0.0014073    1.2858327  
C    6.7567506    0.0015425    0.4252011  
O    7.1465034    0.0019991    1.5928110  
C    7.6924435    0.0014451   -0.7133960  
H    8.7888465    0.0012176   -3.5571129  
H    5.1739002    0.0016453    2.0191432  
H    8.7505430    0.0015574   -0.4883248  
H    6.6781264   -0.0005117   -5.2077111  
C    2.3971438    2.0127888    3.1728260  
C    1.9431056    1.6308205    1.9564670  
C    0.8496017    0.7127664    2.2356185  
C    0.7794028    0.6545384    3.7115134  
N    1.6840587    1.4146091    4.2663826  
C   -0.1885723   -0.1578550    4.3957118  
C   -1.0476298   -0.8789867    3.6398520  
O   -2.0015663   -1.6796266    4.1448486  
C   -1.0022026   -0.8410666    2.1483229  
O   -1.8147390   -1.5232959    1.5241687  
C    0.0000000    0.0000000    1.4700000  
H    2.3054237    1.9346118    0.9892483  
H   -0.2170646   -0.1815267    5.4753125  
H   -2.4487139   -2.0549881    3.3649027  
H    3.2048689    2.6911772    3.3971983  
