62

C    9.9149500   -0.7081643   -1.6399204  
C   11.1692754   -0.4570176   -2.1459446  
C   11.0054070    0.4519754   -3.2329031  
C    9.6174052    0.7223272   -3.3437434  
N    8.9839866    0.0004455   -2.3627814  
C    9.0892658    1.5818054   -4.3118111  
C    9.9785364    2.1794851   -5.1836794  
O    9.5166105    3.0278202   -6.1480260  
C   11.3669186    1.9220080   -5.0892433  
O   12.1217931    2.5924759   -6.0294463  
C   11.8886160    1.0740137   -4.1346420  
H   12.0890960   -0.8781291   -1.7777199  
H    8.0323849    1.7918980   -4.4016222  
H   10.2912474    3.3294814   -6.6401691  
H   13.0467271    2.3636032   -5.8963351  
H   12.9565591    0.8959989   -4.0868039  
H    9.6105742   -1.3378096   -0.8214699  
C    6.6540972   -0.0013091    1.3962729  
C    5.4018071   -0.0015694    0.8268552  
C    5.5874904   -0.0008946   -0.5874013  
C    6.9861183   -0.0005210   -0.8235502  
N    7.6043962    0.0011648    0.4021525  
C    7.5360617   -0.0001390   -2.1089881  
C    6.6581048   -0.0004411   -3.1754633  
O    7.1413992   -0.0004415   -4.4519583  
C    5.2593677   -0.0004399   -2.9601678  
O    4.5179016   -0.0003362   -4.1235989  
C    4.7161325   -0.0005435   -1.6923264  
H    4.4691976   -0.0010661    1.3646588  
H    8.5971759   -0.0087721    0.5513882  
H    6.3714457   -0.0003763   -5.0354278  
H    3.5847247   -0.0003700   -3.8895380  
H    6.9446144   -0.0012466    2.4328822  
C    3.2573665   -0.0002920   -1.5109385  
C    2.5379463   -0.0001709   -0.3591964  
C    1.1435038    0.0000331   -0.7338500  
C    1.1092599   -0.0000083   -2.2088477  
N    2.4227553    0.0001909   -2.6182613  
C   -0.0265539   -0.0002524   -2.9515660  
C   -1.3003040   -0.0002640   -2.2514977  
O   -2.3786790   -0.0004133   -2.8306421  
C   -1.2877727    0.0000311   -0.6895603  
O   -2.3539959    0.0003306   -0.0892030  
C    0.0000000    0.0000000    0.0000000  
H    2.9384091   -0.0000367    0.6389234  
H   -0.0296303   -0.0004086   -4.0327229  
H    2.7280482   -0.0013407   -3.5742119  
C    0.0000000    0.0000000    1.4700000  
C    1.0541688    0.0001722    2.3260392  
C    0.5103138    0.0000454    3.6635956  
C   -0.9576371   -0.0002459    3.5155732  
N   -1.2018458    0.0001392    2.1615969  
C   -1.8348311   -0.0008317    4.5510609  
C   -1.2972847   -0.0009736    5.9014604  
O   -2.0050672   -0.0014265    6.9001319  
C    0.2542623   -0.0004184    6.0817573  
O    0.7184670   -0.0002256    7.2139121  
C    1.0974552   -0.0000873    4.8889129  
H    2.0940752    0.0005483    2.0517982  
H   -2.9081052   -0.0011668    4.4207061  
H    2.1707277    0.0000911    5.0223670  
H   -2.1128194   -0.0014912    1.7406791  
