60

C    1.2314063   -1.0829299   -9.5036476  
C    1.6664008   -0.7074753  -10.7535609  
C    1.4353684    0.6951869  -10.8708759  
C    0.8528961    1.1245337   -9.6509109  
N    0.7413083    0.0196743   -8.8437866  
C    0.4915947    2.4538749   -9.4119501  
C    0.7227816    3.3664718  -10.4228396  
O    0.3893132    4.6776670  -10.2423448  
C    1.3026474    2.9573349  -11.6472509  
O    1.4684699    3.9836906  -12.5541347  
C    1.6590796    1.6460252  -11.8837846  
H    2.0962255   -1.3640282  -11.4905690  
H    0.0471488    2.7874696   -8.4843817  
H    0.6307160    5.1355743  -11.0580094  
H    1.8653757    3.6227412  -13.3527500  
H    2.1012319    1.3623733  -12.8316879  
H    1.2306497   -2.0502566   -9.0311678  
C    2.0060354   -2.0933382   -5.2079950  
C    1.0681400   -1.6309435   -4.3416125  
C    0.2140994   -0.7346501   -5.0846522  
C    0.7350366   -0.7126398   -6.4648448  
N    1.8215800   -1.5565851   -6.4731480  
C    0.2009231    0.0171137   -7.4767177  
C   -0.9646761    0.8356538   -7.1870525  
O   -1.5183198    1.5285630   -8.0306496  
C   -1.5330619    0.8277889   -5.7321707  
O   -2.5138749    1.5132042   -5.4762943  
C   -0.8712826    0.0001710   -4.7267111  
H    0.9842756   -1.8882192   -3.3007524  
H    2.8165825   -2.7808931   -5.0286319  
H    2.3914344   -1.7539297   -7.2752498  
C    1.0965514    0.0001359   -0.8010305  
C    0.0000000    0.0000000    0.0000000  
C   -1.1546563    0.0001470   -0.8669513  
C   -0.6372014    0.0003519   -2.2486282  
N    0.7342871    0.0007337   -2.1395014  
C   -1.4147739    0.0001352   -3.3608717  
C   -2.8576049   -0.0001048   -3.1854462  
O   -3.6427779   -0.0002494   -4.1244907  
C   -3.4275840   -0.0000725   -1.7311666  
O   -4.6406831    0.0000333   -1.5710060  
C   -2.4891867   -0.0001091   -0.6116744  
H   -2.8919122   -0.0002918    0.3920866  
H    2.1388272    0.0000663   -0.5261648  
H    1.3735872   -0.0006099   -2.9130262  
C    2.4951002    2.0940188    2.9809380  
C    1.9440701    1.6314916    1.8291961  
C    0.8759964    0.7350050    2.2038498  
C    0.8497377    0.7130254    3.6788474  
N    1.8560616    1.5571714    4.0882609  
C   -0.0205033   -0.0168748    4.4215661  
C   -0.9962600   -0.8356168    3.7214979  
O   -1.8224391   -1.5286685    4.3006425  
C   -0.9864710   -0.8277881    2.1595606  
O   -1.8030528   -1.5133726    1.5592035  
C    0.0000000    0.0000000    1.4700000  
H    2.2509283    1.8888011    0.8310761  
H   -0.0229599   -0.0187323    5.5027230  
H    3.3143982    2.7817323    3.1139444  
H    2.0889452    1.7545833    5.0442112  
