62

C   -3.9747612    0.7101850   -1.9417823  
C   -5.3221355    0.4600623   -2.0621546  
C   -5.4813673   -0.4485687   -3.1501041  
C   -4.1854344   -0.7197654   -3.6589634  
N   -3.2941075    0.0012873   -2.9038235  
C   -3.9615342   -1.5791670   -4.7388183  
C   -5.0659633   -2.1759000   -5.3152940  
O   -4.9043393   -3.0241176   -6.3723733  
C   -6.3670286   -1.9175708   -4.8220261  
O   -7.3627223   -2.5871489   -5.5029089  
C   -6.5886806   -1.0696515   -3.7569302  
H   -6.0952351    0.8816070   -1.4427913  
H   -2.9763329   -1.7899005   -5.1314648  
H   -5.7886690   -3.3250690   -6.6186536  
H   -8.2090764   -2.3577388   -5.1071047  
H   -7.5966689   -0.8909705   -3.4012484  
H   -3.4455419    1.3392825   -1.2467125  
C    0.0000000    0.0000000    0.0000000  
C    1.0541688   -0.0001722   -0.8560392  
C    0.5103135   -0.0000454   -2.1935954  
C   -0.9576375    0.0002459   -2.0455728  
N   -1.2018462   -0.0001392   -0.6915966  
C   -1.8348315    0.0008316   -3.0810604  
C   -1.2972851    0.0009737   -4.4314603  
O   -2.0050681    0.0014265   -5.4301316  
C    0.2542617    0.0004185   -4.6117570  
O    0.7184664    0.0002257   -5.7439119  
C    1.0974549    0.0000874   -3.4189129  
H    2.0940751   -0.0005482   -0.5817983  
H   -2.1128195    0.0014911   -0.2706785  
C    2.5562209   -0.0001551   -3.6003007  
C    3.5148517   -0.0005086   -2.6449965  
C    4.7727378   -0.0006027   -3.3759016  
C    4.3760675   -0.0003759   -4.8004141  
N    3.0779888   -0.0000323   -4.9381848  
C    5.3463894   -0.0003431   -5.8603959  
C    6.6535642   -0.0001396   -5.5130793  
O    7.6652126   -0.0000933   -6.3977311  
C    7.0856166    0.0000107   -4.0842717  
O    8.2923961    0.0000694   -3.8415724  
C    6.0711794   -0.0000701   -3.0152342  
H    3.3844832   -0.0005936   -1.5763151  
H    5.0281901   -0.0003821   -6.8927040  
H    8.4720650    0.0000902   -5.8517074  
H    6.4250924    0.0001591   -1.9929939  
C    3.3041272   -0.0001177    3.0120429  
C    2.5845372    0.0004780    1.8395852  
C    1.2040006    0.0000008    2.1983588  
C    1.1422373   -0.0006037    3.6154372  
N    2.4348639   -0.0026109    4.0777464  
C   -0.0655181   -0.0008797    4.3197917  
C   -1.2321768   -0.0002324    3.5801400  
O   -2.4392816   -0.0001146    4.2172520  
C   -1.1911209    0.0000007    2.1655264  
O   -2.4371527    0.0002320    1.5732860  
C    0.0000000    0.0000000    1.4700000  
H    3.0031534    0.0000661    0.8477417  
H    2.7054629    0.0071099    5.0445261  
H   -0.1193549   -0.0014844    5.3997470  
H   -3.1132988    0.0000648    3.5251786  
H   -2.3200282    0.0004071    0.6183591  
H    4.3686625   -0.0004071    3.1724291  
