60

C    4.7662180   -1.1161883   -4.9287118  
C    5.5856635   -2.0008009   -4.2665664  
C    6.6959491   -2.2611169   -5.1233638  
C    6.4976837   -1.5007207   -6.3042171  
N    5.3157842   -0.8187335   -6.1538022  
C    7.4000588   -1.5130469   -7.3720914  
C    8.5231911   -2.3072251   -7.2454710  
O    9.4370938   -2.3561091   -8.2580945  
C    8.7384454   -3.0734127   -6.0752407  
O    9.9028090   -3.8129490   -6.1014108  
C    7.8485176   -3.0619466   -5.0214745  
H    5.4048103   -2.4091842   -3.2870220  
H    4.9196078   -0.1885086   -6.8274798  
H    7.2546433   -0.9359029   -8.2748435  
H   10.1326666   -2.9610582   -7.9691649  
H    9.9720949   -4.3004996   -5.2749127  
H    8.0400819   -3.6594883   -4.1378881  
C    2.8494824   -0.7287742   -3.3362176  
C    3.4912460   -0.5137444   -4.5134927  
C    2.6833704    0.4134347   -5.2701378  
C    1.5099405    0.7231880   -4.4311473  
N    1.6707636   -0.0012343   -3.2725974  
C    0.5077425    1.5643732   -4.7913022  
C    0.5901975    2.2074118   -6.0921628  
O   -0.2621832    2.9813251   -6.5078617  
C    1.8239389    1.8937415   -6.9973136  
O    1.9040990    2.4289667   -8.0947520  
C    2.8403310    0.9701104   -6.4996146  
H   -0.3442052    1.7780272   -4.1608686  
H    3.6915246    0.7583851   -7.1323594  
H    3.1383490   -1.3576897   -2.5098333  
C    1.0965514    0.0001358   -0.8010306  
C    0.0000000    0.0000000    0.0000000  
C   -1.1546565    0.0001470   -0.8669508  
C   -0.6372019    0.0003520   -2.2486278  
N    0.7342867    0.0007338   -2.1395012  
C   -1.4147744    0.0001354   -3.3608712  
C   -2.8576052   -0.0001047   -3.1854454  
O   -3.6427785   -0.0002490   -4.1244896  
C   -3.4275841   -0.0000727   -1.7311660  
O   -4.6406832    0.0000333   -1.5710049  
C   -2.4891868   -0.0001090   -0.6116739  
H   -1.0150456    0.0001617   -4.3654239  
H   -2.8919122   -0.0002919    0.3920871  
H    2.1388270    0.0000663   -0.5261650  
C    0.8681109    0.7263879    2.2709268  
C    0.6127770    0.5096195    3.5869401  
C   -0.4920590   -0.4175482    3.6542670  
C   -0.8620974   -0.7254003    2.2596025  
N    0.0000000    0.0000000    1.4700000  
C   -1.8641242   -1.5660088    1.8976294  
C   -2.6293522   -2.2103885    2.9520183  
O   -3.5512764   -2.9839180    2.7283916  
C   -2.2549728   -1.8987399    4.4361073  
O   -2.8923672   -2.4351063    5.3323774  
C   -1.1543735   -0.9755647    4.7012123  
H    1.1382914    0.9492124    4.4159191  
H   -2.1192137   -1.7782617    0.8686553  
H   -0.9013378   -0.7652422    5.7314848  
H    1.6172880    1.3558399    1.8188057  
