62

C    4.3405876    0.0834577   -6.6680295  
C    5.5314512   -0.5653745   -6.8989578  
C    5.9798552   -0.1647872   -8.1924269  
C    5.0136596    0.7372086   -8.7070094  
N    4.0308331    0.8642086   -7.7569873  
C    5.1312129    1.3342950   -9.9657616  
C    6.2445673    1.0152405  -10.7186384  
O    6.4093074    1.5700935  -11.9547663  
C    7.2193607    0.1171334  -10.2226567  
O    8.2690794   -0.0991436  -11.0913684  
C    7.1039053   -0.4724894   -8.9810686  
H    6.0166517   -1.2447737   -6.2192590  
H    3.2178675    1.4478171   -7.8374152  
H    4.3982393    2.0224511  -10.3637490  
H    7.2387508    1.2184685  -12.3035478  
H    8.8817089   -0.7166902  -10.6803635  
H    7.8665787   -1.1566905   -8.6279728  
C    4.6022462   -2.1272931   -2.8466434  
C    3.4305510   -1.6635856   -2.2947617  
C    2.8449917   -0.7762114   -3.2457021  
C    3.7116210   -0.7379407   -4.3679383  
N    4.7696350   -1.5679973   -4.0918412  
C    3.4480381    0.0377430   -5.5009113  
C    2.2883219    0.7882332   -5.5011201  
O    1.9820896    1.5632872   -6.5821047  
C    1.4112320    0.7635555   -4.3907505  
O    0.2988108    1.5651928   -4.5432008  
C    1.6707636   -0.0012343   -3.2725974  
H    3.0458274   -1.9310528   -1.3255135  
H    5.5403297   -1.7506945   -4.7087957  
H    1.1435171    1.9973734   -6.3780712  
H   -0.2405314    1.4910428   -3.7499695  
H    5.3325177   -2.8116314   -2.4499765  
C    1.0965514    0.0001358   -0.8010306  
C    0.0000000    0.0000000    0.0000000  
C   -1.1546565    0.0001470   -0.8669508  
C   -0.6372019    0.0003520   -2.2486278  
N    0.7342867    0.0007338   -2.1395012  
C   -1.4147744    0.0001354   -3.3608712  
C   -2.8576052   -0.0001047   -3.1854454  
O   -3.6427785   -0.0002490   -4.1244896  
C   -3.4275841   -0.0000727   -1.7311660  
O   -4.6406832    0.0000333   -1.5710049  
C   -2.4891868   -0.0001090   -0.6116739  
H   -1.0150456    0.0001617   -4.3654239  
H   -2.8919122   -0.0002919    0.3920871  
H    2.1388270    0.0000663   -0.5261650  
C    0.8400945    0.7047457    2.2710304  
C    0.0000000    0.0000000    1.4700000  
C   -0.8844236   -0.7423113    2.3369512  
C   -0.4878984   -0.4098547    3.7186280  
N    0.5629682    0.4714286    3.6095011  
C   -1.0836927   -0.9095027    4.8308716  
C   -2.1891196   -1.8367527    4.6554461  
O   -2.7906899   -2.3413415    5.5944904  
C   -2.6257283   -2.2031529    3.2011665  
O   -3.5549479   -2.9829990    3.0410059  
C   -1.9068976   -1.5999348    2.0816745  
H   -0.7774656   -0.6525820    5.8354244  
H   -2.2155208   -1.8586617    1.0779135  
H    1.6384792    1.3747609    1.9961646  
H    1.0518368    0.8833920    4.3830260  
