60

C    6.1490029   -2.1131923   -4.6308392  
C    7.1712420   -2.9641492   -4.2796040  
C    8.0935750   -2.9783277   -5.3675848  
C    7.5769427   -2.1093854   -6.3625502  
N    6.3944288   -1.6022907   -5.8838731  
C    8.2284994   -1.8791953   -7.5779824  
C    9.4235118   -2.5379676   -7.7927916  
O   10.1015235   -2.3491214   -8.9622571  
C    9.9549579   -3.4092119   -6.8123247  
O   11.1523465   -3.9903649   -7.1754585  
C    9.3125878   -3.6369828   -5.6131558  
H    7.2427436   -3.5086425   -3.3536406  
H    5.8056533   -0.9481189   -6.3669709  
H    7.8399254   -1.2182446   -8.3404497  
H   10.8971962   -2.8942728   -8.9076643  
H   11.4421083   -4.5631566   -6.4588331  
H    9.7439120   -4.3099691   -4.8813593  
C    4.5533949   -2.1376046   -2.6578815  
C    4.9399043   -1.7283670   -3.8886191  
C    3.8940259   -0.8167860   -4.3264061  
C    2.9285538   -0.7919272   -3.2066605  
N    3.3097734   -1.5641893   -2.2257059  
C    1.7334695    0.0049281   -3.2500363  
C    1.5131087    0.7436789   -4.3613518  
O    0.4396995    1.5328949   -4.5373378  
C    2.4688040    0.7400641   -5.5079971  
O    2.2042977    1.4366795   -6.4877848  
C    3.6875673   -0.0856738   -5.4394561  
H    0.5632903    1.9263769   -5.4199756  
H    4.3545062   -0.0606074   -6.2908042  
H    5.0606854   -2.8208827   -1.9954919  
C    1.1319246    0.0015678   -0.8009268  
C    0.7969914    0.0034958   -2.1169401  
C   -0.6453340    0.0035696   -2.1842669  
C   -1.1266832    0.0015410   -0.7896025  
N    0.0000000    0.0000000    0.0000000  
C   -2.4346129    0.0013913   -0.4276292  
C   -3.4350111    0.0031335   -1.4820181  
O   -4.6384614    0.0030875   -1.2583914  
C   -2.9478961    0.0050442   -2.9661074  
O   -3.7809382    0.0062135   -3.8623773  
C   -1.5113825    0.0053055   -3.2312122  
H   -2.7664565    0.0000174    0.6013448  
H   -1.1823533    0.0068381   -4.2614848  
H    2.1104316    0.0009435   -0.3488059  
C    2.4951002    2.0940188    2.9809380  
C    1.9440701    1.6314916    1.8291961  
C    0.8759964    0.7350050    2.2038498  
C    0.8497377    0.7130254    3.6788474  
N    1.8560616    1.5571714    4.0882609  
C   -0.0205033   -0.0168748    4.4215661  
C   -0.9962600   -0.8356168    3.7214979  
O   -1.8224391   -1.5286685    4.3006425  
C   -0.9864710   -0.8277881    2.1595606  
O   -1.8030528   -1.5133726    1.5592035  
C    0.0000000    0.0000000    1.4700000  
H    2.2509283    1.8888011    0.8310761  
H   -0.0229599   -0.0187323    5.5027230  
H    3.3143982    2.7817323    3.1139444  
H    2.0889452    1.7545833    5.0442112  
