62

C   -1.1180411   -0.0429312   -0.8003805  
C    0.0000000    0.0000000    0.0000000  
C    1.1316170    0.0417291   -0.8673531  
C    0.6378871    0.0220551   -2.1969284  
N   -0.7317388   -0.0314100   -2.1202240  
C    1.4761466    0.0528618   -3.3154815  
C    2.8376136    0.1047761   -3.0876864  
O    3.7013860    0.1369597   -4.1440357  
C    3.3494642    0.1247556   -1.7684337  
O    4.7267435    0.1767841   -1.7073139  
C    2.5230994    0.0941136   -0.6644825  
H    1.1061107    0.0379576   -4.3313814  
H    4.5908292    0.1707182   -3.7685144  
H    4.9899496    0.1872078   -0.7819923  
H    2.9441917    0.1103253    0.3339650  
H   -2.1604229   -0.0823032   -0.5342061  
C   -1.6470538   -0.0520153   -3.2702993  
C   -3.0040410   -0.1018584   -3.2835855  
C   -3.4117972   -0.1011211   -4.6687097  
C   -2.1722425   -0.0463995   -5.4670208  
N   -1.1383075   -0.0182290   -4.5597859  
C   -2.1313506   -0.0298657   -6.8233976  
C   -3.3923450   -0.0683215   -7.5451653  
O   -3.4609496   -0.0572483   -8.7672424  
C   -4.7173462   -0.1262466   -6.7200458  
O   -5.7851350   -0.1586639   -7.3167344  
C   -4.6336719   -0.1396030   -5.2617341  
H   -3.6461039   -0.1351401   -2.4214594  
H   -5.5556642   -0.1800002   -4.6977991  
H   -0.1641243    0.0188939   -4.7977701  
C   -0.8803795    0.0247885   -7.5934526  
C    0.4003654    0.0668397   -7.1440099  
C    1.2537121    0.1113329   -8.3079062  
C    0.3587171    0.0916439   -9.4806749  
N   -0.9214377    0.0385104   -8.9794058  
C    0.7803587    0.1220777  -10.7702470  
C    2.2111494    0.1777281  -11.0197983  
O    2.6902166    0.2083310  -12.1457908  
C    3.1774139    0.1991778   -9.7927368  
O    4.3840689    0.2456562   -9.9904333  
C    2.6040392    0.1628127   -8.4496916  
H    0.7117772    0.0665230   -6.1146235  
H    0.1071574    0.1069816  -11.6161080  
H    3.2798723    0.1781806   -7.6054535  
H   -1.7569321    0.0155061   -9.5348041  
C    0.8576279    0.7185626    2.2703808  
C    0.0000000    0.0000000    1.4700000  
C   -0.8668858   -0.7285659    2.3373528  
C   -0.4876752   -0.4117774    3.6669281  
N    0.5635254    0.4678311    3.5902241  
C   -1.1297612   -0.9515493    4.7854808  
C   -2.1738724   -1.8268314    4.5576857  
O   -2.8357962   -2.3827064    5.6140350  
C   -2.5667212   -2.1555554    3.2384331  
O   -3.6226318   -3.0413663    3.1773122  
C   -1.9335634   -1.6236449    2.1344818  
H    1.0363952    0.8769718    4.3757045  
H   -0.8454472   -0.7142436    5.8013813  
H   -3.5178062   -2.9546422    5.2385129  
H   -3.8247440   -3.2102924    2.2519915  
H   -2.2566033   -1.8942483    1.1360343  
H    1.6567807    1.3889844    2.0042067  
