64

C    6.6512658    0.0983969   -4.7331416  
C    7.7287538   -0.5497329   -4.1750960  
C    8.8829654   -0.1478798   -4.9105612  
C    8.4442256    0.7541282   -5.9134645  
N    7.0838334    0.8799185   -5.7788268  
C    9.3173490    1.3523096   -6.8270417  
C   10.6578375    1.0343573   -6.7261667  
O   11.5539421    1.5903068   -7.5927289  
C   11.1148595    0.1362571   -5.7325057  
O   12.4772883   -0.0788486   -5.7619061  
C   10.2540318   -0.4544454   -4.8310789  
H    7.6877208   -1.2294878   -3.3412837  
H    6.4959516    1.4632446   -6.3463701  
H    8.9892400    2.0404814   -7.5938315  
H   12.4210120    1.2393274   -7.3513412  
H   12.7029150   -0.6964734   -5.0595985  
H   10.6332913   -1.1386122   -4.0810415  
C    4.4206225   -2.1198137   -1.5561252  
C    5.4069067   -1.6197470   -2.3744427  
C    4.7719050   -0.7451148   -3.3052441  
C    3.3859892   -0.7512895   -3.0033736  
N    3.2068303   -1.5976640   -1.9374612  
C    2.4521483    0.0014840   -3.7217481  
C    2.9260544    0.7748090   -4.7636496  
O    2.0575519    1.5296195   -5.4978012  
C    4.3052229    0.7939172   -5.0804267  
O    4.6197291    1.6131716   -6.1449695  
C    5.2270108    0.0513305   -4.3723324  
H    6.4549560   -1.8571123   -2.3092927  
H    2.3277579   -1.7949327   -1.4944058  
H    2.5878301    1.9847230   -6.1648474  
H    5.5693396    1.5686713   -6.2928300  
H    4.4867489   -2.8087409   -0.7315254  
C    0.0000000    0.0000000    0.0000000  
C    1.0662923   -0.0000101   -0.8334270  
C    0.4961873    0.0000065   -2.1718887  
C   -0.9663854   -0.0000848   -1.9540250  
N   -1.2632773   -0.0000083   -0.6828660  
C   -1.8985359   -0.0000514   -3.0477261  
C   -1.3925770    0.0004566   -4.3020547  
O   -2.1456378    0.0005414   -5.4151314  
C    0.0786240    0.0009326   -4.5545000  
O    0.4683767    0.0012591   -5.7221100  
C    1.0143171    0.0008444   -3.4159031  
H    2.1107200    0.0000633   -0.5721865  
H   -2.9622181   -0.0003268   -2.8593381  
H   -1.5042265    0.0009697   -6.1484419  
C    3.3003543   -0.0005276    2.9438989  
C    2.5232812   -0.0003497    4.0790748  
C    1.1623199    0.0001319    3.6520102  
C    1.1711883   -0.0000583    2.2336141  
N    2.4852299    0.0014920    1.8362361  
C    0.0000000    0.0000000    1.4700000  
C   -1.2020384   -0.0000520    2.1506477  
O   -2.3759250   -0.0003494    1.4542253  
C   -1.2314658    0.0005113    3.5655508  
O   -2.5054393    0.0008037    4.0950179  
C   -0.0764518    0.0007272    4.3195194  
H    2.8919952    0.0005619    5.0905303  
H    2.8036267   -0.0088181    0.8841339  
H   -3.0835639   -0.0000348    2.1118817  
H   -2.4360050    0.0011527    5.0545920  
H   -0.1304098    0.0013421    5.4019087  
H    4.3715549   -0.0004895    2.8367138  
