62

C    7.6046304   -3.6858190   -5.0317713  
C    8.3871711   -4.5038931   -4.2502009  
C    7.9036086   -4.3892419   -2.9131815  
C    6.8155702   -3.4796574   -2.9406627  
N    6.6620925   -3.0700830   -4.2419354  
C    6.0951162   -3.1275037   -1.7953580  
C    6.4798495   -3.7043062   -0.6005954  
O    5.8104467   -3.3957841    0.5481981  
C    7.5630852   -4.6137764   -0.5528182  
O    7.8237239   -5.1018835    0.7109695  
C    8.2744525   -4.9614357   -1.6822494  
H    9.2065275   -5.1080261   -4.6004484  
H    5.2649804   -2.4347749   -1.8096150  
H    6.2344299   -3.8997052    1.2549984  
H    8.5685907   -5.7082395    0.6551829  
H    9.0996299   -5.6607142   -1.6146486  
H    7.6451516   -3.4917297   -6.0899041  
C    5.6357769   -2.1338820   -4.7226681  
C    5.4138135   -1.6803978   -5.9832865  
C    4.2861631   -0.7812071   -5.9147650  
C    3.8663694   -0.7477409   -4.5007476  
N    4.7243816   -1.5891316   -3.8308469  
C    2.8310662   -0.0116220   -4.0232752  
C    2.0799741    0.8018234   -4.9649241  
O    1.1306870    1.4996774   -4.6330289  
C    2.5068722    0.7814483   -6.4673046  
O    1.8817989    1.4620144   -7.2694107  
C    3.6400749   -0.0517382   -6.8616450  
H    5.9757709   -1.9456740   -6.8610368  
H    3.9294080   -0.0601118   -7.9037296  
H    4.6945085   -1.7768209   -2.8454903  
C    3.3041270    0.0001177   -1.5420434  
C    2.5845372   -0.0004781   -0.3695856  
C    1.2040006   -0.0000008   -0.7283592  
C    1.1422371    0.0006037   -2.1454375  
N    2.4348636    0.0026109   -2.6077467  
C   -0.0655183    0.0008798   -2.8497920  
C   -1.2321770    0.0002326   -2.1101400  
O   -2.4392818    0.0001147   -2.7472520  
C   -1.1911210   -0.0000007   -0.6955263  
O   -2.4371527   -0.0002320   -0.1032859  
C    0.0000000    0.0000000    0.0000000  
H    3.0031533   -0.0000660    0.6222577  
H   -0.1193553    0.0014844   -3.9297472  
H   -3.1132989   -0.0000648   -2.0551784  
H   -2.3200282   -0.0004069    0.8516410  
H    4.3686624    0.0004070   -1.7024294  
C    2.5528530    2.1414826    2.8079335  
C    2.0663498    1.7338582    4.0032312  
C    0.9804344    0.8229586    3.6752840  
C    0.9495562    0.7966882    2.1971295  
N    1.8690446    1.5676019    1.6831036  
C    0.0000000    0.0000000    1.4700000  
C   -0.8785127   -0.7372425    2.1869543  
O   -1.8187535   -1.5261249    1.6395491  
C   -0.8723269   -0.7321790    3.6796354  
O   -1.7010379   -1.4274584    4.2670412  
C    0.1115397    0.0933559    4.4024240  
H    2.4028853    2.0163452    4.9860947  
H   -2.2861435   -1.9184361    2.3990168  
H    0.0832434    0.0693689    5.4835595  
H    3.3664920    2.8238276    2.6198634  
