60

C    4.3307342   -2.1193161   -1.2711413  
C    5.3837979   -1.6206416   -2.0024729  
C    4.8313690   -0.7469989   -2.9854123  
C    3.4246653   -0.7523142   -2.8035248  
N    3.1543583   -1.5972493   -1.7558431  
C    2.5562222   -0.0001542   -3.6002998  
C    3.1180978    0.7716627   -4.5986849  
O    2.3161062    1.5258167   -5.4055768  
C    4.5193625    0.7898944   -4.7960189  
O    4.9243886    1.6076651   -5.8306918  
C    5.3766838    0.0479121   -4.0105326  
H    6.4222902   -1.8582772   -1.8473667  
H    2.2404344   -1.7936472   -1.3895758  
H    2.9018499    1.9798776   -6.0252520  
H    5.8831622    1.5626521   -5.8964976  
H    6.4456543    0.0819115   -4.1855311  
H    4.3255769   -2.8071988   -0.4430416  
C    0.0000000    0.0000000    0.0000000  
C    1.0541691   -0.0001719   -0.8560389  
C    0.5103143   -0.0000448   -2.1935953  
C   -0.9576364    0.0002464   -2.0455731  
N   -1.2018458   -0.0001389   -0.6915972  
C   -1.8348303    0.0008322   -3.0810611  
C   -1.2972837    0.0009745   -4.4314603  
O   -2.0050658    0.0014276   -5.4301322  
C    0.2542633    0.0004194   -4.6117570  
O    0.7184681    0.0002269   -5.7439118  
C    1.0974560    0.0000881   -3.4189126  
H    2.0940754   -0.0005481   -0.5817976  
H   -2.1128195    0.0014913   -0.2706792  
C   -4.4924713    2.0950378   -0.2442185  
C   -3.4157278    1.6323166   -0.9302115  
C   -3.9167325    0.7362616   -1.9455512  
C   -5.3841431    0.7147470   -1.7937850  
N   -5.6689494    1.5587226   -0.7452237  
C   -6.2266181   -0.0146660   -2.5683153  
C   -5.6495847   -0.8333368   -3.6215696  
O   -6.3243537   -1.5259649   -4.3720719  
C   -4.0978587   -0.8259951   -3.8001713  
O   -3.6005708   -1.5115244   -4.6833558  
C   -3.2941065    0.0012879   -2.9038247  
H   -2.3878032    1.8892261   -0.7458683  
H   -7.3001855   -0.0161877   -2.4404004  
H   -4.5254896    2.7825507    0.5853150  
H   -6.5897792    1.7563621   -0.3987306  
C    1.0965515   -0.0001358    2.2710304  
C    0.0000000    0.0000000    1.4700000  
C   -1.1546562   -0.0001469    2.3369512  
C   -0.6372014   -0.0003519    3.7186280  
N    0.7342871   -0.0007337    3.6095011  
C   -1.4147739   -0.0001353    4.8308716  
C   -2.8576048    0.0001048    4.6554461  
O   -3.6427778    0.0002493    5.5944904  
C   -3.4275839    0.0000726    3.2011665  
O   -4.6406829   -0.0000333    3.0410059  
C   -2.4891866    0.0001091    2.0816745  
H   -1.0150448   -0.0001615    5.8354244  
H   -2.8919121    0.0002919    1.0779135  
H    2.1388271   -0.0000662    1.9961646  
H    1.3735872    0.0006099    4.3830260  
