62

C   -0.0156474    0.7226014   -7.3459860  
C   -0.9574097    0.4746319   -8.3176150  
C   -0.3679992   -0.4330538   -9.2467555  
C    0.9454418   -0.7059193   -8.7859473  
N    1.1276118    0.0132744   -7.6308744  
C    1.8197017   -1.5649708   -9.4586196  
C    1.3595639   -2.1596317  -10.6174253  
O    2.1718008   -3.0074180  -11.3135161  
C    0.0524120   -1.8996154  -11.0934111  
O   -0.2572495   -2.5672219  -12.2603534  
C   -0.8105138   -1.0520404  -10.4304617  
H   -1.9470417    0.8969689   -8.3530104  
H    2.8219981   -1.7769696   -9.1126992  
H    1.6628521   -3.3068486  -12.0780928  
H   -1.1564614   -2.3367628  -12.5131599  
H   -1.8059421   -0.8720355  -10.8193043  
H   -0.0684884    1.3504365   -6.4730659  
C    1.7334697    0.0049246   -3.2500361  
C    3.1090789    0.0036163   -3.2628665  
C    3.5126979    0.0054092   -4.6309632  
C    2.3299047    0.0080880   -5.4138543  
N    1.2677979    0.0057680   -4.5440599  
C    2.3483171    0.0106849   -6.8118679  
C    3.5832498    0.0108823   -7.4308328  
O    3.6589634    0.0137197   -8.7936511  
C    4.7745974    0.0078595   -6.6669617  
O    5.9240667    0.0080595   -7.4298934  
C    4.7571861    0.0050237   -5.2877534  
H    3.7435741    0.0005105   -2.3931542  
H    0.2997751    0.0173991   -4.8101012  
H    4.5993496    0.0130379   -9.0148720  
H    6.6822228    0.0059427   -6.8376106  
H    5.6860773    0.0025625   -4.7295117  
C    1.1319247    0.0015655   -0.8009267  
C    0.7969916    0.0034943   -2.1169401  
C   -0.6453337    0.0035710   -2.1842668  
C   -1.1266832    0.0015433   -0.7896026  
N    0.0000000    0.0000000    0.0000000  
C   -2.4346130    0.0013964   -0.4276294  
C   -3.4350109    0.0031408   -1.4820183  
O   -4.6384610    0.0030973   -1.2583915  
C   -2.9478956    0.0050505   -2.9661075  
O   -3.7809378    0.0062218   -3.8623775  
C   -1.5113821    0.0053090   -3.2312122  
H   -2.7664565    0.0000232    0.6013446  
H   -1.1823527    0.0068407   -4.2614846  
H    2.1104317    0.0009391   -0.3488056  
C    0.8400945    0.7047457    2.2710304  
C    0.0000000    0.0000000    1.4700000  
C   -0.8844236   -0.7423113    2.3369512  
C   -0.4878984   -0.4098547    3.7186280  
N    0.5629682    0.4714286    3.6095011  
C   -1.0836927   -0.9095027    4.8308716  
C   -2.1891196   -1.8367527    4.6554461  
O   -2.7906899   -2.3413415    5.5944904  
C   -2.6257283   -2.2031529    3.2011665  
O   -3.5549479   -2.9829990    3.0410059  
C   -1.9068976   -1.5999348    2.0816745  
H   -0.7774656   -0.6525820    5.8354244  
H   -2.2155208   -1.8586617    1.0779135  
H    1.6384792    1.3747609    1.9961646  
H    1.0518368    0.8833920    4.3830260  
