62

C    9.5797638   -0.7093829    1.9401825  
C   10.9311438   -0.4592798    2.0009118  
C   11.2344849    0.4486123    0.9434071  
C   10.0182581    0.7193993    0.2656207  
N    9.0339157   -0.0011769    0.8952693  
C    9.9408234    1.5780496   -0.8350667  
C   11.1124543    2.1744388   -1.2590714  
O   11.0936897    3.0219237   -2.3288517  
C   12.3358530    1.9165088   -0.5960587  
O   13.4136909    2.5856663   -1.1381236  
C   12.4130327    1.0693305    0.4896941  
H   11.6144482   -0.8803635    2.7183914  
H    9.0169919    1.7884678   -1.3560870  
H   12.0030249    3.3227475   -2.4548596  
H   14.1994986    2.3565675   -0.6325303  
H   13.3643920    0.8909406    0.9771072  
H    8.9623139   -1.3380284    2.5586642  
C    6.5597224   -0.0008210    1.3835014  
C    7.6114515   -0.0009111    0.5244666  
C    7.0637934   -0.0009868   -0.8115372  
C    5.5962696   -0.0009035   -0.6593386  
N    5.3559137   -0.0012035    0.6953271  
C    4.7161325   -0.0005435   -1.6923264  
C    5.2498348   -0.0004420   -3.0442500  
O    4.5392134   -0.0001857   -4.0409037  
C    6.8008623   -0.0007794   -3.2289604  
O    7.2618442   -0.0010041   -4.3624314  
C    7.6474457   -0.0008759   -2.0385199  
H    8.7203338   -0.0009043   -2.1750270  
H    6.5627896   -0.0007238    2.4614069  
H    4.4461411    0.0003272    1.1188348  
C    3.2573665   -0.0002920   -1.5109385  
C    2.5379463   -0.0001709   -0.3591964  
C    1.1435038    0.0000331   -0.7338500  
C    1.1092599   -0.0000083   -2.2088477  
N    2.4227553    0.0001909   -2.6182613  
C   -0.0265539   -0.0002524   -2.9515660  
C   -1.3003040   -0.0002640   -2.2514977  
O   -2.3786790   -0.0004133   -2.8306421  
C   -1.2877727    0.0000311   -0.6895603  
O   -2.3539959    0.0003306   -0.0892030  
C    0.0000000    0.0000000    0.0000000  
H    2.9384091   -0.0000367    0.6389234  
H   -0.0296303   -0.0004086   -4.0327229  
H    2.7280482   -0.0013407   -3.5742119  
C    0.8676693    0.7151171    2.2619005  
C    0.5875920    0.4624972    3.5848544  
C   -0.5048400   -0.4542819    3.6114698  
C   -0.8517165   -0.7276451    2.2635546  
N    0.0000000    0.0000000    1.4700000  
C   -1.8902865   -1.5946756    1.9108239  
C   -2.5912627   -2.1969500    2.9375057  
O   -3.6148162   -3.0527051    2.6493466  
C   -2.2603868   -1.9365747    4.2886322  
O   -3.0513550   -2.6123276    5.1947621  
C   -1.2361111   -1.0811317    4.6373480  
H    1.1060808    0.8876438    4.4271209  
H   -2.1597133   -1.8070987    0.8854031  
H   -3.9636755   -3.3565188    3.4974381  
H   -2.7621927   -2.3810384    6.0827341  
H   -1.0058879   -0.9010589    5.6809233  
H    1.6167816    1.3499334    1.8205408  
