62

C   -8.4607982    1.0790398   -1.7125390  
C   -7.7039669   -0.0209482   -2.0437484  
C   -8.5900550   -1.1378388   -2.0885132  
C   -9.8857000   -0.6541047   -1.7735058  
N   -9.7712851    0.6953716   -1.5489164  
C  -11.0110052   -1.4824086   -1.7246083  
C  -10.8250256   -2.8234154   -1.9990003  
O  -11.8898457   -3.6766796   -1.9656129  
C   -9.5399945   -3.3250766   -2.3149846  
O   -9.5185635   -4.6820596   -2.5629366  
C   -8.4293597   -2.5085616   -2.3631411  
H  -10.5290654    1.3111167   -1.3152327  
H  -12.0011592   -1.1199242   -1.4850204  
H  -11.5450003   -4.5523299   -2.1837481  
H   -8.6145536   -4.9395180   -2.7680804  
H   -7.4577292   -2.9214733   -2.6079197  
H   -8.1692513    2.1066770   -1.5786709  
C   -4.3991018    2.0926374   -0.0704357  
C   -3.3610091    1.6305297   -0.8140045  
C   -3.9159994    0.7341916   -1.8006143  
C   -5.3729686    0.7118419   -1.5692436  
N   -5.6007885    1.5556536   -0.5067139  
C   -6.2559170   -0.0180488   -2.2968188  
C   -5.7365716   -0.8363894   -3.3799320  
O   -6.4507770   -1.5293999   -4.0926369  
C   -4.1968644   -0.8281649   -3.6426855  
O   -3.7479707   -1.5134097   -4.5516379  
C   -3.3460097   -0.0004262   -2.7913647  
H   -2.3247243    1.8880237   -0.6858470  
H   -4.3873336    2.7801298    0.7596880  
H   -6.5015168    1.7527688   -0.1106326  
C    0.0000000    0.0000000    0.0000000  
C    1.0662919   -0.0000103   -0.8334272  
C    0.4961868    0.0000066   -2.1718889  
C   -0.9663860   -0.0000849   -1.9540248  
N   -1.2632775   -0.0000084   -0.6828659  
C   -1.8985364   -0.0000515   -3.0477258  
C   -1.3925778    0.0004567   -4.3020543  
O   -2.1456385    0.0005412   -5.4151314  
C    0.0786229    0.0009326   -4.5544999  
O    0.4683756    0.0012594   -5.7221104  
C    1.0143162    0.0008443   -3.4159034  
H    2.1107195    0.0000631   -0.5721869  
H   -1.5042277    0.0009692   -6.1484420  
H    2.0724151    0.0013151   -3.6409746  
C    3.3041272   -0.0001177    3.0120429  
C    2.5845372    0.0004780    1.8395852  
C    1.2040006    0.0000008    2.1983588  
C    1.1422373   -0.0006037    3.6154372  
N    2.4348639   -0.0026109    4.0777464  
C   -0.0655181   -0.0008797    4.3197917  
C   -1.2321768   -0.0002324    3.5801400  
O   -2.4392816   -0.0001146    4.2172520  
C   -1.1911209    0.0000007    2.1655264  
O   -2.4371527    0.0002320    1.5732860  
C    0.0000000    0.0000000    1.4700000  
H    3.0031534    0.0000661    0.8477417  
H    2.7054629    0.0071099    5.0445261  
H   -0.1193549   -0.0014844    5.3997470  
H   -3.1132988    0.0000648    3.5251786  
H   -2.3200282    0.0004071    0.6183591  
H    4.3686625   -0.0004071    3.1724291  
