62

C    7.0826286   -3.0706321   -3.3675509  
C    8.1818688   -3.7483969   -3.8416519  
C    8.6986699   -4.5150774   -2.7555038  
C    7.8663878   -4.2629534   -1.6349390  
N    6.8963718   -3.3802766   -2.0406076  
C    8.0799196   -4.8540835   -0.3860356  
C    9.1530061   -5.7156565   -0.2662337  
O    9.4070319   -6.3204178    0.9307412  
C    9.9950348   -5.9795969   -1.3726424  
O   11.0206235   -6.8590734   -1.0932977  
C    9.7851372   -5.3965774   -2.6049405  
H    8.5648541   -3.6957402   -4.8464123  
H    6.1559753   -3.0256878   -1.4626274  
H    7.4493275   -4.6659480    0.4719627  
H   10.1888138   -6.8720696    0.7974645  
H   11.5413751   -6.9828378   -1.8927373  
H   10.4470797   -5.6177890   -3.4340218  
C    6.1745028   -2.1408797   -4.0544039  
C    6.2180773   -1.7334911   -5.3442551  
C    5.0926408   -0.8229047   -5.4882170  
C    4.4611847   -0.7965389   -4.1513732  
N    5.0910258   -1.5671308   -3.3066974  
C    3.2973506   -0.0000934   -3.8752374  
C    2.7877443    0.7368259   -4.8884434  
O    1.7057650    1.5254560   -4.7725804  
C    3.4025812    0.7316581   -6.2486307  
O    2.8855803    1.4266387   -7.1232350  
C    4.5959740   -0.0936230   -6.5067952  
H    6.9265059   -2.0159437   -6.1041411  
H    1.5889228    1.9175682   -5.6567459  
H    5.0113651   -0.0697219   -7.5053484  
C    3.3321174    0.0004714   -1.3379332  
C    2.6974186    0.0000115   -2.5332308  
C    1.2800441   -0.0002119   -2.2052838  
C    1.2395035    0.0000643   -0.7271293  
N    2.4394063    0.0005458   -0.2131034  
C    0.0000000    0.0000000    0.0000000  
C   -1.1468701    0.0000634   -0.7169542  
O   -2.3742201    0.0000072   -0.1695492  
C   -1.1388767    0.0001606   -2.2096354  
O   -2.2206229    0.0000903   -2.7970413  
C    0.1454526    0.0001815   -2.9324239  
H   -2.9844344    0.0001023   -0.9290168  
H    0.1083580    0.0003680   -4.0135594  
H    4.3940040    0.0007617   -1.1498630  
C    2.5311839    2.1237619    3.0120429  
C    1.9795631    1.6616747    1.8395852  
C    0.9223175    0.7739173    2.1983588  
C    0.8753926    0.7337535    3.6154372  
N    1.8668922    1.5631002    4.0777464  
C   -0.0496243   -0.0427881    4.3197917  
C   -0.9437528   -0.7922060    3.5801400  
O   -1.8685244   -1.5680278    4.2172520  
C   -0.9124520   -0.7656372    2.1655264  
O   -1.8671164   -1.5663939    1.5732860  
C    0.0000000    0.0000000    1.4700000  
H    2.3005065    1.9304404    0.8477417  
H    2.0679347    1.7444845    5.0445261  
H   -0.0904770   -0.0778569    5.3997470  
H   -2.3849669   -2.0011402    3.5251786  
H   -1.7775064   -1.4909735    0.6183591  
H    3.3468514    2.8078103    3.1724291  
