60

C    5.8722760   -3.2756680   -9.2791484  
C    6.1304396   -2.4855935  -10.3753233  
C    5.7487099   -1.1555489  -10.0291089  
C    5.2607844   -1.1957569   -8.6978550  
N    5.3479821   -2.4982892   -8.2730925  
C    4.7958797   -0.0599119   -8.0281473  
C    4.8243294    1.1384049   -8.7147367  
O    4.3824838    2.2784607   -8.1080585  
C    5.3071723    1.1987061  -10.0436621  
O    5.2707562    2.4644106  -10.5913935  
C    5.7657154    0.0785196  -10.7050606  
H    6.5421083   -2.8262138  -11.3099355  
H    5.0835451   -2.8310401   -7.3635149  
H    4.4876148    2.9895568   -8.7534679  
H    5.6136073    2.4173227  -11.4890795  
H    6.1295125    0.1555706  -11.7229952  
H    6.0193131   -4.3324555   -9.1358370  
C    5.9676388   -2.1403202   -4.2647280  
C    5.9574583   -1.7327294   -5.5552103  
C    4.8270664   -0.8220463   -5.6520101  
C    4.2518653   -0.7958519   -4.2900112  
N    4.9163000   -1.5666196   -3.4724335  
C    3.1006054    0.0006263   -3.9654951  
C    2.5492762    0.7377402   -4.9564714  
O    1.4731211    1.5264226   -4.7955003  
C    3.1069015    0.7327486   -6.3410976  
O    2.5539560    1.4279024   -7.1932907  
C    4.2884409   -0.0925700   -6.6488938  
H    6.6335875   -2.0151072   -6.3439990  
H    1.3195669    1.9186832   -5.6739683  
H    6.6542207   -2.8225235   -3.7891473  
C    3.2798083    0.0005857   -1.4499652  
C    2.5571142    0.0005565   -2.5996556  
C    1.1637432    0.0001548   -2.2210361  
C    1.1336964   -0.0000200   -0.7459473  
N    2.4483512   -0.0001428   -0.3402723  
C    0.0000000    0.0000000    0.0000000  
C   -1.2757368   -0.0000186   -0.6964415  
O   -2.3524598   -0.0000639   -0.1142311  
C   -1.2676497   -0.0000872   -2.2584083  
O   -2.3355766   -0.0004101   -2.8557295  
C    0.0181558    0.0001758   -2.9516296  
H    0.0150788    0.0003319   -4.0331631  
H    4.3498547    0.0008612   -1.3200026  
H    2.7563626    0.0012823    0.6148059  
C    0.8175213    0.6860729    2.3021913  
C    0.0000000    0.0000000    1.4700000  
C   -0.8887526   -0.7456559    2.3478473  
C   -0.4549825   -0.3816753    3.7138435  
N    0.5448156    0.4573574    3.6934124  
C   -1.0945674   -0.9182058    4.8835240  
C   -2.1210866   -1.7789155    4.6970523  
O   -2.8083856   -2.3554314    5.6976972  
C   -2.5824069   -2.1655116    3.3310774  
O   -3.5227682   -2.9541547    3.2362962  
C   -1.9100805   -1.6015804    2.1470656  
H   -0.7567140   -0.6349833    5.8697035  
H   -3.4728268   -2.9124471    5.2533954  
H   -2.2742832   -1.9066565    1.1752040  
H    1.6189533    1.3585343    2.0405121  
