60

C    4.7131956    0.0202321   -8.0825703  
C    5.7884638   -0.6552006   -8.6117743  
C    5.8710497   -0.2927674   -9.9888802  
C    4.8111377    0.6144395  -10.2447862  
N    4.1265499    0.7811056   -9.0665762  
C    4.5871298    1.1800750  -11.5036214  
C    5.4489771    0.8236278  -12.5226119  
O    5.2760684    1.3467167  -13.7714089  
C    6.5121239   -0.0802772  -12.2870450  
O    7.2822684   -0.3355144  -13.4028729  
C    6.7335456   -0.6388866  -11.0454915  
H    6.4332492   -1.3273908   -8.0719553  
H    3.3290505    1.3773152   -8.9380861  
H    3.7810255    1.8720068  -11.7051877  
H    5.9747939    0.9721814  -14.3234705  
H    7.9769495   -0.9543892  -13.1578908  
H    7.5560051   -1.3284390  -10.8953052  
C    5.9779326   -2.0928591   -4.4468277  
C    5.0400352   -1.6304885   -3.5804345  
C    4.1859904   -0.7341816   -4.3234534  
C    4.7069274   -0.7121369   -5.7036455  
N    5.7934746   -1.5560773   -5.7119683  
C    4.1728105    0.0176375   -6.7155015  
C    3.0072078    0.8361656   -6.4258171  
O    2.4535609    1.5290919   -7.2693982  
C    2.4388222    0.8282646   -4.9709355  
O    1.4580061    1.5136694   -4.7150426  
C    3.1006054    0.0006263   -3.9654951  
H    4.9561723   -1.8877887   -2.5395805  
H    6.7884827   -2.7804145   -4.2674807  
H    6.3633296   -1.7534007   -6.5140749  
C    3.2798083    0.0005857   -1.4499652  
C    2.5571142    0.0005565   -2.5996556  
C    1.1637432    0.0001548   -2.2210361  
C    1.1336964   -0.0000200   -0.7459473  
N    2.4483512   -0.0001428   -0.3402723  
C    0.0000000    0.0000000    0.0000000  
C   -1.2757368   -0.0000186   -0.6964415  
O   -2.3524598   -0.0000639   -0.1142311  
C   -1.2676497   -0.0000872   -2.2584083  
O   -2.3355766   -0.0004101   -2.8557295  
C    0.0181558    0.0001758   -2.9516296  
H    0.0150788    0.0003319   -4.0331631  
H    4.3498547    0.0008612   -1.3200026  
H    2.7563626    0.0012823    0.6148059  
C    2.3971438    2.0127888    3.1728260  
C    1.9431056    1.6308205    1.9564670  
C    0.8496017    0.7127664    2.2356185  
C    0.7794028    0.6545384    3.7115134  
N    1.6840587    1.4146091    4.2663826  
C   -0.1885723   -0.1578550    4.3957118  
C   -1.0476298   -0.8789867    3.6398520  
O   -2.0015663   -1.6796266    4.1448486  
C   -1.0022026   -0.8410666    2.1483229  
O   -1.8147390   -1.5232959    1.5241687  
C    0.0000000    0.0000000    1.4700000  
H    2.3054237    1.9346118    0.9892483  
H   -0.2170646   -0.1815267    5.4753125  
H   -2.4487139   -2.0549881    3.3649027  
H    3.2048689    2.6911772    3.3971983  
