60

C   -8.4886136    0.8945838   -1.9168130  
C   -9.7965856    0.4922097   -1.7761924  
C   -9.8304478   -0.9106318   -2.0321000  
C   -8.5021477   -1.3123407   -2.3256570  
N   -7.7131165   -0.1915623   -2.2488359  
C   -8.1610896   -2.6341337   -2.6278684  
C   -9.1794445   -3.5674601   -2.6335464  
O   -8.9019751   -4.8724306   -2.9217763  
C  -10.5110792   -3.1860213   -2.3435951  
O  -11.4110958   -4.2306155   -2.3898413  
C  -10.8483123   -1.8821733   -2.0456358  
H  -10.6246333    1.1313918   -1.5216814  
H   -7.1506505   -2.9467008   -2.8526262  
H   -9.7416567   -5.3475386   -2.8720427  
H  -12.2857603   -3.8878933   -2.1822197  
H  -11.8770337   -1.6199065   -1.8278552  
H   -8.0477543    1.8706724   -1.8079447  
C   -4.6051151    2.0113810   -0.1334484  
C   -3.4864975    1.6298262   -0.7927588  
C   -3.9518793    0.7119509   -1.8210703  
C   -5.4173875    0.6533628   -1.6328199  
N   -5.8061459    1.4130851   -0.6450558  
C   -6.2597398   -0.1589839   -2.4668592  
C   -5.6651263   -0.8797267   -3.4447650  
O   -6.3285769   -1.6802773   -4.2962297  
C   -4.1885397   -0.8414367   -3.6601392  
O   -3.7155084   -1.5233211   -4.5692574  
C   -3.3460097   -0.0004262   -2.7913647  
H   -2.4709784    1.9337813   -0.6045895  
H   -5.6384844   -2.0553379   -4.8726450  
H   -4.6853284    2.6895276    0.7012110  
C    0.0000000    0.0000000    0.0000000  
C    1.0662919   -0.0000103   -0.8334272  
C    0.4961868    0.0000066   -2.1718889  
C   -0.9663860   -0.0000849   -1.9540248  
N   -1.2632775   -0.0000084   -0.6828659  
C   -1.8985364   -0.0000515   -3.0477258  
C   -1.3925778    0.0004567   -4.3020543  
O   -2.1456385    0.0005412   -5.4151314  
C    0.0786229    0.0009326   -4.5544999  
O    0.4683756    0.0012594   -5.7221104  
C    1.0143162    0.0008443   -3.4159034  
H    2.1107195    0.0000631   -0.5721869  
H   -1.5042277    0.0009692   -6.1484420  
H    2.0724151    0.0013151   -3.6409746  
C    1.0672568    0.0000697    2.3021913  
C    0.0000000    0.0000000    1.4700000  
C   -1.1601224    0.0000736    2.3478473  
C   -0.5938729    0.0000769    3.7138435  
N    0.7113367    0.0001554    3.6934124  
C   -1.4286986    0.0001879    4.8835240  
C   -2.7683114    0.0006799    4.6970523  
O   -3.6653903    0.0008304    5.6976972  
C   -3.3702025    0.0010610    3.3310774  
O   -4.5974910    0.0013779    3.2362962  
C   -2.4926826    0.0008943    2.1470656  
H   -0.9878360   -0.0000190    5.8697035  
H   -4.5324246    0.0012261    5.2533954  
H   -2.9677772    0.0012974    1.1752040  
H    2.1134392    0.0000545    2.0405121  
