60

C   -4.3431523    2.1195885   -4.4528660  
C   -5.5657082    1.6200085   -4.8378897  
C   -5.3299195    0.7460989   -5.9402897  
C   -3.9327453    0.7521923   -6.1848152  
N   -3.3637284    1.5978270   -5.2651739  
C   -3.3399630    0.0000194   -7.2034580  
C   -4.1727570   -0.7726108   -7.9893808  
O   -3.6464279   -1.5268155   -8.9979281  
C   -5.5693227   -0.7916266   -7.7612160  
O   -6.2631173   -1.6101550   -8.6283975  
C   -6.1548357   -0.0496322   -6.7566535  
H   -6.5112869    1.8572267   -4.3811602  
H   -2.3823612    1.7948653   -5.1872319  
H   -4.3896259   -1.9814961   -9.4152859  
H   -7.1981359   -1.5656409   -8.4062191  
H   -7.2274802   -0.0842430   -6.6059422  
H   -4.0924785    2.8079234   -3.6639960  
C    0.0139742    0.0003878   -4.4216236  
C    1.0778908    0.0006076   -5.2580812  
C    0.5039801    0.0007587   -6.5949153  
C   -0.9579669    0.0004851   -6.3728912  
N   -1.2512409    0.0003478   -5.1008931  
C   -1.8932251    0.0005802   -7.4639358  
C   -1.3908370    0.0013214   -8.7196988  
O   -2.1470611    0.0014888   -9.8306290  
C    0.0796395    0.0019852   -8.9763293  
O    0.4660689    0.0025205  -10.1450435  
C    1.0185682    0.0018291   -7.8403984  
H    2.1230574    0.0007509   -4.9998131  
H   -1.5077394    0.0020886  -10.5657605  
H    2.0760226    0.0024414   -8.0684786  
C    3.2798085    0.0005856   -1.4499646  
C    2.5571146    0.0005565   -2.5996553  
C    1.1637435    0.0001548   -2.2210360  
C    1.1336964   -0.0000200   -0.7459470  
N    2.4483515   -0.0001429   -0.3402716  
C    0.0000000    0.0000000    0.0000000  
C   -1.2757368   -0.0000187   -0.6964415  
O   -2.3524594   -0.0000640   -0.1142314  
C   -1.2676495   -0.0000873   -2.2584081  
O   -2.3355761   -0.0004101   -2.8557295  
C    0.0181563    0.0001759   -2.9516296  
H    2.9547358    0.0006075   -3.5989104  
H    4.3498547    0.0008611   -1.3200019  
H    2.7563628    0.0012823    0.6148064  
C    0.8681109    0.7263879    2.2709268  
C    0.6127770    0.5096195    3.5869401  
C   -0.4920590   -0.4175482    3.6542670  
C   -0.8620974   -0.7254003    2.2596025  
N    0.0000000    0.0000000    1.4700000  
C   -1.8641242   -1.5660088    1.8976294  
C   -2.6293522   -2.2103885    2.9520183  
O   -3.5512764   -2.9839180    2.7283916  
C   -2.2549728   -1.8987399    4.4361073  
O   -2.8923672   -2.4351063    5.3323774  
C   -1.1543735   -0.9755647    4.7012123  
H    1.1382914    0.9492124    4.4159191  
H   -2.1192137   -1.7782617    0.8686553  
H   -0.9013378   -0.7652422    5.7314848  
H    1.6172880    1.3558399    1.8188057  
