60

C   -4.4234274    2.1222536   -0.0293805  
C   -3.3650429    1.6606157   -0.7771636  
C   -3.9025167    0.7730545   -1.7559166  
C   -5.3060547    0.7325422   -1.5550032  
N   -5.5885352    1.5615014   -0.4978137  
C   -6.1607758   -0.0439273   -2.3432513  
C   -5.5882383   -0.7929132   -3.3529036  
O   -6.3767050   -1.5686456   -4.1526367  
C   -4.1898497   -0.7659922   -3.5687764  
O   -3.7730107   -1.5663378   -4.6123448  
C   -3.3460098   -0.0004261   -2.7913644  
H   -2.3324827    1.9295467   -0.6340274  
H   -6.5054757    1.7425841   -0.1311936  
H   -7.2312993   -0.0792603   -2.1951496  
H   -5.7852143   -2.0014411   -4.7819951  
H   -2.8171053   -1.4906985   -4.6906199  
H   -4.4392468    2.8060390    0.8019717  
C    0.0000000    0.0000000    0.0000000  
C    1.0662918   -0.0000103   -0.8334272  
C    0.4961866    0.0000066   -2.1718888  
C   -0.9663862   -0.0000848   -1.9540246  
N   -1.2632777   -0.0000084   -0.6828658  
C   -1.8985367   -0.0000514   -3.0477256  
C   -1.3925783    0.0004569   -4.3020543  
O   -2.1456389    0.0005417   -5.4151310  
C    0.0786225    0.0009329   -4.5544999  
O    0.4683752    0.0012595   -5.7221105  
C    1.0143159    0.0008446   -3.4159033  
H    2.1107193    0.0000632   -0.5721869  
H   -1.5042282    0.0009699   -6.1484418  
C    3.4106833   -0.7032174   -3.0670130  
C    2.4521470    0.0014842   -3.7217487  
C    3.1158547    0.7444933   -4.7668637  
C    4.5499121    0.4124942   -4.6666327  
N    4.6621231   -0.4692175   -3.6164504  
C    5.5136810    0.9128421   -5.4805775  
C    5.1117766    1.8404164   -6.5249021  
O    5.9049330    2.3456318   -7.3084593  
C    3.5983532    2.2063420   -6.6492190  
O    3.2480932    2.9864553   -7.5244338  
C    2.6531300    1.6023764   -5.7134679  
H    6.5600536    0.6562475   -5.3901716  
H    1.6070327    1.8607783   -5.8063817  
H    3.3081776   -1.3736416   -2.2292101  
H    5.5205782   -0.8810215   -3.2994015  
C    1.0965515   -0.0001358    2.2710304  
C    0.0000000    0.0000000    1.4700000  
C   -1.1546562   -0.0001469    2.3369512  
C   -0.6372014   -0.0003519    3.7186280  
N    0.7342871   -0.0007337    3.6095011  
C   -1.4147739   -0.0001353    4.8308716  
C   -2.8576048    0.0001048    4.6554461  
O   -3.6427778    0.0002493    5.5944904  
C   -3.4275839    0.0000726    3.2011665  
O   -4.6406829   -0.0000333    3.0410059  
C   -2.4891866    0.0001091    2.0816745  
H   -1.0150448   -0.0001615    5.8354244  
H   -2.8919121    0.0002919    1.0779135  
H    2.1388271   -0.0000662    1.9961646  
H    1.3735872    0.0006099    4.3830260  
