64

C   -3.6085746    0.7115101   -8.2365985  
C   -4.7753902    0.4618397   -8.9211962  
C   -4.4547796   -0.4468603   -9.9728957  
C   -3.0657782   -0.7185630   -9.8791925  
N   -2.5823534    0.0022674   -8.8155565  
C   -2.4022184   -1.5781652  -10.7598515  
C   -3.1546107   -2.1745819  -11.7530139  
O   -2.5570829   -3.0229759  -12.6396937  
C   -4.5415943   -1.9157465  -11.8630072  
O   -5.1510900   -2.5850580  -12.9041028  
C   -5.1968190   -1.0676294  -10.9947317  
H   -5.7388634    0.8837225   -8.6915701  
H   -1.3437874   -1.7892846  -10.6938588  
H   -3.2514748   -3.3236495  -13.2402598  
H   -6.0853308   -2.3553101  -12.9079087  
H   -6.2600673   -0.8885591  -11.1038832  
H   -3.4268959    1.3405038   -7.3820115  
C   -0.8287671    0.0000935   -4.7555305  
C    0.4934745   -0.0006678   -5.1351932  
C    0.5171458   -0.0005603   -6.5613909  
C   -0.8317452    0.0005740   -7.0000447  
N   -1.6230471   -0.0010050   -5.8782354  
C   -1.1872839    0.0012869   -8.3522210  
C   -0.1624549    0.0011536   -9.2784513  
O   -0.4533755    0.0021781  -10.6120098  
C    1.1896012   -0.0003469   -8.8604092  
O    2.0936294   -0.0007075   -9.9025607  
C    1.5410839   -0.0013238   -7.5266238  
H    1.3371559   -0.0023365   -4.4664687  
H   -2.6269692    0.0098689   -5.8761611  
H    0.3938019    0.0015829  -11.0762893  
H    2.9824057   -0.0017119   -9.5342134  
H    2.5853074   -0.0026485   -7.2366685  
C    1.0672566   -0.0000698   -0.8321912  
C    0.0000000    0.0000000    0.0000000  
C   -1.1601226   -0.0000736   -0.8778472  
C   -0.5938732   -0.0000770   -2.2438435  
N    0.7113365   -0.0001555   -2.2234123  
C   -1.4286989   -0.0001880   -3.4135239  
C   -2.7683117   -0.0006800   -3.2270522  
O   -3.6653907   -0.0008306   -4.2276967  
C   -3.3702026   -0.0010611   -1.8610771  
O   -4.5974909   -0.0013781   -1.7662957  
C   -2.4926826   -0.0008944   -0.6770655  
H   -4.5324249   -0.0012263   -3.7833950  
H   -2.9677773   -0.0012975    0.2947963  
H    2.1134390   -0.0000546   -0.5705121  
C    0.8676693    0.7151171    2.2619005  
C    0.5875920    0.4624972    3.5848544  
C   -0.5048400   -0.4542819    3.6114698  
C   -0.8517165   -0.7276451    2.2635546  
N    0.0000000    0.0000000    1.4700000  
C   -1.8902865   -1.5946756    1.9108239  
C   -2.5912627   -2.1969500    2.9375057  
O   -3.6148162   -3.0527051    2.6493466  
C   -2.2603868   -1.9365747    4.2886322  
O   -3.0513550   -2.6123276    5.1947621  
C   -1.2361111   -1.0811317    4.6373480  
H    1.1060808    0.8876438    4.4271209  
H   -2.1597133   -1.8070987    0.8854031  
H   -3.9636755   -3.3565188    3.4974381  
H   -2.7621927   -2.3810384    6.0827341  
H   -1.0058879   -0.9010589    5.6809233  
H    1.6167816    1.3499334    1.8205408  
