62

C    0.7633288   -0.6922943   -9.6224128  
C    0.2561371    0.5603401   -9.3652527  
C    0.7619305    1.4299824  -10.3764380  
C    1.5787280    0.6450500  -11.2300465  
N    1.5593073   -0.6381662  -10.7426076  
C    2.2423221    1.1761764  -12.3401536  
C    2.0781326    2.5241826  -12.5933311  
O    2.7031769    3.0942657  -13.6644699  
C    1.2675582    3.3239487  -11.7529972  
O    1.2045835    4.6474707  -12.1372725  
C    0.6128267    2.8007067  -10.6575203  
H    2.0400554   -1.4205165  -11.1485527  
H    2.8663994    0.5833049  -12.9945498  
H    2.4584874    4.0287960  -13.6578073  
H    0.6378263    5.1173639  -11.5179261  
H   -0.0011270    3.4380608  -10.0319651  
H    0.6214217   -1.6197697   -9.0945764  
C    0.2055739   -0.7043959   -5.1603477  
C   -0.8712826    0.0001710   -4.7267111  
C   -1.3726443    0.7423358   -5.8592585  
C   -0.4933182    0.4099879   -6.9964131  
N    0.4429031   -0.4710989   -6.5064486  
C   -0.6357676    0.9095501   -8.2501479  
C   -1.7278970    1.8365864   -8.4958973  
O   -1.9397494    2.3410839   -9.5908411  
C   -2.6713151    2.2028683   -7.3061057  
O   -3.5940523    2.9825347   -7.5008834  
C   -2.4172089    1.5997594   -6.0001417  
H   -3.0751238    1.8584033   -5.1816219  
H    0.8458871   -1.3742665   -4.6097462  
H    1.1831969   -0.8829509   -7.0443978  
C    1.0965514    0.0001359   -0.8010305  
C    0.0000000    0.0000000    0.0000000  
C   -1.1546563    0.0001470   -0.8669513  
C   -0.6372014    0.0003519   -2.2486282  
N    0.7342871    0.0007337   -2.1395014  
C   -1.4147739    0.0001352   -3.3608717  
C   -2.8576049   -0.0001048   -3.1854462  
O   -3.6427779   -0.0002494   -4.1244907  
C   -3.4275840   -0.0000725   -1.7311666  
O   -4.6406831    0.0000333   -1.5710060  
C   -2.4891867   -0.0001091   -0.6116744  
H   -2.8919122   -0.0002918    0.3920866  
H    2.1388272    0.0000663   -0.5261648  
H    1.3735872   -0.0006099   -2.9130262  
C    2.5311839    2.1237619    3.0120429  
C    1.9795631    1.6616747    1.8395852  
C    0.9223175    0.7739173    2.1983588  
C    0.8753926    0.7337535    3.6154372  
N    1.8668922    1.5631002    4.0777464  
C   -0.0496243   -0.0427881    4.3197917  
C   -0.9437528   -0.7922060    3.5801400  
O   -1.8685244   -1.5680278    4.2172520  
C   -0.9124520   -0.7656372    2.1655264  
O   -1.8671164   -1.5663939    1.5732860  
C    0.0000000    0.0000000    1.4700000  
H    2.3005065    1.9304404    0.8477417  
H    2.0679347    1.7444845    5.0445261  
H   -0.0904770   -0.0778569    5.3997470  
H   -2.3849669   -2.0011402    3.5251786  
H   -1.7775064   -1.4909735    0.6183591  
H    3.3468514    2.8078103    3.1724291  
