64

C    2.1189242    0.0763086   -7.5057825  
C    2.9367959    0.0653851   -6.3996929  
C    4.2813132    0.0698585   -6.8759845  
C    4.2208290    0.0840062   -8.2930473  
N    2.8931965    0.0856427   -8.6423396  
C    5.3634514    0.0921111   -9.0987394  
C    6.5894653    0.0861262   -8.4623173  
O    7.7372276    0.0939270   -9.2009594  
C    6.6703666    0.0716512   -7.0494969  
O    7.9627648    0.0668499   -6.5667698  
C    5.5435576    0.0633760   -6.2540346  
H    2.6051373    0.0543133   -5.3755481  
H    2.5403581    0.1051488   -9.5820773  
H    5.3240981    0.1027552  -10.1792673  
H    8.4683322    0.0875290   -8.5695258  
H    7.9282999    0.0570167   -5.6053543  
H    5.6368726    0.0521360   -5.1743851  
C   -1.2456296    0.0472577   -4.5828766  
C    0.0058406    0.0519623   -5.0980274  
C   -0.1823948    0.0659876   -6.5405497  
C   -1.6495595    0.0680022   -6.7249610  
N   -2.2780918    0.0571386   -5.5809245  
C   -2.2524138    0.0807975   -8.0293725  
C   -1.4270886    0.0915002   -9.1008472  
O   -1.8522588    0.1040211  -10.3756471  
C    0.0577061    0.0901661   -8.9474069  
O    0.7477518    0.1002116   -9.9666992  
C    0.6518706    0.0768900   -7.5988091  
H    0.9411980    0.0466700   -4.5649666  
H   -3.3275064    0.0817763   -8.1346573  
H   -1.0369298    0.1094347  -10.9089037  
C    1.1243418    0.0099155   -0.7919003  
C    0.7474093    0.0234033   -2.1148542  
C   -0.6787365    0.0234953   -2.1414700  
C   -1.1201738    0.0099357   -0.7935546  
N    0.0000000    0.0000000    0.0000000  
C   -2.4730811    0.0065398   -0.4408241  
C   -3.3971945    0.0173300   -1.4675058  
O   -4.7313507    0.0149490   -1.1793472  
C   -2.9763626    0.0305537   -2.8186325  
O   -4.0166449    0.0397860   -3.7247623  
C   -1.6418538    0.0336381   -3.1673481  
H    1.4178738    0.0310004   -2.9571209  
H   -2.8160170   -0.0039189    0.5845965  
H   -5.1938800    0.0234412   -2.0274384  
H   -3.6464643    0.0484782   -4.6127344  
H    2.1062469    0.0051381   -0.3505407  
C    0.8676693    0.7151171    2.2619005  
C    0.5875920    0.4624972    3.5848544  
C   -0.5048400   -0.4542819    3.6114698  
C   -0.8517165   -0.7276451    2.2635546  
N    0.0000000    0.0000000    1.4700000  
C   -1.8902865   -1.5946756    1.9108239  
C   -2.5912627   -2.1969500    2.9375057  
O   -3.6148162   -3.0527051    2.6493466  
C   -2.2603868   -1.9365747    4.2886322  
O   -3.0513550   -2.6123276    5.1947621  
C   -1.2361111   -1.0811317    4.6373480  
H    1.1060808    0.8876438    4.4271209  
H   -2.1597133   -1.8070987    0.8854031  
H   -3.9636755   -3.3565188    3.4974381  
H   -2.7621927   -2.3810384    6.0827341  
H   -1.0058879   -0.9010589    5.6809233  
H    1.6167816    1.3499334    1.8205408  
