60

C   -3.9849596    0.7194519   -1.9554403  
C   -3.2941075    0.0012873   -2.9038235  
C   -4.2599432   -0.7263565   -3.6603265  
C   -5.5339713   -0.4094414   -3.1233509  
N   -5.3307339    0.4693513   -2.0884424  
C   -6.7219956   -0.9483828   -3.6262728  
C   -6.6220979   -1.8229489   -4.6908535  
O   -7.7507709   -2.3779977   -5.2209800  
C   -5.3599666   -2.1517858   -5.2401317  
O   -5.4269547   -3.0368199   -6.2963369  
C   -4.1875175   -1.6206946   -4.7443178  
H   -6.0533077    0.8783790   -1.5240270  
H   -7.6961102   -0.7109762   -3.2213776  
H   -7.4604453   -2.9495358   -5.9436967  
H   -4.5328204   -3.2058806   -6.6086603  
H   -3.2354103   -1.8913641   -5.1855753  
H   -3.6241065    1.3891889   -1.1937339  
C    0.0000000    0.0000000    0.0000000  
C    1.0541688   -0.0001722   -0.8560392  
C    0.5103135   -0.0000454   -2.1935954  
C   -0.9576375    0.0002459   -2.0455728  
N   -1.2018462   -0.0001392   -0.6915966  
C   -1.8348315    0.0008316   -3.0810604  
C   -1.2972851    0.0009737   -4.4314603  
O   -2.0050681    0.0014265   -5.4301316  
C    0.2542617    0.0004185   -4.6117570  
O    0.7184664    0.0002257   -5.7439119  
C    1.0974549    0.0000874   -3.4189129  
H    2.0940751   -0.0005482   -0.5817983  
H   -2.1128195    0.0014911   -0.2706785  
C    3.4580094   -0.7268426   -2.8377771  
C    4.7324998   -0.5102420   -3.2535095  
C    4.6631571    0.4171278   -4.3580512  
C    3.2335486    0.7252813   -4.5531172  
N    2.5562209   -0.0001551   -3.6003007  
C    2.7508561    1.5661430   -5.5026773  
C    3.7028844    2.2104962   -6.3920511  
O    3.3673528    2.9842405   -7.2792038  
C    5.2217690    1.8985308   -6.2037126  
O    6.0326405    2.4348721   -6.9467376  
C    5.6204815    0.9750994   -5.1443944  
H    5.6199065   -0.9500731   -2.8343767  
H    1.6983092    1.7786148   -5.6288126  
H    6.6740638    0.7645581   -5.0204570  
H    3.1016690   -1.3563645   -2.0386445  
C    1.0672568    0.0000697    2.3021913  
C    0.0000000    0.0000000    1.4700000  
C   -1.1601224    0.0000736    2.3478473  
C   -0.5938729    0.0000769    3.7138435  
N    0.7113367    0.0001554    3.6934124  
C   -1.4286986    0.0001879    4.8835240  
C   -2.7683114    0.0006799    4.6970523  
O   -3.6653903    0.0008304    5.6976972  
C   -3.3702025    0.0010610    3.3310774  
O   -4.5974910    0.0013779    3.2362962  
C   -2.4926826    0.0008943    2.1470656  
H   -0.9878360   -0.0000190    5.8697035  
H   -4.5324246    0.0012261    5.2533954  
H   -2.9677772    0.0012974    1.1752040  
H    2.1134392    0.0000545    2.0405121  
