60

C    7.5948451   -2.1178269   -3.5453477  
C    8.8435868   -1.6189228   -3.8355301  
C    8.6935495   -0.7453356   -4.9530868  
C    7.3192748   -0.7509199   -5.3041764  
N    6.6809304   -1.5959550   -4.4306492  
C    6.8068101    0.0011169   -6.3655945  
C    7.6978513    0.7730851   -7.0855177  
O    7.2508690    1.5271289   -8.1317672  
C    9.0727811    0.7915857   -6.7507914  
O    9.8314937    1.6094808   -7.5624227  
C    9.5790841    0.0497250   -5.7039742  
H    9.7511923   -1.8563734   -3.3074550  
H    5.6963853   -1.7925395   -4.4282272  
H    8.0241299    1.9813280   -8.4909828  
H   10.7466700    1.5646485   -7.2690853  
H   10.6370039    0.0839306   -5.4713515  
H    7.2840176   -2.8057499   -2.7778149  
C    3.1006060    0.0006268   -3.9654947  
C    4.3965753    0.0006907   -4.3711275  
C    4.3857809    0.0007807   -5.8149828  
C    2.9671185    0.0007930   -6.2201829  
N    2.2396186    0.0002982   -5.0524356  
C    2.5349230    0.0012657   -7.5066168  
C    3.5336528    0.0015717   -8.5625879  
O    3.2452525    0.0019411   -9.7521779  
C    5.0419203    0.0013125   -8.1564675  
O    5.8918153    0.0012596   -9.0367734  
C    5.3843457    0.0010806   -6.7363982  
H    5.2614037    0.0004941   -3.7318422  
H    1.4895031    0.0013959   -7.7823117  
H    1.2375717    0.0017396   -4.9981503  
C    3.2798085    0.0005859   -1.4499648  
C    2.5571146    0.0005569   -2.5996553  
C    1.1637437    0.0001551   -2.2210359  
C    1.1336966   -0.0000198   -0.7459471  
N    2.4483513   -0.0001427   -0.3402720  
C    0.0000000    0.0000000    0.0000000  
C   -1.2757366   -0.0000185   -0.6964416  
O   -2.3524595   -0.0000640   -0.1142313  
C   -1.2676493   -0.0000870   -2.2584084  
O   -2.3355759   -0.0004098   -2.8557296  
C    0.0181563    0.0001763   -2.9516295  
H    0.0150795    0.0003323   -4.0331630  
H    4.3498549    0.0008614   -1.3200020  
H    2.7563627    0.0012824    0.6148062  
C    0.8681109    0.7263879    2.2709268  
C    0.6127770    0.5096195    3.5869401  
C   -0.4920590   -0.4175482    3.6542670  
C   -0.8620974   -0.7254003    2.2596025  
N    0.0000000    0.0000000    1.4700000  
C   -1.8641242   -1.5660088    1.8976294  
C   -2.6293522   -2.2103885    2.9520183  
O   -3.5512764   -2.9839180    2.7283916  
C   -2.2549728   -1.8987399    4.4361073  
O   -2.8923672   -2.4351063    5.3323774  
C   -1.1543735   -0.9755647    4.7012123  
H    1.1382914    0.9492124    4.4159191  
H   -2.1192137   -1.7782617    0.8686553  
H   -0.9013378   -0.7652422    5.7314848  
H    1.6172880    1.3558399    1.8188057  
