60

C    0.5335753   -0.7189664   -5.2240529  
C   -0.2963289   -0.0005348   -4.3948470  
C   -1.1926763    0.7276175   -5.2320779  
C   -0.8591806    0.4107232   -6.5738253  
N    0.1943088   -0.4685472   -6.5330745  
C   -1.5394153    0.9501093   -7.6697869  
C   -2.5753767    1.8251064   -7.4064600  
O   -3.2733090    2.3805997   -8.4395776  
C   -2.9228600    2.1539302   -6.0745639  
O   -3.9763323    3.0394244   -5.9774101  
C   -2.2520516    1.6224005   -4.9928895  
H    0.6400945   -0.8776732   -7.3342434  
H   -1.2900295    0.7127208   -8.6948023  
H   -3.9422210    2.9523873   -8.0409805  
H   -4.1466492    3.2084433   -5.0457295  
H   -2.5407495    1.8930714   -3.9839946  
H    1.3415964   -1.3890960   -4.9853337  
C    3.1301148   -0.0010315   -1.7028253  
C    2.5367766   -0.0002767   -0.4864666  
C    1.1089903    0.0001025   -0.7656183  
C    1.0177867   -0.0004153   -2.2415131  
N    2.1993574   -0.0011616   -2.7963821  
C   -0.2459218   -0.0002884   -2.9257117  
C   -1.3675324   -0.0000610   -2.1698519  
O   -2.6129318    0.0000862   -2.6748483  
C   -1.3083588    0.0000908   -0.6783229  
O   -2.3693264    0.0004202   -0.0541688  
C    0.0000000    0.0000000    0.0000000  
H    3.0096015   -0.0001006    0.4807520  
H   -3.1967441    0.0002093   -1.8949029  
C    5.5795931   -0.0015225   -1.1027761  
C    4.5679459   -0.0016858   -2.0086704  
C    5.1756894   -0.0023293   -3.3184348  
C    6.6347908   -0.0025581   -3.0997725  
N    6.8134017   -0.0016473   -1.7355926  
C    7.5609143   -0.0035421   -4.0917398  
C    7.0891350   -0.0042095   -5.4664978  
O    7.8442687   -0.0050470   -6.4298639  
C    5.5480917   -0.0037296   -5.7214295  
O    5.1390411   -0.0039773   -6.8746584  
C    4.6483392   -0.0029391   -4.5706484  
H    8.6266507   -0.0038231   -3.9097634  
H    3.5827540   -0.0028161   -4.7557201  
H    5.5275963   -0.0011047   -0.0261213  
H    7.7030100   -0.0031113   -1.2712200  
C    0.8400945    0.7047457    2.2710304  
C    0.0000000    0.0000000    1.4700000  
C   -0.8844236   -0.7423113    2.3369512  
C   -0.4878984   -0.4098547    3.7186280  
N    0.5629682    0.4714286    3.6095011  
C   -1.0836927   -0.9095027    4.8308716  
C   -2.1891196   -1.8367527    4.6554461  
O   -2.7906899   -2.3413415    5.5944904  
C   -2.6257283   -2.2031529    3.2011665  
O   -3.5549479   -2.9829990    3.0410059  
C   -1.9068976   -1.5999348    2.0816745  
H   -0.7774656   -0.6525820    5.8354244  
H   -2.2155208   -1.8586617    1.0779135  
H    1.6384792    1.3747609    1.9961646  
H    1.0518368    0.8833920    4.3830260  
