60

C    4.4092336   -2.1209280   -5.7112882  
C    3.1765067   -1.6591994   -6.1108596  
C    3.3989261   -0.7722460   -7.2055939  
C    4.7987470   -0.7321807   -7.4310308  
N    5.3825434   -1.5608090   -6.5051931  
C    5.3806785    0.0436400   -8.4381280  
C    4.5340522    0.7924245   -9.2323094  
O    5.0493098    1.5675286  -10.2306759  
C    3.1347034    0.7659423   -9.0226934  
O    2.4266662    1.5660137   -9.8955692  
C    2.5599431    0.0010163   -8.0291811  
H    2.2331166   -1.9276813   -5.6670968  
H    6.3669748   -1.7420863   -6.4276463  
H    6.4468394    0.0786302   -8.6149887  
H    4.2975668    2.0002869  -10.6559611  
H    1.4906899    1.4907028   -9.6860931  
H    4.6713217   -2.8043753   -4.9218779  
C    0.0139742    0.0003878   -4.4216236  
C    1.0657034    0.0004481   -5.2806583  
C    0.5180456    0.0007119   -6.6166620  
C   -0.9494782    0.0008303   -6.4644642  
N   -1.1898343    0.0002247   -5.1097987  
C   -1.8296145    0.0014750   -7.4974525  
C   -1.2959120    0.0018674   -8.8493762  
O   -2.0065327    0.0023914   -9.8460291  
C    0.2551158    0.0014984   -9.0340855  
O    0.7160979    0.0015168  -10.1675560  
C    1.1016987    0.0010820   -7.8436448  
H    2.1063859    0.0001397   -5.0093769  
H   -2.9025137    0.0016806   -7.3640447  
H   -2.0996068    0.0017001   -4.6862910  
C    3.2798085    0.0005856   -1.4499646  
C    2.5571146    0.0005565   -2.5996553  
C    1.1637435    0.0001548   -2.2210360  
C    1.1336964   -0.0000200   -0.7459470  
N    2.4483515   -0.0001429   -0.3402716  
C    0.0000000    0.0000000    0.0000000  
C   -1.2757368   -0.0000187   -0.6964415  
O   -2.3524594   -0.0000640   -0.1142314  
C   -1.2676495   -0.0000873   -2.2584081  
O   -2.3355761   -0.0004101   -2.8557295  
C    0.0181563    0.0001759   -2.9516296  
H    2.9547358    0.0006075   -3.5989104  
H    4.3498547    0.0008611   -1.3200019  
H    2.7563628    0.0012823    0.6148064  
C    0.8175213    0.6860729    2.3021913  
C    0.0000000    0.0000000    1.4700000  
C   -0.8887526   -0.7456559    2.3478473  
C   -0.4549825   -0.3816753    3.7138435  
N    0.5448156    0.4573574    3.6934124  
C   -1.0945674   -0.9182058    4.8835240  
C   -2.1210866   -1.7789155    4.6970523  
O   -2.8083856   -2.3554314    5.6976972  
C   -2.5824069   -2.1655116    3.3310774  
O   -3.5227682   -2.9541547    3.2362962  
C   -1.9100805   -1.6015804    2.1470656  
H   -0.7567140   -0.6349833    5.8697035  
H   -3.4728268   -2.9124471    5.2533954  
H   -2.2742832   -1.9066565    1.1752040  
H    1.6189533    1.3585343    2.0405121  
