64

C    6.8155223   -0.0017531   -5.8175125  
C    5.5435135    0.0004350   -6.3413982  
C    5.6780746    0.0010277   -7.7614308  
C    7.0672740   -0.0011694   -8.0478649  
N    7.7293545   -0.0008695   -6.8452571  
C    7.5705031   -0.0015746   -9.3523000  
C    6.6546574   -0.0000352  -10.3864192  
O    7.0916024   -0.0006999  -11.6795135  
C    5.2645973    0.0025407  -10.1208204  
O    4.4816579    0.0042490  -11.2567551  
C    4.7674384    0.0032151   -8.8342128  
H    4.6309084    0.0025809   -5.7703111  
H    8.7268502   -0.0126907   -6.7319231  
H    8.6281349   -0.0031010   -9.5772723  
H    6.3011094    0.0009144  -12.2348360  
H    3.5575300    0.0059162  -10.9891932  
H    3.6975115    0.0053863   -8.6617901  
C    4.5679461   -0.0016854   -2.0086701  
C    5.6536976   -0.0029016   -1.1639160  
C    6.8200673   -0.0036871   -1.9850014  
C    6.3798477   -0.0026036   -3.3333825  
N    5.0072029   -0.0033527   -3.3118968  
C    7.2630028   -0.0026750   -4.4172768  
C    8.6151887   -0.0035548   -4.1348426  
O    9.5213679   -0.0033138   -5.1555548  
C    9.0739283   -0.0050178   -2.7960471  
O   10.4486142   -0.0061775   -2.6795164  
C    8.2032438   -0.0052215   -1.7262643  
H    5.6103771   -0.0042927   -0.0882233  
H    4.4140948    0.0076883   -4.1218859  
H   10.3956188   -0.0043381   -4.7445213  
H   10.6745782   -0.0070991   -1.7443461  
H    8.5841288   -0.0065379   -0.7116691  
C    3.1301149   -0.0010311   -1.7028252  
C    2.5367768   -0.0002767   -0.4864665  
C    1.1089904    0.0001028   -0.7656183  
C    1.0177872   -0.0004148   -2.2415132  
N    2.1993578   -0.0011611   -2.7963820  
C   -0.2459209   -0.0002877   -2.9257118  
C   -1.3675319   -0.0000605   -2.1698524  
O   -2.6129313    0.0000867   -2.6748490  
C   -1.3083584    0.0000910   -0.6783232  
O   -2.3693261    0.0004206   -0.0541692  
C    0.0000000    0.0000000    0.0000000  
H    3.0096017   -0.0001007    0.4807525  
H   -0.2829630   -0.0004687   -4.0053125  
H   -3.1967441    0.0002094   -1.8949034  
C    2.5285572    2.1210227    2.9438989  
C    1.9331703    1.6216660    4.0790748  
C    0.8903039    0.7472258    3.6520102  
C    0.8972198    0.7527806    2.2336141  
N    1.9028376    1.5986179    1.8362361  
C    0.0000000    0.0000000    1.4700000  
C   -0.9207814   -0.7726952    2.1506477  
O   -1.8198395   -1.5274828    1.4542253  
C   -0.9436862   -0.7911793    3.5655508  
O   -1.9197945   -1.6098497    4.0950179  
C   -0.0590329   -0.0485852    4.3195194  
H    2.2150357    1.8593692    5.0905303  
H    2.1533708    1.7953814    0.8841339  
H   -2.3621246   -1.9821033    2.1118817  
H   -1.8668290   -1.5649508    5.0545920  
H   -0.1007624   -0.0827977    5.4019087  
H    3.3491200    2.8096064    2.8367138  
