62

C    3.9972529    0.6823385   -7.3596265  
C    5.0816985   -0.1356130   -7.1419107  
C    5.9075840   -0.0496049   -8.3017019  
C    5.2707203    0.8436227   -9.2008543  
N    4.1124680    1.2681922   -8.5985164  
C    5.8055934    1.1669798  -10.4515101  
C    7.0053819    0.5781329  -10.8007144  
O    7.5723043    0.8591511  -12.0101104  
C    7.6558548   -0.3159357   -9.9173439  
O    8.8419852   -0.8196117  -10.4100399  
C    7.1286334   -0.6356028   -8.6834980  
H    5.2555067   -0.7229677   -6.2565865  
H    3.4567860    1.9173930   -8.9942436  
H    5.3250622    1.8469048  -11.1414329  
H    8.3926418    0.3506554  -12.0518752  
H    9.2164189   -1.4139706   -9.7526660  
H    7.6496232   -1.3239082   -8.0283003  
C    2.8494824   -0.7287744   -3.3362176  
C    3.4912459   -0.5137443   -4.5134928  
C    2.6833707    0.4134347   -5.2701381  
C    1.5099404    0.7231880   -4.4311474  
N    1.6707636   -0.0012343   -3.2725974  
C    0.5077428    1.5643732   -4.7913026  
C    0.5901973    2.2074116   -6.0921629  
O   -0.2621830    2.9813249   -6.5078621  
C    1.8239386    1.8937415   -6.9973138  
O    1.9040989    2.4289663   -8.0947514  
C    2.8403309    0.9701102   -6.4996147  
H    4.4240225   -0.9544954   -4.8172698  
H   -0.3442054    1.7780273   -4.1608687  
H    3.1383495   -1.3576899   -2.5098333  
C    1.0965514    0.0001358   -0.8010306  
C    0.0000000    0.0000000    0.0000000  
C   -1.1546565    0.0001470   -0.8669508  
C   -0.6372019    0.0003520   -2.2486278  
N    0.7342867    0.0007338   -2.1395012  
C   -1.4147744    0.0001354   -3.3608712  
C   -2.8576052   -0.0001047   -3.1854454  
O   -3.6427785   -0.0002490   -4.1244896  
C   -3.4275841   -0.0000727   -1.7311660  
O   -4.6406832    0.0000333   -1.5710049  
C   -2.4891868   -0.0001090   -0.6116739  
H   -1.0150456    0.0001617   -4.3654239  
H   -2.8919122   -0.0002919    0.3920871  
H    2.1388270    0.0000663   -0.5261650  
C    2.5311839    2.1237619    3.0120429  
C    1.9795631    1.6616747    1.8395852  
C    0.9223175    0.7739173    2.1983588  
C    0.8753926    0.7337535    3.6154372  
N    1.8668922    1.5631002    4.0777464  
C   -0.0496243   -0.0427881    4.3197917  
C   -0.9437528   -0.7922060    3.5801400  
O   -1.8685244   -1.5680278    4.2172520  
C   -0.9124520   -0.7656372    2.1655264  
O   -1.8671164   -1.5663939    1.5732860  
C    0.0000000    0.0000000    1.4700000  
H    2.3005065    1.9304404    0.8477417  
H    2.0679347    1.7444845    5.0445261  
H   -0.0904770   -0.0778569    5.3997470  
H   -2.3849669   -2.0011402    3.5251786  
H   -1.7775064   -1.4909735    0.6183591  
H    3.3468514    2.8078103    3.1724291  
