60

C    5.4366114   -3.6329612   -1.0370956  
C    5.5305766   -3.0357197   -2.2727897  
C    6.7401621   -3.5005318   -2.8689881  
C    7.3470556   -4.3867330   -1.9425685  
N    6.5304936   -4.4429600   -0.8404424  
C    8.5591708   -5.0348034   -2.1986360  
C    9.1696009   -4.7839198   -3.4121474  
O   10.3545001   -5.3906206   -3.7137110  
C    8.5798811   -3.9026091   -4.3493446  
O    9.3100450   -3.7565059   -5.5107478  
C    7.3842520   -3.2627158   -4.0972866  
H    6.6976030   -5.0001706   -0.0221694  
H    9.0269902   -5.7112607   -1.4966718  
H   10.6028592   -5.0819083   -4.5947778  
H    8.8427885   -3.1458285   -6.0889760  
H    6.9568859   -2.5929545   -4.8343456  
H    4.6765670   -3.5441344   -0.2798627  
C    4.5546440   -2.0975048   -2.8456843  
C    3.3966019   -1.6333850   -2.3093948  
C    2.8128206   -0.7373020   -3.2794823  
C    3.7322607   -0.7172945   -4.4331806  
N    4.7679899   -1.5620810   -4.1068522  
C    3.5352967    0.0116911   -5.5607837  
C    2.3379415    0.8314599   -5.6435736  
O    2.0707004    1.5238122   -6.6169856  
C    1.3504333    0.8257213   -4.4333664  
O    0.3391711    1.5121845   -4.4914814  
C    1.6707636   -0.0012343   -3.2725974  
H    2.9970337   -1.8893867   -1.3442927  
H    4.2221656    0.0121016   -6.3957216  
H    5.5563145   -1.7607940   -4.6951595  
C    1.0965514    0.0001358   -0.8010306  
C    0.0000000    0.0000000    0.0000000  
C   -1.1546565    0.0001470   -0.8669508  
C   -0.6372019    0.0003520   -2.2486278  
N    0.7342867    0.0007338   -2.1395012  
C   -1.4147744    0.0001354   -3.3608712  
C   -2.8576052   -0.0001047   -3.1854454  
O   -3.6427785   -0.0002490   -4.1244896  
C   -3.4275841   -0.0000727   -1.7311660  
O   -4.6406832    0.0000333   -1.5710049  
C   -2.4891868   -0.0001090   -0.6116739  
H   -1.0150456    0.0001617   -4.3654239  
H   -2.8919122   -0.0002919    0.3920871  
H    2.1388270    0.0000663   -0.5261650  
C    0.8175213    0.6860729    2.3021913  
C    0.0000000    0.0000000    1.4700000  
C   -0.8887526   -0.7456559    2.3478473  
C   -0.4549825   -0.3816753    3.7138435  
N    0.5448156    0.4573574    3.6934124  
C   -1.0945674   -0.9182058    4.8835240  
C   -2.1210866   -1.7789155    4.6970523  
O   -2.8083856   -2.3554314    5.6976972  
C   -2.5824069   -2.1655116    3.3310774  
O   -3.5227682   -2.9541547    3.2362962  
C   -1.9100805   -1.6015804    2.1470656  
H   -0.7567140   -0.6349833    5.8697035  
H   -3.4728268   -2.9124471    5.2533954  
H   -2.2742832   -1.9066565    1.1752040  
H    1.6189533    1.3585343    2.0405121  
