60

C    3.1304806   -2.9389012   -6.5217836  
C    3.9898114   -3.6377227   -5.7059001  
C    4.8540095   -4.3883229   -6.5569944  
C    4.4714795   -4.1047008   -7.8930915  
N    3.4209729   -3.2227956   -7.8356970  
C    5.1103232   -4.6727190   -8.9994473  
C    6.1545437   -5.5426681   -8.7525290  
O    6.8133797   -6.1252386   -9.7963502  
C    6.5506779   -5.8384885   -7.4264886  
O    7.6062538   -6.7231452   -7.3459587  
C    5.9207206   -5.2787014   -6.3345558  
H    3.9926422   -3.6107574   -4.6296761  
H    2.9462667   -2.8331646   -8.6299398  
H    4.8234710   -4.4607576  -10.0202264  
H    7.4960573   -6.6880120   -9.4084046  
H    7.8107056   -6.8689675   -6.4172287  
H    6.2462337   -5.5244108   -5.3304912  
C    2.0407262   -2.0139650   -6.1785234  
C    1.6287193   -1.6317255   -4.9473766  
C    0.5264174   -0.7135553   -5.1890257  
C    0.4056591   -0.6555643   -6.6616555  
N    1.2906474   -1.4158625   -7.2470881  
C   -0.5850920    0.1568584   -7.3123990  
C   -1.4176225    0.8782446   -6.5276509  
O   -2.3882003    1.6789419   -6.9997775  
C   -1.3210821    0.8405677   -5.0385502  
O   -2.1116404    1.5230224   -4.3870184  
C   -0.2963293   -0.0005341   -4.3948471  
H    2.0239475   -1.9354085   -3.9930984  
H   -0.6505845    0.1803534   -8.3903915  
H   -2.8082865    2.0545008   -6.2050221  
C    3.1301146   -0.0010313   -1.7028256  
C    2.5367765   -0.0002766   -0.4864669  
C    1.1089901    0.0001027   -0.7656184  
C    1.0177865   -0.0004150   -2.2415133  
N    2.1993571   -0.0011612   -2.7963824  
C   -0.2459219   -0.0002879   -2.9257116  
C   -1.3675326   -0.0000606   -2.1698520  
O   -2.6129318    0.0000865   -2.6748483  
C   -1.3083588    0.0000910   -0.6783229  
O   -2.3693264    0.0004206   -0.0541685  
C    0.0000000    0.0000000    0.0000000  
H    3.0096016   -0.0001007    0.4807518  
H   -3.1967444    0.0002093   -1.8949026  
H    4.1849275   -0.0015114   -1.9271979  
C    0.8681109    0.7263879    2.2709268  
C    0.6127770    0.5096195    3.5869401  
C   -0.4920590   -0.4175482    3.6542670  
C   -0.8620974   -0.7254003    2.2596025  
N    0.0000000    0.0000000    1.4700000  
C   -1.8641242   -1.5660088    1.8976294  
C   -2.6293522   -2.2103885    2.9520183  
O   -3.5512764   -2.9839180    2.7283916  
C   -2.2549728   -1.8987399    4.4361073  
O   -2.8923672   -2.4351063    5.3323774  
C   -1.1543735   -0.9755647    4.7012123  
H    1.1382914    0.9492124    4.4159191  
H   -2.1192137   -1.7782617    0.8686553  
H   -0.9013378   -0.7652422    5.7314848  
H    1.6172880    1.3558399    1.8188057  
