66

C    0.0078014    0.7082657   -7.2665019  
C   -1.2046146    0.4583957   -7.8665689  
C   -0.9595248   -0.4514413   -8.9374227  
C    0.4325368   -0.7235997   -8.9419761  
N    0.9902511   -0.0019367   -7.9159278  
C    1.0318365   -1.5843090   -9.8665351  
C    0.2108567   -2.1813850  -10.8033756  
O    0.7438666   -3.0308661  -11.7292780  
C   -1.1803491   -1.9221103  -10.8152015  
O   -1.8622062   -2.5921833  -11.8098960  
C   -1.7722139   -1.0729011   -9.9035742  
H   -2.1492863    0.8808777   -7.5697567  
H    2.0922151   -1.7957808   -9.8753970  
H    0.0086192   -3.3318442  -12.2789039  
H   -2.7943002   -2.3620719  -11.7478080  
H   -2.8404630   -0.8935181   -9.9373897  
H    0.2497025    1.3380096   -6.4275353  
C    3.0267439   -0.0008952   -3.9901698  
C    4.3188040   -0.0025413   -4.4624464  
C    4.2414926   -0.0038147   -5.8867433  
C    2.8649426   -0.0025721   -6.2288459  
N    2.1550076   -0.0027613   -5.0538525  
C    2.4146104   -0.0030199   -7.5524732  
C    3.3713262   -0.0044468   -8.5489021  
O    2.9867671   -0.0045904   -9.8585305  
C    4.7495745   -0.0060766   -8.2275832  
O    5.5775892   -0.0077947   -9.3310927  
C    5.1945600   -0.0059089   -6.9220133  
H    5.2076917   -0.0038985   -3.8550994  
H    1.1537527    0.0085092   -4.9807529  
H    3.7989661   -0.0059651  -10.3815946  
H    6.4902028   -0.0087941   -9.0265610  
H    6.2566834   -0.0073652   -6.7066768  
C    3.3003547    0.0005275   -1.4738985  
C    2.5232817    0.0003496   -2.6090745  
C    1.1623204   -0.0001319   -2.1820101  
C    1.1711885    0.0000583   -0.7636140  
N    2.4852303   -0.0014920   -0.3662357  
C    0.0000000    0.0000000    0.0000000  
C   -1.2020382    0.0000520   -0.6806479  
O   -2.3759248    0.0003494    0.0157744  
C   -1.2314653   -0.0005113   -2.0955511  
O   -2.5054389   -0.0008038   -2.6250185  
C   -0.0764511   -0.0007273   -2.8495194  
H    2.8036269    0.0088181    0.5858664  
H   -3.0835637    0.0000348   -0.6418823  
H   -2.4360044   -0.0011528   -3.5845926  
H   -0.1304090   -0.0013422   -3.9319089  
H    4.3715553    0.0004894   -1.3667132  
C    2.5285572    2.1210227    2.9438989  
C    1.9331703    1.6216660    4.0790748  
C    0.8903039    0.7472258    3.6520102  
C    0.8972198    0.7527806    2.2336141  
N    1.9028376    1.5986179    1.8362361  
C    0.0000000    0.0000000    1.4700000  
C   -0.9207814   -0.7726952    2.1506477  
O   -1.8198395   -1.5274828    1.4542253  
C   -0.9436862   -0.7911793    3.5655508  
O   -1.9197945   -1.6098497    4.0950179  
C   -0.0590329   -0.0485852    4.3195194  
H    2.2150357    1.8593692    5.0905303  
H    2.1533708    1.7953814    0.8841339  
H   -2.3621246   -1.9821033    2.1118817  
H   -1.8668290   -1.5649508    5.0545920  
H   -0.1007624   -0.0827977    5.4019087  
H    3.3491200    2.8096064    2.8367138  
