60

C    6.3792085   -0.0007574    2.9172790  
C    7.3842822    0.0001005    3.8565840  
C    6.7569520    0.0004873    5.1376213  
C    5.3560996   -0.0004589    4.9150527  
N    5.1613331    0.0007519    3.5561263  
C    4.4246712   -0.0006930    5.9577566  
C    4.9163527   -0.0002656    7.2486571  
O    4.0509418   -0.0008194    8.3041561  
C    6.3106531    0.0010536    7.4910240  
O    6.6420379    0.0017520    8.8302506  
C    7.2301080    0.0015585    6.4628557  
H    8.4397583    0.0015146    3.6445443  
H    4.2681085   -0.0100960    3.0978541  
H    3.3557293   -0.0012685    5.7947665  
H    4.5944177   -0.0000858    9.1028417  
H    7.6011139    0.0026051    8.9062510  
H    8.2919960    0.0027548    6.6793518  
C    6.4550021   -0.0009256    1.4492341  
C    7.5628472   -0.0014710    0.6718940  
C    7.0625120   -0.0013725   -0.6941823  
C    5.5906518   -0.0008359   -0.5520184  
N    5.2286141   -0.0004914    0.7021417  
C    4.7161325   -0.0005435   -1.6923264  
C    5.2860918   -0.0003877   -2.9188995  
O    4.5914234   -0.0001200   -4.0693241  
C    6.7683519   -0.0005473   -3.0951539  
O    7.2177885   -0.0005152   -4.2411155  
C    7.6440943   -0.0008908   -1.9098274  
H    8.5924168   -0.0017982    0.9866378  
H    5.2697908   -0.0000402   -4.7685881  
H    8.7123897   -0.0008822   -2.0800432  
C    3.2573665   -0.0002920   -1.5109385  
C    2.5379463   -0.0001709   -0.3591964  
C    1.1435038    0.0000331   -0.7338500  
C    1.1092599   -0.0000083   -2.2088477  
N    2.4227553    0.0001909   -2.6182613  
C   -0.0265539   -0.0002524   -2.9515660  
C   -1.3003040   -0.0002640   -2.2514977  
O   -2.3786790   -0.0004133   -2.8306421  
C   -1.2877727    0.0000311   -0.6895603  
O   -2.3539959    0.0003306   -0.0892030  
C    0.0000000    0.0000000    0.0000000  
H    2.9384091   -0.0000367    0.6389234  
H   -0.0296303   -0.0004086   -4.0327229  
H    2.7280482   -0.0013407   -3.5742119  
C    0.8175213    0.6860729    2.3021913  
C    0.0000000    0.0000000    1.4700000  
C   -0.8887526   -0.7456559    2.3478473  
C   -0.4549825   -0.3816753    3.7138435  
N    0.5448156    0.4573574    3.6934124  
C   -1.0945674   -0.9182058    4.8835240  
C   -2.1210866   -1.7789155    4.6970523  
O   -2.8083856   -2.3554314    5.6976972  
C   -2.5824069   -2.1655116    3.3310774  
O   -3.5227682   -2.9541547    3.2362962  
C   -1.9100805   -1.6015804    2.1470656  
H   -0.7567140   -0.6349833    5.8697035  
H   -3.4728268   -2.9124471    5.2533954  
H   -2.2742832   -1.9066565    1.1752040  
H    1.6189533    1.3585343    2.0405121  
