62

C    5.9234423   -0.7158352   -0.5947387  
C    6.5520371   -0.4675386    0.6034625  
C    7.6180070    0.4411307    0.3339670  
C    7.5903206    0.7142315   -1.0576418  
N    6.5505903   -0.0057729   -1.5916569  
C    8.5016830    1.5741971   -1.6778564  
C    9.4582355    2.1695457   -0.8786412  
O   10.3724801    3.0182362   -1.4326235  
C    9.5022939    1.9093092    0.5117376  
O   10.5135187    2.5776780    1.1705621  
C    8.6036982    1.0608327    1.1242242  
H    6.2768846   -0.8902941    1.5545470  
H    8.4859899    1.7863794   -2.7380138  
H   10.9395433    3.3180286   -0.7102468  
H   10.4729745    2.3470092    2.1037036  
H    8.6622826    0.8806802    2.1912723  
H    5.0782503   -1.3443687   -0.8173467  
C    2.5562217   -0.0001551   -3.6003001  
C    3.5655126   -0.0016889   -2.6655291  
C    4.7980129   -0.0018055   -3.3835427  
C    4.4750737   -0.0000051   -4.7647141  
N    3.1056446   -0.0009893   -4.8610468  
C    5.4479449    0.0007003   -5.7688602  
C    6.7709221   -0.0001255   -5.3714827  
O    7.7613130    0.0008591   -6.3107046  
C    7.1131347   -0.0022966   -3.9982737  
O    8.4727604   -0.0033017   -3.7642589  
C    6.1538987   -0.0032667   -3.0071177  
H    3.4300844   -0.0037159   -1.5975178  
H    2.5841976    0.0104289   -5.7189186  
H    5.2083492    0.0019270   -6.8232765  
H    8.5970864   -0.0002634   -5.8261977  
H    8.6176764   -0.0047331   -2.8131539  
C    0.0000000    0.0000000    0.0000000  
C    1.0541688   -0.0001722   -0.8560390  
C    0.5103141   -0.0000453   -2.1935955  
C   -0.9576367    0.0002460   -2.0455731  
N   -1.2018459   -0.0001392   -0.6915969  
C   -1.8348307    0.0008318   -3.0810611  
C   -1.2972843    0.0009738   -4.4314606  
O   -2.0050665    0.0014267   -5.4301321  
C    0.2542628    0.0004186   -4.6117570  
O    0.7184676    0.0002258   -5.7439117  
C    1.0974555    0.0000874   -3.4189127  
H    2.0940752   -0.0005483   -0.5817978  
H   -2.9081051    0.0011670   -2.9507061  
H   -2.1128194    0.0014912   -0.2706792  
C    1.0672568    0.0000697    2.3021913  
C    0.0000000    0.0000000    1.4700000  
C   -1.1601224    0.0000736    2.3478473  
C   -0.5938729    0.0000769    3.7138435  
N    0.7113367    0.0001554    3.6934124  
C   -1.4286986    0.0001879    4.8835240  
C   -2.7683114    0.0006799    4.6970523  
O   -3.6653903    0.0008304    5.6976972  
C   -3.3702025    0.0010610    3.3310774  
O   -4.5974910    0.0013779    3.2362962  
C   -2.4926826    0.0008943    2.1470656  
H   -0.9878360   -0.0000190    5.8697035  
H   -4.5324246    0.0012261    5.2533954  
H   -2.9677772    0.0012974    1.1752040  
H    2.1134392    0.0000545    2.0405121  
