60

C    0.2053497   -1.1073813   -9.6468973  
C    0.0123499   -0.0076589   -8.8432614  
C   -0.1895598    1.1091500   -9.7073042  
C   -0.1084361    0.6256420  -11.0383062  
N    0.1340724   -0.7236252  -10.9656086  
C   -0.2602473    1.4539385  -12.1544014  
C   -0.4985909    2.7947047  -11.9226341  
O   -0.6549829    3.6479500  -12.9764499  
C   -0.5825711    3.2961387  -10.6019049  
O   -0.8240340    4.6528978  -10.5367655  
C   -0.4326380    2.4796311   -9.5003767  
H    0.2304835   -1.3391933  -11.7528572  
H   -0.1993855    1.0916258  -13.1713708  
H   -0.8094189    4.5234182  -12.5983375  
H   -0.8661490    4.9102114   -9.6106882  
H   -0.5019327    2.8923655   -8.5007140  
H    0.3896345   -2.1348838   -9.3837680  
C    2.5229105   -2.1069160   -5.8790356  
C    1.9659599   -1.6422908   -7.0270794  
C    0.8993073   -0.7471216   -6.6452951  
C    0.8803723   -0.7281568   -5.1701434  
N    1.8886140   -1.5732492   -4.7674571  
C    0.0139741    0.0003876   -4.4216236  
C   -0.9653705    0.8204009   -5.1151637  
O   -1.7886285    1.5123014   -4.5305090  
C   -0.9636626    0.8153757   -6.6771421  
O   -1.7837158    1.5015804   -7.2720336  
C    0.0195995   -0.0107212   -7.3732829  
H    2.2677703   -1.8976623   -8.0272341  
H    3.3432281   -2.7944520   -5.7515055  
H    2.1282171   -1.7702570   -3.8130851  
C    3.2798085    0.0005853   -1.4499648  
C    2.5571144    0.0005562   -2.5996554  
C    1.1637436    0.0001546   -2.2210360  
C    1.1336965   -0.0000201   -0.7459470  
N    2.4483513   -0.0001430   -0.3402717  
C    0.0000000    0.0000000    0.0000000  
C   -1.2757367   -0.0000188   -0.6964414  
O   -2.3524597   -0.0000640   -0.1142313  
C   -1.2676494   -0.0000875   -2.2584081  
O   -2.3355762   -0.0004102   -2.8557294  
C    0.0181562    0.0001757   -2.9516296  
H    2.9547357    0.0006072   -3.5989105  
H    4.3498550    0.0008609   -1.3200021  
H    2.7563627    0.0012824    0.6148063  
C    0.8681109    0.7263879    2.2709268  
C    0.6127770    0.5096195    3.5869401  
C   -0.4920590   -0.4175482    3.6542670  
C   -0.8620974   -0.7254003    2.2596025  
N    0.0000000    0.0000000    1.4700000  
C   -1.8641242   -1.5660088    1.8976294  
C   -2.6293522   -2.2103885    2.9520183  
O   -3.5512764   -2.9839180    2.7283916  
C   -2.2549728   -1.8987399    4.4361073  
O   -2.8923672   -2.4351063    5.3323774  
C   -1.1543735   -0.9755647    4.7012123  
H    1.1382914    0.9492124    4.4159191  
H   -2.1192137   -1.7782617    0.8686553  
H   -0.9013378   -0.7652422    5.7314848  
H    1.6172880    1.3558399    1.8188057  
