64

C   -5.6010166   -0.7149978   -6.7612932  
C   -6.4752336    0.0040100   -5.9794753  
C   -7.3234605    0.7324133   -6.8652170  
C   -6.9162963    0.4150717   -8.1863673  
N   -5.8671149   -0.4646960   -8.0871476  
C   -7.5345006    0.9545496   -9.3184342  
C   -8.5830298    1.8301008   -9.1130706  
O   -9.2223783    2.3857079  -10.1833735  
C   -9.0036088    2.1593763   -7.8025348  
O  -10.0604105    3.0453974   -7.7640617  
C   -8.3940212    1.6277565   -6.6852575  
H   -5.3778270   -0.8742077   -8.8623114  
H   -7.2288250    0.7168217  -10.3280138  
H   -9.9120657    2.9579022   -9.8225558  
H  -10.2820012    3.2146976   -6.8432798  
H   -8.7380385    1.8987820   -5.6939573  
H   -4.8077920   -1.3854644   -6.4780480  
C   -3.2578655    0.0024039   -2.9908504  
C   -4.0046939    0.0033127   -1.8566891  
C   -5.3897520    0.0044627   -2.2646703  
C   -5.3886196    0.0041179   -3.7400651  
N   -4.0656854    0.0032561   -4.1178667  
C   -6.5062987    0.0045469   -4.5098036  
C   -7.7964683    0.0056314   -3.8404773  
O   -8.8606461    0.0061492   -4.4453120  
C   -7.8213913    0.0062654   -2.2786888  
O   -8.9017018    0.0074856   -1.7040695  
C   -6.5505228    0.0054371   -1.5584490  
H   -3.6282786    0.0033735   -0.8492543  
H   -6.5764550    0.0056781   -0.4772225  
H   -3.7375606    0.0012862   -5.0662218  
C    0.0000000    0.0000000    0.0000000  
C    1.0521667   -0.0011902   -0.8862342  
C    0.4917216   -0.0011957   -2.1979129  
C   -0.9187429    0.0003148   -2.0478680  
N   -1.1833171   -0.0009412   -0.7007912  
C   -1.7951702    0.0010350   -3.1372088  
C   -1.2375841    0.0005225   -4.4010424  
O   -2.0474217    0.0015360   -5.4997576  
C    0.1673577   -0.0013567   -4.5711964  
O    0.5673522   -0.0020688   -5.8915554  
C    1.0325769   -0.0023413   -3.4969890  
H    2.0953057   -0.0030649   -0.6200562  
H   -2.0989779    0.0102372   -0.2891821  
H   -1.4634887    0.0006498   -6.2693588  
H    1.5290708   -0.0033153   -5.9180049  
H    2.1042148   -0.0039610   -3.6584453  
C    3.3003543   -0.0005276    2.9438989  
C    2.5232812   -0.0003497    4.0790748  
C    1.1623199    0.0001319    3.6520102  
C    1.1711883   -0.0000583    2.2336141  
N    2.4852299    0.0014920    1.8362361  
C    0.0000000    0.0000000    1.4700000  
C   -1.2020384   -0.0000520    2.1506477  
O   -2.3759250   -0.0003494    1.4542253  
C   -1.2314658    0.0005113    3.5655508  
O   -2.5054393    0.0008037    4.0950179  
C   -0.0764518    0.0007272    4.3195194  
H    2.8919952    0.0005619    5.0905303  
H    2.8036267   -0.0088181    0.8841339  
H   -3.0835639   -0.0000348    2.1118817  
H   -2.4360050    0.0011527    5.0545920  
H   -0.1304098    0.0013421    5.4019087  
H    4.3715549   -0.0004895    2.8367138  
