66

C    3.4043863   -0.7238254   -2.9866275  
C    2.4861703   -0.0045376   -3.7159919  
C    3.2157089    0.7222556   -4.7029796  
C    4.5864978    0.4036881   -4.5258407  
N    4.6660327   -0.4752282   -3.4742718  
C    5.5976607    0.9414357   -5.3278175  
C    5.2180751    1.8164846   -6.3270086  
O    6.1647960    2.3704173   -7.1393469  
C    3.8554790    2.1469644   -6.5191806  
O    3.6389645    3.0322865   -7.5548781  
C    2.8574355    1.6170517   -5.7282136  
H    5.5126242   -0.8852828   -3.1233887  
H    6.6442485    0.7027676   -5.1978454  
H    5.6926566    2.9425396   -7.7582368  
H    2.6940964    3.2024847   -7.6170084  
H    1.8223829    1.8889696   -5.8991050  
H    3.2593067   -1.3934100   -2.1562257  
C    0.0000000    0.0000000    0.0000000  
C    1.0521669   -0.0011899   -0.8862338  
C    0.4917222   -0.0011953   -2.1979129  
C   -0.9187426    0.0003152   -2.0478681  
N   -1.1833169   -0.0009409   -0.7007913  
C   -1.7951697    0.0010354   -3.1372090  
C   -1.2375835    0.0005230   -4.4010425  
O   -2.0474206    0.0015366   -5.4997579  
C    0.1673585   -0.0013561   -4.5711965  
O    0.5673529   -0.0020681   -5.8915554  
C    1.0325774   -0.0023407   -3.4969889  
H    2.0953060   -0.0030646   -0.6200560  
H   -2.0989776    0.0102374   -0.2891826  
H   -1.4634880    0.0006503   -6.2693594  
H    1.5290717   -0.0033145   -5.9180047  
C   -3.9682100    0.7216623   -2.0578210  
C   -3.2578649    0.0024042   -2.9908508  
C   -4.2078972   -0.7253036   -3.7670469  
C   -5.4928144   -0.4072991   -3.2573545  
N   -5.3110104    0.4721769   -2.2190451  
C   -6.6702408   -0.9459921   -3.7848644  
C   -6.5483490   -1.8214257   -4.8464368  
O   -7.6658706   -2.3762785   -5.3998779  
C   -5.2750715   -2.1513554   -5.3686711  
O   -5.3202101   -3.0371618   -6.4253892  
C   -4.1130710   -1.6205097   -4.8485913  
H   -6.0451256    0.8820216   -1.6703341  
H   -7.6525642   -0.7077570   -3.4008248  
H   -7.3606510   -2.9485245   -6.1158674  
H   -4.4197681   -3.2069377   -6.7186193  
H   -3.1519998   -1.8920240   -5.2694251  
H   -3.6231674    1.3917899   -1.2891638  
C    1.1188642   -0.0008217    2.2703808  
C    0.0000000    0.0000000    1.4700000  
C   -1.1323862   -0.0008904    2.3373528  
C   -0.6382662   -0.0019682    3.6669281  
N    0.7324016   -0.0038477    3.5902241  
C   -1.4770914   -0.0027325    4.7854808  
C   -2.8395474   -0.0020958    4.5576857  
O   -3.7039201   -0.0024443    5.6140350  
C   -3.3517868   -0.0013946    3.2384331  
O   -4.7300496   -0.0012389    3.1773122  
C   -2.5248543   -0.0009135    2.1344818  
H    1.3576314    0.0056174    4.3757045  
H   -1.1067570   -0.0036993    5.8013813  
H   -4.5940033   -0.0021850    5.2385129  
H   -4.9934601   -0.0007286    2.2519915  
H   -2.9462578   -0.0005617    1.1360343  
H    2.1619896   -0.0009344    2.0042067  
