60

C    0.5442655   -3.2268311  -10.3259623  
C    0.4031937   -2.4595098  -11.4590046  
C    0.1683134   -1.1201550  -11.0282376  
C    0.1773007   -1.1314963   -9.6098879  
N    0.4062425   -2.4265346   -9.2160872  
C   -0.0224501    0.0204227   -8.8430954  
C   -0.2348460    1.2054304   -9.5204599  
O   -0.4350596    2.3601934   -8.8208532  
C   -0.2477569    1.2369460  -10.9352593  
O   -0.4722236    2.4924515  -11.4612478  
C   -0.0510384    0.1008893  -11.6923611  
H    0.4612179   -2.8208838  -12.4714444  
H    0.4766181   -2.7400622   -8.2649146  
H   -0.5617516    3.0582246   -9.4765704  
H   -0.4654071    2.4258007  -12.4209946  
H   -0.0665630    0.1559340  -12.7745840  
H    0.7309953   -4.2819228  -10.2216962  
C    2.5049804   -2.0931563   -5.9399565  
C    1.9571818   -1.6308520   -4.7865848  
C    0.8879546   -0.7344213   -5.1580690  
C    0.8574976   -0.7122319   -6.6329831  
N    1.8627391   -1.5562152   -7.0453796  
C   -0.0149277    0.0176858   -7.3731171  
C   -0.9887729    0.8362263   -6.6701578  
O   -1.8166673    1.5292763   -7.2468494  
C   -0.9745396    0.8281735   -5.1082557  
O   -1.7894805    1.5135874   -4.5054790  
C    0.0139741    0.0003876   -4.4216236  
H    2.2669047   -1.8882738   -3.7893789  
H    3.3239674   -2.7807664   -6.0753927  
H    2.0929226   -1.7534654   -8.0020166  
C    3.2798085    0.0005853   -1.4499648  
C    2.5571144    0.0005562   -2.5996554  
C    1.1637436    0.0001546   -2.2210360  
C    1.1336965   -0.0000201   -0.7459470  
N    2.4483513   -0.0001430   -0.3402717  
C    0.0000000    0.0000000    0.0000000  
C   -1.2757367   -0.0000188   -0.6964414  
O   -2.3524597   -0.0000640   -0.1142313  
C   -1.2676494   -0.0000875   -2.2584081  
O   -2.3355762   -0.0004102   -2.8557294  
C    0.0181562    0.0001757   -2.9516296  
H    2.9547357    0.0006072   -3.5989105  
H    4.3498550    0.0008609   -1.3200021  
H    2.7563627    0.0012824    0.6148063  
C    0.8175213    0.6860729    2.3021913  
C    0.0000000    0.0000000    1.4700000  
C   -0.8887526   -0.7456559    2.3478473  
C   -0.4549825   -0.3816753    3.7138435  
N    0.5448156    0.4573574    3.6934124  
C   -1.0945674   -0.9182058    4.8835240  
C   -2.1210866   -1.7789155    4.6970523  
O   -2.8083856   -2.3554314    5.6976972  
C   -2.5824069   -2.1655116    3.3310774  
O   -3.5227682   -2.9541547    3.2362962  
C   -1.9100805   -1.6015804    2.1470656  
H   -0.7567140   -0.6349833    5.8697035  
H   -3.4728268   -2.9124471    5.2533954  
H   -2.2742832   -1.9066565    1.1752040  
H    1.6189533    1.3585343    2.0405121  
