60

C    4.3307342   -2.1193161   -1.2711413  
C    5.3837979   -1.6206416   -2.0024729  
C    4.8313690   -0.7469989   -2.9854123  
C    3.4246653   -0.7523142   -2.8035248  
N    3.1543583   -1.5972493   -1.7558431  
C    2.5562222   -0.0001542   -3.6002998  
C    3.1180978    0.7716627   -4.5986849  
O    2.3161062    1.5258167   -5.4055768  
C    4.5193625    0.7898944   -4.7960189  
O    4.9243886    1.6076651   -5.8306918  
C    5.3766838    0.0479121   -4.0105326  
H    6.4222902   -1.8582772   -1.8473667  
H    2.2404344   -1.7936472   -1.3895758  
H    2.9018499    1.9798776   -6.0252520  
H    5.8831622    1.5626521   -5.8964976  
H    6.4456543    0.0819115   -4.1855311  
H    4.3255769   -2.8071988   -0.4430416  
C    0.0000000    0.0000000    0.0000000  
C    1.0541691   -0.0001719   -0.8560389  
C    0.5103143   -0.0000448   -2.1935953  
C   -0.9576364    0.0002464   -2.0455731  
N   -1.2018458   -0.0001389   -0.6915972  
C   -1.8348303    0.0008322   -3.0810611  
C   -1.2972837    0.0009745   -4.4314603  
O   -2.0050658    0.0014276   -5.4301322  
C    0.2542633    0.0004194   -4.6117570  
O    0.7184681    0.0002269   -5.7439118  
C    1.0974560    0.0000881   -3.4189126  
H    2.0940754   -0.0005481   -0.5817976  
H   -2.1128195    0.0014913   -0.2706792  
C   -4.4297975    2.1087666   -0.2339407  
C   -5.6380116    1.6447702   -0.6450379  
C   -5.3911863    0.7496344   -1.7507705  
C   -3.9296535    0.7300040   -1.9515866  
N   -3.4052343    1.5747187   -1.0006233  
C   -3.2941065    0.0012879   -2.9038247  
C   -4.1035791   -0.8182211   -3.7902190  
O   -3.6253047   -1.5102273   -4.6794214  
C   -5.6534078   -0.8124876   -3.5957865  
O   -6.3452673   -1.4982637   -4.3362610  
C   -6.2225092    0.0137344   -2.5340273  
H   -6.5931607    1.9005368   -0.2220874  
H   -7.2964256    0.0119731   -2.4058688  
H   -4.2016945    2.7960857    0.5644648  
H   -2.4284973    1.7712468   -0.8805872  
C    3.1301144    0.0010313    3.1728260  
C    2.5367765    0.0002768    1.9564670  
C    1.1089900   -0.0001027    2.2356185  
C    1.0177864    0.0004150    3.7115134  
N    2.1993570    0.0011613    4.2663826  
C   -0.2459220    0.0002880    4.3957118  
C   -1.3675327    0.0000606    3.6398520  
O   -2.6129319   -0.0000866    4.1448486  
C   -1.3083589   -0.0000910    2.1483229  
O   -2.3693264   -0.0004206    1.5241687  
C    0.0000000    0.0000000    1.4700000  
H    3.0096015    0.0001008    0.9892483  
H   -0.2829642    0.0004689    5.4753125  
H   -3.1967446   -0.0002093    3.3649027  
H    4.1849273    0.0015113    3.3971983  
