60

C    8.3707508    0.7060382   -3.7639049  
C    9.6366068    0.4546469   -4.2402224  
C   10.2513809   -0.4544723   -3.3290943  
C    9.3044680   -0.7246458   -2.3081685  
N    8.1744148   -0.0025411   -2.6017016  
C    9.5706117   -1.5841833   -1.2380507  
C   10.8152234   -2.1821065   -1.1979814  
O   11.1275965   -3.0305095   -0.1754124  
C   11.7735147   -1.9248102   -2.2070868  
O   12.9654132   -2.5955123   -2.0257555  
C   11.5117407   -1.0767577   -3.2629309  
H   10.0646822    0.8756807   -5.1337977  
H    8.8532561   -1.7941408   -0.4566922  
H   12.0308941   -3.3323461   -0.3373223  
H   13.5563276   -2.3667505   -2.7496976  
H   12.2656381   -0.8988851   -4.0208745  
H    7.5929049    1.3358380   -4.1604727  
C    5.6706436   -0.0000133   -2.2998306  
C    6.9366746   -0.0017199   -1.8086710  
C    6.8296106   -0.0022716   -0.3687500  
C    5.3870837   -0.0007647   -0.0590647  
N    4.7390840    0.0009613   -1.2727298  
C    4.8700559   -0.0011563    1.1956809  
C    5.7961363   -0.0029726    2.3159070  
O    5.4290426   -0.0033969    3.4836151  
C    7.3281306   -0.0043366    2.0112798  
O    8.1174235   -0.0055632    2.9463069  
C    7.7645002   -0.0040372    0.6172090  
H    3.8085777   -0.0001594    1.4010418  
H    8.8269284   -0.0051935    0.4147985  
H    5.3397978    0.0008313   -3.3257105  
C    3.2798077    0.0005856   -1.4499661  
C    2.5571132    0.0005565   -2.5996564  
C    1.1637425    0.0001547   -2.2210366  
C    1.1336959   -0.0000200   -0.7459475  
N    2.4483509   -0.0001429   -0.3402730  
C    0.0000000    0.0000000    0.0000000  
C   -1.2757370   -0.0000187   -0.6964411  
O   -2.3524597   -0.0000640   -0.1142306  
C   -1.2676502   -0.0000874   -2.2584078  
O   -2.3355774   -0.0004102   -2.8557287  
C    0.0181551    0.0001758   -2.9516297  
H    2.9547342    0.0006074   -3.5989118  
H    0.0150776    0.0003317   -4.0331632  
H    2.7563626    0.0012823    0.6148051  
C    2.3971438    2.0127888    3.1728260  
C    1.9431056    1.6308205    1.9564670  
C    0.8496017    0.7127664    2.2356185  
C    0.7794028    0.6545384    3.7115134  
N    1.6840587    1.4146091    4.2663826  
C   -0.1885723   -0.1578550    4.3957118  
C   -1.0476298   -0.8789867    3.6398520  
O   -2.0015663   -1.6796266    4.1448486  
C   -1.0022026   -0.8410666    2.1483229  
O   -1.8147390   -1.5232959    1.5241687  
C    0.0000000    0.0000000    1.4700000  
H    2.3054237    1.9346118    0.9892483  
H   -0.2170646   -0.1815267    5.4753125  
H   -2.4487139   -2.0549881    3.3649027  
H    3.2048689    2.6911772    3.3971983  
