62

C    3.1350902   -3.0510296   -8.0347092  
C    2.6246602   -1.8279991   -7.6657566  
C    3.0188456   -0.8927978   -8.6680632  
C    3.7740217   -1.6090692   -9.6316967  
N    3.8269286   -2.9162395   -9.2156149  
C    4.3241797   -1.0022668  -10.7647933  
C    4.1077969    0.3522231  -10.9282368  
O    4.6221534    0.9948072  -12.0170602  
C    3.3573043    1.0841713   -9.9775380  
O    3.2306095    2.4238909  -10.2815822  
C    2.8144932    0.4862524   -8.8593360  
H    4.2872025   -3.6626965   -9.7044220  
H    4.9008243   -1.5425738  -11.5028644  
H    4.3580246    1.9206600  -11.9377083  
H    2.7106987    2.8448482   -9.5901399  
H    2.2443625    1.0727599   -8.1483943  
H    3.0616001   -4.0085585   -7.5481945  
C    2.0510681   -2.1230736   -5.2235531  
C    1.1049649   -1.6611196   -4.3381417  
C    0.2551153   -0.7735538   -5.0624227  
C    0.7354330   -0.7333646   -6.3964410  
N    1.8277566   -1.5625119   -6.4593733  
C    0.1362323    0.0430189   -7.3929229  
C   -0.9681449    0.7922494   -7.0362954  
O   -1.5919784    1.5679113   -7.9702090  
C   -1.4620707    0.7656522   -5.7103443  
O   -2.5682022    1.5662132   -5.5130671  
C   -0.8712826    0.0001710   -4.7267111  
H    1.0365104   -1.9298484   -3.2979053  
H    0.4975509    0.0781061   -8.4114609  
H   -2.3277822    2.0009093   -7.5181345  
H   -2.8379856    1.4907869   -4.5926697  
H    2.8683637   -2.8069635   -5.0709721  
C    1.0965514    0.0001359   -0.8010305  
C    0.0000000    0.0000000    0.0000000  
C   -1.1546563    0.0001470   -0.8669513  
C   -0.6372014    0.0003519   -2.2486282  
N    0.7342871    0.0007337   -2.1395014  
C   -1.4147739    0.0001352   -3.3608717  
C   -2.8576049   -0.0001048   -3.1854462  
O   -3.6427779   -0.0002494   -4.1244907  
C   -3.4275840   -0.0000725   -1.7311666  
O   -4.6406831    0.0000333   -1.5710060  
C   -2.4891867   -0.0001091   -0.6116744  
H   -2.8919122   -0.0002918    0.3920866  
H    2.1388272    0.0000663   -0.5261648  
H    1.3735872   -0.0006099   -2.9130262  
C    2.5128556    2.1077716    2.9199648  
C    1.9592212    1.6432552    4.0696553  
C    0.8915788    0.7479214    3.6910360  
C    0.8684491    0.7287414    2.2159470  
N    1.8754542    1.5738793    1.8102719  
C    0.0000000    0.0000000    1.4700000  
C   -0.9772830   -0.8200135    2.1664417  
O   -1.8021297   -1.5120829    1.5842315  
C   -0.9711318   -0.8147624    3.7284083  
O   -1.7894187   -1.5009653    4.3257297  
C    0.0140216    0.0115358    4.4216297  
H    2.2638494    1.8988021    5.0689105  
H    0.0117648    0.0094386    5.5031631  
H    3.3327358    2.7953732    2.7900019  
H    2.1123206    1.7707734    0.8551938  
