62

C    1.1188646    0.0008222   -0.8003804  
C    0.0000000    0.0000000    0.0000000  
C   -1.1323861    0.0008899   -0.8673531  
C   -0.6382658    0.0019679   -2.1969280  
N    0.7324023    0.0038481   -2.1202236  
C   -1.4770906    0.0027317   -3.3154813  
C   -2.8395469    0.0020945   -3.0876864  
O   -3.7039191    0.0024426   -4.1440354  
C   -3.3517867    0.0013931   -1.7684336  
O   -4.7300488    0.0012366   -1.7073134  
C   -2.5248543    0.0009122   -0.6644821  
H    1.3576321   -0.0056167   -2.9057040  
H   -4.5940021    0.0021828   -3.7685142  
H   -4.9934598    0.0007262   -0.7819928  
H   -2.9462578    0.0005605    0.3339647  
H    2.1619890    0.0009354   -0.5342068  
C    1.8836778   -2.1362885   -5.0810760  
C    1.8358591   -1.7275861   -6.3703606  
C    0.7030374   -0.8169590   -6.4333928  
C    0.1677643   -0.7920098   -5.0551894  
N    0.8558155   -1.5634006   -4.2579875  
C   -0.9736286    0.0040462   -4.6965764  
C   -1.5536716    0.7419465   -5.6704281  
O   -2.6247560    1.5303572   -5.4774861  
C   -1.0366284    0.7382179   -7.0707188  
O   -1.6142386    1.4340382   -7.9058361  
C    0.1355215   -0.0866895   -7.4135267  
H    2.4887449   -2.0092005   -7.1787599  
H   -2.8038808    1.9233564   -6.3507665  
H    2.5838930   -2.8188171   -4.6262937  
C    1.0531683   -1.1484342   -9.5275243  
C    1.4154650   -0.7879928  -10.7856571  
C    1.1888413    0.6335717  -10.8980467  
C    0.6610604    1.0749454   -9.5928924  
N    0.6025524   -0.0527795   -8.8069517  
C    0.3209527    2.3542527   -9.2938877  
C    0.4854948    3.3637900  -10.3265034  
O    0.2074077    4.5434447  -10.1550850  
C    1.0425681    2.9187825  -11.7162667  
O    1.1851258    3.7598077  -12.5935431  
C    1.3741208    1.5106665  -11.9190815  
H    1.7976596   -1.4432144  -11.5480390  
H   -0.0643196    2.6569842   -8.3301297  
H    1.7594695    1.2107632  -12.8841153  
H    1.0772490   -2.1223320   -9.0661867  
C    0.8676693    0.7151171    2.2619005  
C    0.5875920    0.4624972    3.5848544  
C   -0.5048400   -0.4542819    3.6114698  
C   -0.8517165   -0.7276451    2.2635546  
N    0.0000000    0.0000000    1.4700000  
C   -1.8902865   -1.5946756    1.9108239  
C   -2.5912627   -2.1969500    2.9375057  
O   -3.6148162   -3.0527051    2.6493466  
C   -2.2603868   -1.9365747    4.2886322  
O   -3.0513550   -2.6123276    5.1947621  
C   -1.2361111   -1.0811317    4.6373480  
H    1.1060808    0.8876438    4.4271209  
H   -2.1597133   -1.8070987    0.8854031  
H   -3.9636755   -3.3565188    3.4974381  
H   -2.7621927   -2.3810384    6.0827341  
H   -1.0058879   -0.9010589    5.6809233  
H    1.6167816    1.3499334    1.8205408  
