62

C    4.8667110   -4.3701704   -8.6493128  
C    5.6666986   -5.0014641   -7.7252155  
C    5.2267403   -4.5788934   -6.4358469  
C    4.1460927   -3.6826195   -6.6378858  
N    3.9549104   -3.5767733   -7.9931953  
C    3.4652985   -3.0686353   -5.5822669  
C    3.8828245   -3.3650653   -4.2993099  
O    3.2527965   -2.7935643   -3.2318530  
C    4.9593160   -4.2565473   -4.0774023  
O    5.2557516   -4.4490282   -2.7438283  
C    5.6315699   -4.8624122   -5.1183294  
H    6.4694140   -5.6818873   -7.9525157  
H    3.2493231   -3.0178457   -8.4378603  
H    3.6947007   -3.1303844   -2.4415761  
H    5.9933317   -5.0636323   -2.6818436  
H    6.4525442   -5.5407352   -4.9174404  
H    4.8753112   -4.4219643   -9.7245805  
C    2.3446867   -2.1385756   -5.7825620  
C    1.7992126   -1.7303697   -6.9519228  
C    0.7308350   -0.8198476   -6.5697989  
C    0.7735872   -0.7944097   -5.0919259  
N    1.7176442   -1.5654463   -4.6247557  
C   -0.1387079    0.0017019   -4.3179684  
C   -1.0519387    0.7391884   -4.9898748  
O   -1.9638775    1.5275967   -4.3958873  
C   -1.1200794    0.7349610   -6.4810151  
O   -1.9771136    1.4304206   -7.0260370  
C   -0.1732958   -0.0899934   -7.2523615  
H    2.0864373   -2.0122467   -7.9504840  
H   -2.4685602    1.9202492   -5.1309193  
H   -0.2553893   -0.0654070   -8.3307328  
C    3.3041273    0.0001178   -1.5420428  
C    2.5845373   -0.0004780   -0.3695851  
C    1.2040007   -0.0000007   -0.7283589  
C    1.1422374    0.0006038   -2.1454372  
N    2.4348641    0.0026111   -2.6077464  
C   -0.0655179    0.0008799   -2.8497918  
C   -1.2321766    0.0002325   -2.1101402  
O   -2.4392814    0.0001148   -2.7472522  
C   -1.1911209   -0.0000007   -0.6955266  
O   -2.4371528   -0.0002320   -0.1032862  
C    0.0000000    0.0000000    0.0000000  
H    3.0031533   -0.0000660    0.6222584  
H    2.7054631   -0.0071097   -3.5745261  
H   -3.1132988   -0.0000648   -2.0551787  
H   -2.3200282   -0.0004072    0.8516409  
H    4.3686625    0.0004073   -1.7024290  
C    0.0000000    0.0000000    1.4700000  
C    1.0541688    0.0001722    2.3260392  
C    0.5103138    0.0000454    3.6635956  
C   -0.9576371   -0.0002459    3.5155732  
N   -1.2018458    0.0001392    2.1615969  
C   -1.8348311   -0.0008317    4.5510609  
C   -1.2972847   -0.0009736    5.9014604  
O   -2.0050672   -0.0014265    6.9001319  
C    0.2542623   -0.0004184    6.0817573  
O    0.7184670   -0.0002256    7.2139121  
C    1.0974552   -0.0000873    4.8889129  
H    2.0940752    0.0005483    2.0517982  
H   -2.9081052   -0.0011668    4.4207061  
H    2.1707277    0.0000911    5.0223670  
H   -2.1128194   -0.0014912    1.7406791  
