64

C    5.9749684   -2.1251789   -1.6083417  
C    7.2553499   -1.6277864   -1.5329081  
C    7.4277361   -0.7513324   -2.6449833  
C    6.2084289   -0.7536907   -3.3696964  
N    5.3486230   -1.5996427   -2.7141682  
C    6.0171544    0.0017175   -4.5305414  
C    7.0759530    0.7738019   -4.9675877  
O    6.9432201    1.5310672   -6.0953937  
C    8.3005210    0.7891135   -4.2583512  
O    9.2583028    1.6075701   -4.8206010  
C    8.4900151    0.0439264   -3.1132252  
H    7.9767604   -1.8680578   -0.7707861  
H    4.4032247   -1.7945078   -2.9902671  
H    7.7868924    1.9847481   -6.2205101  
H   10.0534275    1.5604508   -4.2810078  
H    9.4392976    0.0757365   -2.5913740  
H    5.4594402   -2.8143457   -0.9616288  
C    1.7334697    0.0049246   -3.2500361  
C    3.1090791    0.0036299   -3.2628663  
C    3.5126984    0.0054159   -4.6309628  
C    2.3299048    0.0080770   -5.4138543  
N    1.2677984    0.0057533   -4.5440601  
C    2.3483174    0.0106630   -6.8118676  
C    3.5832508    0.0108677   -7.4308333  
O    3.6589641    0.0136950   -8.7936506  
C    4.7745980    0.0078629   -6.6669612  
O    5.9240674    0.0080678   -7.4298928  
C    4.7571865    0.0050375   -5.2877531  
H    3.7435740    0.0005372   -2.3931536  
H    0.2997754    0.0173728   -4.8101016  
H    1.4503964    0.0125541   -7.4143093  
H    4.5993502    0.0130212   -9.0148716  
H    6.6822233    0.0059631   -6.8376102  
C    1.1319247    0.0015655   -0.8009267  
C    0.7969916    0.0034943   -2.1169401  
C   -0.6453337    0.0035710   -2.1842668  
C   -1.1266832    0.0015433   -0.7896026  
N    0.0000000    0.0000000    0.0000000  
C   -2.4346130    0.0013964   -0.4276294  
C   -3.4350109    0.0031408   -1.4820183  
O   -4.6384610    0.0030973   -1.2583915  
C   -2.9478956    0.0050505   -2.9661075  
O   -3.7809378    0.0062218   -3.8623775  
C   -1.5113821    0.0053090   -3.2312122  
H   -2.7664565    0.0000232    0.6013446  
H   -1.1823527    0.0068407   -4.2614846  
H    2.1104317    0.0009391   -0.3488056  
C    2.5285572    2.1210227    2.9438989  
C    1.9331703    1.6216660    4.0790748  
C    0.8903039    0.7472258    3.6520102  
C    0.8972198    0.7527806    2.2336141  
N    1.9028376    1.5986179    1.8362361  
C    0.0000000    0.0000000    1.4700000  
C   -0.9207814   -0.7726952    2.1506477  
O   -1.8198395   -1.5274828    1.4542253  
C   -0.9436862   -0.7911793    3.5655508  
O   -1.9197945   -1.6098497    4.0950179  
C   -0.0590329   -0.0485852    4.3195194  
H    2.2150357    1.8593692    5.0905303  
H    2.1533708    1.7953814    0.8841339  
H   -2.3621246   -1.9821033    2.1118817  
H   -1.8668290   -1.5649508    5.0545920  
H   -0.1007624   -0.0827977    5.4019087  
H    3.3491200    2.8096064    2.8367138  
