64

C    0.4824867   -0.3789092   -9.7085017  
C   -0.0354712    0.8369219   -9.3264774  
C    0.3700946    1.7891841  -10.3079630  
C    1.1396534    1.0902623  -11.2729561  
N    1.1897939   -0.2234469  -10.8776452  
C    1.7036364    1.7166157  -12.3884805  
C    1.4865493    3.0731816  -12.5326327  
O    2.0140643    3.7345166  -13.6037900  
C    0.7218124    3.7879986  -11.5802513  
O    0.5963200    5.1322745  -11.8640094  
C    0.1653563    3.1707865  -10.4793744  
H    1.6581807   -0.9609016  -11.3723732  
H    2.2912806    1.1895923  -13.1274829  
H    1.7469042    4.6584326  -13.5128553  
H    0.0662879    5.5408376  -11.1728188  
H   -0.4155096    3.7444608   -9.7666531  
H    0.4045455   -1.3444232   -9.2387499  
C    0.2278664   -0.7147031   -5.1416512  
C    0.4566972   -0.4621231   -6.4744326  
C   -0.5487152    0.4543751   -6.9031252  
C   -1.3694346    0.7276158   -5.7789872  
N   -0.8712826    0.0001710   -4.7267111  
C   -2.4650420    1.5943700   -5.8352954  
C   -2.7369115    2.1964888   -7.0484392  
O   -3.7946896    3.0519731   -7.1591910  
C   -1.9298750    1.9362321   -8.1814774  
O   -2.3299487    2.6118028   -9.3158885  
C   -0.8490363    1.0810615   -8.1267245  
H    1.2499573   -0.8871153   -7.0652905  
H   -3.0945512    1.8066988   -4.9821620  
H   -3.8053476    3.3557178   -8.0761917  
H   -1.7329154    2.3806103  -10.0340143  
H    0.7608759   -1.3493368   -4.4545558  
C    1.0965514    0.0001359   -0.8010305  
C    0.0000000    0.0000000    0.0000000  
C   -1.1546563    0.0001470   -0.8669513  
C   -0.6372014    0.0003519   -2.2486282  
N    0.7342871    0.0007337   -2.1395014  
C   -1.4147739    0.0001352   -3.3608717  
C   -2.8576049   -0.0001048   -3.1854462  
O   -3.6427779   -0.0002494   -4.1244907  
C   -3.4275840   -0.0000725   -1.7311666  
O   -4.6406831    0.0000333   -1.5710060  
C   -2.4891867   -0.0001091   -0.6116744  
H   -2.8919122   -0.0002918    0.3920866  
H    2.1388272    0.0000663   -0.5261648  
H    1.3735872   -0.0006099   -2.9130262  
C    0.0000000    0.0000000    1.4700000  
C    1.0521667    0.0011902    2.3562342  
C    0.4917218    0.0011957    3.6679131  
C   -0.9187428   -0.0003148    3.5178682  
N   -1.1833171    0.0009411    2.1707914  
C   -1.7951701   -0.0010350    4.6072090  
C   -1.2375837   -0.0005224    5.8710424  
O   -2.0474215   -0.0015360    6.9697579  
C    0.1673580    0.0013566    6.0411963  
O    0.5673524    0.0020687    7.3615553  
C    1.0325770    0.0023412    4.9669890  
H    2.0953057    0.0030649    2.0900562  
H   -2.0989778   -0.0102372    1.7591824  
H   -2.8710934   -0.0020419    4.4995513  
H   -1.4634884   -0.0006497    7.7393593  
H    1.5290710    0.0033153    7.3880045  
H    2.1042148    0.0039609    5.1284455  
