66

C   -6.3858710    1.0723065   -1.4156391  
C   -6.3182766    1.9581789   -0.3653402  
C   -7.6585835    2.2149673    0.0496738  
C   -8.5081730    1.4512200   -0.7910492  
N   -7.7032151    0.7707150   -1.6705800  
C   -9.9007962    1.4595701   -0.6672754  
C  -10.4456741    2.2531443    0.3234445  
O  -11.7998428    2.2982071    0.4883951  
C   -9.6145645    3.0226362    1.1719464  
O  -10.3079761    3.7610771    2.1085508  
C   -8.2406448    3.0150936    1.0502376  
H   -5.4142149    2.3696439    0.0498249  
H   -8.0244884    0.1388257   -2.3815518  
H  -10.5538538    0.8798588   -1.3049688  
H  -11.9654384    2.9034105    1.2229513  
H   -9.6732320    4.2510334    2.6401961  
H   -7.6298709    3.6151045    1.7146324  
C   -3.9682051    0.7216919   -2.0578207  
C   -3.2578655    0.0024282   -2.9908505  
C   -4.2079033   -0.7252726   -3.7670461  
C   -5.4928184   -0.4072582   -3.2573538  
N   -5.3110076    0.4722167   -2.2190445  
C   -6.6702484   -0.9459426   -3.7848632  
C   -6.5483633   -1.8213774   -4.8464357  
O   -7.6658887   -2.3762219   -5.3998765  
C   -5.2750889   -2.1513167   -5.3686705  
O   -5.3202344   -3.0371230   -6.4253883  
C   -4.1130838   -1.6204795   -4.8485905  
H   -7.6525699   -0.7076999   -3.4008236  
H   -7.3606740   -2.9484699   -6.1158655  
H   -4.4197936   -3.2069059   -6.7186184  
H   -3.1520151   -1.8920014   -5.2694251  
H   -3.6231571    1.3918167   -1.2891638  
C    0.0000000    0.0000000    0.0000000  
C    1.0521666   -0.0011982   -0.8862343  
C    0.4917215   -0.0011996   -2.1979132  
C   -0.9187429    0.0003215   -2.0478682  
N   -1.1833171   -0.0009323   -0.7007913  
C   -1.7951703    0.0010483   -3.1372089  
C   -1.2375841    0.0005313   -4.4010422  
O   -2.0474218    0.0015510   -5.4997578  
C    0.1673576   -0.0013585   -4.5711963  
O    0.5673520   -0.0020735   -5.8915554  
C    1.0325768   -0.0023493   -3.4969892  
H    2.0953056   -0.0030808   -0.6200564  
H   -2.0989778    0.0102529   -0.2891822  
H   -1.4634888    0.0006601   -6.2693595  
H    1.5290707   -0.0033271   -5.9180047  
H    2.1042146   -0.0039770   -3.6584456  
C    1.1188642   -0.0008217    2.2703808  
C    0.0000000    0.0000000    1.4700000  
C   -1.1323862   -0.0008904    2.3373528  
C   -0.6382662   -0.0019682    3.6669281  
N    0.7324016   -0.0038477    3.5902241  
C   -1.4770914   -0.0027325    4.7854808  
C   -2.8395474   -0.0020958    4.5576857  
O   -3.7039201   -0.0024443    5.6140350  
C   -3.3517868   -0.0013946    3.2384331  
O   -4.7300496   -0.0012389    3.1773122  
C   -2.5248543   -0.0009135    2.1344818  
H    1.3576314    0.0056174    4.3757045  
H   -1.1067570   -0.0036993    5.8013813  
H   -4.5940033   -0.0021850    5.2385129  
H   -4.9934601   -0.0007286    2.2519915  
H   -2.9462578   -0.0005617    1.1360343  
H    2.1619896   -0.0009344    2.0042067  
