60

C    4.2786087   -0.0695403   -8.1891848  
C    5.3038099   -0.7274595   -8.8283820  
C    5.2552488   -0.3406666  -10.2004723  
C    4.1706225    0.5626669  -10.3401162  
N    3.5980610    0.7036957   -9.1003986  
C    3.8266329    1.1482303  -11.5622356  
C    4.5916891    0.8160637  -12.6633873  
O    4.2997677    1.3593068  -13.8810401  
C    5.6776161   -0.0835923  -12.5442314  
O    6.3417186   -0.3135977  -13.7314158  
C    6.0173750   -0.6618521  -11.3389493  
H    6.0002279   -1.4039083   -8.3631811  
H    2.8124666    1.2914600   -8.8874287  
H    3.0010724    1.8373356  -11.6753125  
H    4.9461304    0.9997370  -14.5024826  
H    7.0599589   -0.9312640  -13.5634186  
H    6.8544061   -1.3475654  -11.2785009  
C    5.7075974   -2.1458903   -4.5134262  
C    5.6080289   -1.7400310   -5.8006493  
C    4.4743461   -0.8284977   -5.8198983  
C    3.9952579   -0.7999673   -4.4212404  
N    4.7143360   -1.5702093   -3.6507568  
C    2.8699641   -0.0020530   -4.0185824  
C    2.2516356    0.7342028   -4.9698617  
O    1.1898872    1.5240358   -4.7355640  
C    2.7116330    0.7268602   -6.3898995  
O    2.1013097    1.4213447   -7.2025606  
C    3.8682737   -0.0998983   -6.7779432  
H    6.2274582   -2.0240591   -6.6341425  
H    0.9759270    1.9152453   -5.6017797  
H    6.4250584   -2.8280480   -4.0857763  
C    3.2573670   -0.0002921   -1.5109382  
C    2.5379468   -0.0001711   -0.3591962  
C    1.1435043    0.0000330   -0.7338498  
C    1.1092608   -0.0000085   -2.2088474  
N    2.4227562    0.0001906   -2.6182610  
C   -0.0265533   -0.0002525   -2.9515663  
C   -1.3003033   -0.0002641   -2.2514979  
O   -2.3786785   -0.0004132   -2.8306425  
C   -1.2877724    0.0000310   -0.6895608  
O   -2.3539956    0.0003306   -0.0892035  
C    0.0000000    0.0000000    0.0000000  
H    2.9384091   -0.0000370    0.6389240  
H   -0.0296290   -0.0004088   -4.0327231  
H    4.3270394   -0.0004767   -1.6439445  
C    0.8681109    0.7263879    2.2709268  
C    0.6127770    0.5096195    3.5869401  
C   -0.4920590   -0.4175482    3.6542670  
C   -0.8620974   -0.7254003    2.2596025  
N    0.0000000    0.0000000    1.4700000  
C   -1.8641242   -1.5660088    1.8976294  
C   -2.6293522   -2.2103885    2.9520183  
O   -3.5512764   -2.9839180    2.7283916  
C   -2.2549728   -1.8987399    4.4361073  
O   -2.8923672   -2.4351063    5.3323774  
C   -1.1543735   -0.9755647    4.7012123  
H    1.1382914    0.9492124    4.4159191  
H   -2.1192137   -1.7782617    0.8686553  
H   -0.9013378   -0.7652422    5.7314848  
H    1.6172880    1.3558399    1.8188057  
