62

C    0.0000000    0.0000000    0.0000000  
C   -1.0521667   -0.0016055   -0.8862345  
C   -0.4917236   -0.0001107   -2.1979131  
C    0.9187400    0.0021264   -2.0478682  
N    1.1833105    0.0040852   -0.7007912  
C    1.7951670    0.0037350   -3.1372086  
C    1.2375809    0.0027660   -4.4010424  
O    2.0474185    0.0039042   -5.4997578  
C   -0.1673607    0.0009121   -4.5711964  
O   -0.5673558    0.0005614   -5.8915551  
C   -1.0325795   -0.0004022   -3.4969891  
H   -2.0953065   -0.0025024   -0.6200561  
H    2.0989964   -0.0046601   -0.2891826  
H    2.8710893    0.0055868   -3.0295509  
H    1.4634850    0.0032391   -6.2693593  
H   -1.5290741   -0.0007473   -5.9180046  
C   -2.4861732   -0.0020676   -3.7159923  
C   -3.4691561   -0.0035200   -2.7857657  
C   -4.7077449   -0.0047757   -3.5489147  
C   -4.2744162   -0.0037263   -4.9627069  
N   -2.9732131   -0.0022185   -5.0669059  
C   -5.2170376   -0.0045453   -6.0473962  
C   -6.5327451   -0.0067204   -5.7339563  
O   -7.5212075   -0.0076998   -6.6444411  
C   -7.0015536   -0.0081977   -4.3167841  
O   -8.2141985   -0.0100364   -4.1053340  
C   -6.0150658   -0.0072747   -3.2219032  
H   -3.3664317   -0.0038053   -1.7140733  
H   -8.3418915   -0.0092707   -6.1194385  
H   -6.3952615   -0.0085148   -2.2091449  
C   -1.9296577   -2.0113590   -8.2902232  
C   -2.7487177   -1.6310955   -7.2821958  
C   -3.6973139   -0.7141593   -7.8952969  
C   -3.2929015   -0.6546454   -9.3163856  
N   -2.2573377   -1.4130595   -9.5538848  
C   -3.9931067    0.1571654  -10.2733403  
C   -5.0495440    0.8765108   -9.8308278  
O   -5.7936193    1.6764189  -10.6134776  
C   -5.4824524    0.8372590   -8.4028187  
O   -6.4527103    1.5178832   -8.0702961  
C   -4.7478919   -0.0031764   -7.4405226  
H   -2.7135793   -1.9353310   -6.2500708  
H   -3.6755930    0.1818066  -11.3055645  
H   -6.4668594    2.0504907  -10.0168443  
H   -1.0915546   -2.6885206   -8.2454045  
C    3.3041272   -0.0001177    3.0120429  
C    2.5845372    0.0004780    1.8395852  
C    1.2040006    0.0000008    2.1983588  
C    1.1422373   -0.0006037    3.6154372  
N    2.4348639   -0.0026109    4.0777464  
C   -0.0655181   -0.0008797    4.3197917  
C   -1.2321768   -0.0002324    3.5801400  
O   -2.4392816   -0.0001146    4.2172520  
C   -1.1911209    0.0000007    2.1655264  
O   -2.4371527    0.0002320    1.5732860  
C    0.0000000    0.0000000    1.4700000  
H    3.0031534    0.0000661    0.8477417  
H    2.7054629    0.0071099    5.0445261  
H   -0.1193549   -0.0014844    5.3997470  
H   -3.1132988    0.0000648    3.5251786  
H   -2.3200282    0.0004071    0.6183591  
H    4.3686625   -0.0004071    3.1724291  
