60

C    4.5318911    0.0286587   -6.6733989  
C    5.7175093   -0.6468390   -6.8479837  
C    6.2188837   -0.2827130   -8.1327550  
C    5.2889164    0.6255459   -8.7003402  
N    4.2757858    0.7911845   -7.7888870  
C    5.4622474    1.1929343   -9.9663639  
C    6.5951619    0.8371907  -10.6721460  
O    6.8140333    1.3619847  -11.9129924  
C    7.5344506   -0.0677426  -10.1229198  
O    8.6098379   -0.3220904  -10.9488678  
C    7.3639645   -0.6280812   -8.8741275  
H    6.1653070   -1.3201572   -6.1372708  
H    3.4774998    1.3877778   -7.9105303  
H    4.7571022    1.8856750  -10.4046371  
H    7.6483793    0.9876717  -12.2244770  
H    9.1956317   -0.9417527  -10.5033701  
H    8.1004463   -1.3183884   -8.4797308  
C    4.6190968   -2.0899186   -2.8279649  
C    3.4606683   -1.6280057   -2.2906061  
C    2.8761400   -0.7301693   -3.2586206  
C    3.7955633   -0.7067283   -4.4122677  
N    4.8319966   -1.5514032   -4.0878914  
C    3.5979915    0.0246979   -5.5381833  
C    2.3999527    0.8436571   -5.6190796  
O    2.1321345    1.5380350   -6.5908892  
C    1.4124498    0.8342977   -4.4088913  
O    0.4006154    1.5200499   -4.4654210  
C    1.7334695    0.0049281   -3.2500363  
H    3.0613135   -1.8865707   -1.3260992  
H    5.3352943   -2.7782578   -2.4094676  
H    5.6204863   -1.7480983   -4.6766545  
C    1.1319246    0.0015678   -0.8009268  
C    0.7969914    0.0034958   -2.1169401  
C   -0.6453340    0.0035696   -2.1842669  
C   -1.1266832    0.0015410   -0.7896025  
N    0.0000000    0.0000000    0.0000000  
C   -2.4346129    0.0013913   -0.4276292  
C   -3.4350111    0.0031335   -1.4820181  
O   -4.6384614    0.0030875   -1.2583914  
C   -2.9478961    0.0050442   -2.9661074  
O   -3.7809382    0.0062135   -3.8623773  
C   -1.5113825    0.0053055   -3.2312122  
H   -2.7664565    0.0000174    0.6013448  
H   -1.1823533    0.0068381   -4.2614848  
H    2.1104316    0.0009435   -0.3488059  
C    2.3971438    2.0127888    3.1728260  
C    1.9431056    1.6308205    1.9564670  
C    0.8496017    0.7127664    2.2356185  
C    0.7794028    0.6545384    3.7115134  
N    1.6840587    1.4146091    4.2663826  
C   -0.1885723   -0.1578550    4.3957118  
C   -1.0476298   -0.8789867    3.6398520  
O   -2.0015663   -1.6796266    4.1448486  
C   -1.0022026   -0.8410666    2.1483229  
O   -1.8147390   -1.5232959    1.5241687  
C    0.0000000    0.0000000    1.4700000  
H    2.3054237    1.9346118    0.9892483  
H   -0.2170646   -0.1815267    5.4753125  
H   -2.4487139   -2.0549881    3.3649027  
H    3.2048689    2.6911772    3.3971983  
