62

C    2.8883768   -5.4920778   -8.9391369  
C    2.5043609   -4.5307842   -8.0330942  
C    2.3864688   -3.3044576   -8.7519988  
C    2.7133458   -3.5815824  -10.1041379  
N    3.0150121   -4.9185371  -10.1826667  
C    2.7024909   -2.6013278  -11.1010186  
C    2.3550368   -1.3180011  -10.7261522  
O    2.3279847   -0.3225053  -11.6595715  
C    2.0260510   -1.0217162   -9.3819801  
O    1.7021987    0.3021432   -9.1678313  
C    2.0368118   -1.9882066   -8.3979538  
H    2.3316449   -4.6932019   -6.9829598  
H    3.2743333   -5.4067148  -11.0207689  
H    2.9507458   -2.8060679  -12.1333238  
H    2.0647750    0.4817130  -11.1935048  
H    1.4932660    0.4172210   -8.2357866  
H    3.0833520   -6.5411652   -8.7964527  
C    2.2991559   -2.1048094   -5.8924434  
C    1.6888962   -1.6397490   -7.0128795  
C    0.6412942   -0.7448177   -6.5810651  
C    0.6916338   -0.7264668   -5.1066432  
N    1.7177155   -1.5716517   -4.7520883  
C   -0.1387079    0.0017019   -4.3179684  
C   -1.1495776    0.8219303   -4.9644230  
O   -1.9445176    1.5135266   -4.3414737  
C   -1.2212021    0.8175538   -6.5247612  
O   -2.0683175    1.5039444   -7.0802107  
C   -0.2716611   -0.0081805   -7.2666415  
H   -0.3277639   -0.0054788   -8.3467194  
H    3.1245934   -2.7923368   -5.8038533  
H    2.0018702   -1.7690376   -3.8101002  
C    3.3041273    0.0001178   -1.5420428  
C    2.5845373   -0.0004780   -0.3695851  
C    1.2040007   -0.0000007   -0.7283589  
C    1.1422374    0.0006038   -2.1454372  
N    2.4348641    0.0026111   -2.6077464  
C   -0.0655179    0.0008799   -2.8497918  
C   -1.2321766    0.0002325   -2.1101402  
O   -2.4392814    0.0001148   -2.7472522  
C   -1.1911209   -0.0000007   -0.6955266  
O   -2.4371528   -0.0002320   -0.1032862  
C    0.0000000    0.0000000    0.0000000  
H    3.0031533   -0.0000660    0.6222584  
H    2.7054631   -0.0071097   -3.5745261  
H   -3.1132988   -0.0000648   -2.0551787  
H   -2.3200282   -0.0004072    0.8516409  
H    4.3686625    0.0004073   -1.7024290  
C    2.5528530    2.1414826    2.8079335  
C    2.0663498    1.7338582    4.0032312  
C    0.9804344    0.8229586    3.6752840  
C    0.9495562    0.7966882    2.1971295  
N    1.8690446    1.5676019    1.6831036  
C    0.0000000    0.0000000    1.4700000  
C   -0.8785127   -0.7372425    2.1869543  
O   -1.8187535   -1.5261249    1.6395491  
C   -0.8723269   -0.7321790    3.6796354  
O   -1.7010379   -1.4274584    4.2670412  
C    0.1115397    0.0933559    4.4024240  
H    2.4028853    2.0163452    4.9860947  
H   -2.2861435   -1.9184361    2.3990168  
H    0.0832434    0.0693689    5.4835595  
H    3.3664920    2.8238276    2.6198634  
