60

C    4.6588395    0.0040053   -8.0958721  
C    4.9590686    0.0040351   -6.7533637  
C    6.3813241    0.0046471   -6.6447829  
C    6.8995458    0.0052598   -7.9651511  
N    5.8268631    0.0028984   -8.8218680  
C    8.2704983    0.0062624   -8.2395155  
C    9.1340398    0.0069606   -7.1613357  
O   10.4825593    0.0083006   -7.3723066  
C    8.6362056    0.0059906   -5.8365807  
O    9.6226561    0.0064409   -4.8720821  
C    7.2838517    0.0047281   -5.5651687  
H    4.2412785    0.0025563   -5.9510127  
H    5.8845882    0.0132705   -9.8241359  
H    8.6718364    0.0065894   -9.2435724  
H   10.8955519    0.0082886   -6.4989791  
H    9.2020245    0.0057527   -4.0068239  
H    3.7039413    0.0032404   -8.5929915  
C    6.8068807    0.0035020   -4.1747020  
C    5.5278576    0.0022331   -3.7323476  
C    5.6328267    0.0014348   -2.2813202  
C    7.0869585    0.0022983   -2.0128351  
N    7.7802397    0.0035920   -3.1188859  
C    7.6138019    0.0019123   -0.6758530  
C    6.7282253    0.0011069    0.3464425  
O    7.0793819    0.0006613    1.6436435  
C    5.2547117    0.0005945    0.1078687  
O    4.5071913   -0.0002588    1.0858429  
C    4.7390840    0.0009613   -1.2727298  
H    4.6247027    0.0019722   -4.3183400  
H    8.6810612    0.0023565   -0.5089147  
H    6.2347362    0.0001389    2.1291602  
C    3.2798077    0.0005856   -1.4499661  
C    2.5571132    0.0005565   -2.5996564  
C    1.1637425    0.0001547   -2.2210366  
C    1.1336959   -0.0000200   -0.7459475  
N    2.4483509   -0.0001429   -0.3402730  
C    0.0000000    0.0000000    0.0000000  
C   -1.2757370   -0.0000187   -0.6964411  
O   -2.3524597   -0.0000640   -0.1142306  
C   -1.2676502   -0.0000874   -2.2584078  
O   -2.3355774   -0.0004102   -2.8557287  
C    0.0181551    0.0001758   -2.9516297  
H    2.9547342    0.0006074   -3.5989118  
H    0.0150776    0.0003317   -4.0331632  
H    2.7563626    0.0012823    0.6148051  
C    0.0000000    0.0000000    1.4700000  
C    1.0541688    0.0001722    2.3260392  
C    0.5103138    0.0000454    3.6635956  
C   -0.9576371   -0.0002459    3.5155732  
N   -1.2018458    0.0001392    2.1615969  
C   -1.8348311   -0.0008317    4.5510609  
C   -1.2972847   -0.0009736    5.9014604  
O   -2.0050672   -0.0014265    6.9001319  
C    0.2542623   -0.0004184    6.0817573  
O    0.7184670   -0.0002256    7.2139121  
C    1.0974552   -0.0000873    4.8889129  
H    2.0940752    0.0005483    2.0517982  
H   -2.9081052   -0.0011668    4.4207061  
H    2.1707277    0.0000911    5.0223670  
H   -2.1128194   -0.0014912    1.7406791  
