60

C    7.7613535   -1.0818848   -4.0763713  
C    6.9410535    0.0185219   -4.1695466  
C    7.7751644    1.1351330   -4.4729262  
C    9.1058879    0.6508052   -4.5537238  
N    9.0620723   -0.6987417   -4.3058908  
C   10.1960556    1.4787027   -4.8381672  
C    9.9381299    2.8199064   -5.0451104  
O   10.9659400    3.6727920   -5.3265495  
C    8.6172718    3.3221584   -4.9683667  
O    8.5243888    4.6792695   -5.1985072  
C    7.5413455    2.5060442   -4.6875316  
H    9.8547774   -1.3148584   -4.3060161  
H   11.2126823    1.1157648   -4.9010063  
H   10.5725503    4.5486659   -5.4331064  
H    7.6001810    4.9371349   -5.1281651  
H    6.5409157    2.9194057   -4.6350910  
H    7.5216924   -2.1094881   -3.8629398  
C    4.3630981   -2.0949037   -1.3110654  
C    3.1522514   -1.6320804   -1.7156885  
C    3.3924175   -0.7354493   -2.8216759  
C    4.8529074   -0.7137077   -3.0297340  
N    5.3832069   -1.5581154   -2.0817639  
C    5.4827050    0.0162381   -3.9848456  
C    4.6677391    0.8352837   -4.8666221  
O    5.1406430    1.5283993   -5.7578308  
C    3.1189447    0.8277106   -4.6641774  
O    2.4225435    1.5135518   -5.4003220  
C    2.5562217   -0.0001543   -3.6003001  
H    2.1995749   -1.8892847   -1.2880586  
H    4.5960548   -2.7827973   -0.5145584  
H    6.3605504   -1.7557299   -1.9686510  
C    0.0000000    0.0000000    0.0000000  
C    1.0541688   -0.0001719   -0.8560391  
C    0.5103141   -0.0000449   -2.1935955  
C   -0.9576367    0.0002461   -2.0455733  
N   -1.2018459   -0.0001392   -0.6915970  
C   -1.8348306    0.0008319   -3.0810611  
C   -1.2972842    0.0009739   -4.4314605  
O   -2.0050664    0.0014267   -5.4301321  
C    0.2542628    0.0004190   -4.6117571  
O    0.7184677    0.0002263   -5.7439119  
C    1.0974556    0.0000880   -3.4189127  
H    2.0940752   -0.0005479   -0.5817978  
H   -2.9081050    0.0011669   -2.9507065  
H   -2.1128195    0.0014911   -0.2706793  
C    0.0000000    0.0000000    1.4700000  
C    1.0541688    0.0001722    2.3260392  
C    0.5103138    0.0000454    3.6635956  
C   -0.9576371   -0.0002459    3.5155732  
N   -1.2018458    0.0001392    2.1615969  
C   -1.8348311   -0.0008317    4.5510609  
C   -1.2972847   -0.0009736    5.9014604  
O   -2.0050672   -0.0014265    6.9001319  
C    0.2542623   -0.0004184    6.0817573  
O    0.7184670   -0.0002256    7.2139121  
C    1.0974552   -0.0000873    4.8889129  
H    2.0940752    0.0005483    2.0517982  
H   -2.9081052   -0.0011668    4.4207061  
H    2.1707277    0.0000911    5.0223670  
H   -2.1128194   -0.0014912    1.7406791  
