60

C   -4.7524556    2.1221137   -4.4578987  
C   -5.9662519    1.6233867   -4.8707402  
C   -5.7059141    0.7488957   -5.9671384  
C   -4.3034862    0.7537715   -6.1795028  
N   -3.7550564    1.5992712   -5.2473160  
C   -3.6880742    0.0007577   -7.1840059  
C   -4.5032241   -0.7714769   -7.9885938  
O   -3.9544811   -1.5264652   -8.9845297  
C   -5.9046781   -0.7892811   -7.7925671  
O   -6.5790364   -1.6075548   -8.6751836  
C   -6.5125082   -0.0464567   -6.8019709  
H   -6.9218794    1.8615323   -4.4359345  
H   -2.7755779    1.7955427   -5.1469152  
H   -4.6882658   -1.9806917   -9.4186982  
H   -7.5188750   -1.5622051   -8.4745591  
H   -7.5883594   -0.0801458   -6.6759305  
H   -4.5194082    2.8105251   -3.6637097  
C   -0.2963294   -0.0005341   -4.3948471  
C    0.7278651   -0.0010067   -5.2865309  
C    0.1384639   -0.0010230   -6.6046519  
C   -1.3235478   -0.0004881   -6.4063792  
N   -1.5211840   -0.0006099   -5.0448251  
C   -2.2357336    0.0000549   -7.4111778  
C   -1.7448097   -0.0001093   -8.7792165  
O   -2.4864213    0.0002817   -9.7530304  
C   -0.2003578   -0.0009260   -9.0126110  
O    0.2247513   -0.0013774  -10.1600175  
C    0.6832431   -0.0011828   -7.8493818  
H    1.7765638   -0.0014917   -5.0481108  
H    1.7513078   -0.0015434   -8.0195610  
H   -2.4171880    0.0012266   -4.5929169  
C    3.1301143   -0.0010313   -1.7028257  
C    2.5367765   -0.0002767   -0.4864669  
C    1.1089900    0.0001027   -0.7656184  
C    1.0177864   -0.0004150   -2.2415133  
N    2.1993571   -0.0011613   -2.7963824  
C   -0.2459220   -0.0002879   -2.9257116  
C   -1.3675327   -0.0000606   -2.1698519  
O   -2.6129319    0.0000866   -2.6748482  
C   -1.3083588    0.0000910   -0.6783229  
O   -2.3693264    0.0004206   -0.0541685  
C    0.0000000    0.0000000    0.0000000  
H    3.0096014   -0.0001008    0.4807517  
H   -3.1967445    0.0002093   -1.8949025  
H    4.1849272   -0.0015113   -1.9271980  
C    0.0000000    0.0000000    1.4700000  
C    1.0541688    0.0001722    2.3260392  
C    0.5103138    0.0000454    3.6635956  
C   -0.9576371   -0.0002459    3.5155732  
N   -1.2018458    0.0001392    2.1615969  
C   -1.8348311   -0.0008317    4.5510609  
C   -1.2972847   -0.0009736    5.9014604  
O   -2.0050672   -0.0014265    6.9001319  
C    0.2542623   -0.0004184    6.0817573  
O    0.7184670   -0.0002256    7.2139121  
C    1.0974552   -0.0000873    4.8889129  
H    2.0940752    0.0005483    2.0517982  
H   -2.9081052   -0.0011668    4.4207061  
H    2.1707277    0.0000911    5.0223670  
H   -2.1128194   -0.0014912    1.7406791  
