64

C    5.9606908   -1.8982542   -4.9614836  
C    7.0282756   -2.7324043   -4.7228947  
C    7.8682112   -2.6733870   -5.8742513  
C    7.2569039   -1.7791737   -6.7900088  
N    6.0996795   -1.3280731   -6.2052380  
C    7.8110197   -1.4788196   -8.0380202  
C    9.0041333   -2.0921112   -8.3674585  
O    9.5891019   -1.8341897   -9.5734028  
C    9.6292064   -2.9875738   -7.4673206  
O   10.8117227   -3.5170463   -7.9413019  
C    9.0829890   -3.2845547   -6.2360711  
H    7.1821038   -3.3129531   -3.8294218  
H    5.4597830   -0.6720006   -6.6152165  
H    7.3500011   -0.7982774   -8.7405350  
H   10.4008701   -2.3572214   -9.6005381  
H   11.1685133   -4.1105616   -7.2734369  
H    9.5846934   -3.9745550   -5.5677365  
C    4.5582357   -2.0922259   -2.8633934  
C    4.7995864   -1.5811259   -4.1175841  
C    3.7180587   -0.7032885   -4.4246649  
C    2.8401176   -0.7189697   -3.3107077  
N    3.3790680   -1.5738357   -2.3815393  
C    1.6628945    0.0339172   -3.2649299  
C    1.3667033    0.8171317   -4.3635759  
O    0.2298885    1.5725146   -4.3714926  
C    2.2299647    0.8458161   -5.4846353  
O    1.7963536    1.6742724   -6.4990251  
C    3.3913533    0.1031247   -5.5305969  
H    2.9820494   -1.7789141   -1.4824841  
H    0.2153770    2.0351559   -5.2194415  
H    2.4353782    1.6358685   -7.2172003  
H    4.0328100    0.1452897   -6.4030841  
H    5.1331937   -2.7866339   -2.2750222  
C    1.1243410    0.0100105   -0.7919003  
C    0.7474072    0.0234665   -2.1148542  
C   -0.6787384    0.0234379   -2.1414698  
C   -1.1201748    0.0098411   -0.7935547  
N    0.0000000    0.0000000    0.0000000  
C   -2.4730818    0.0063307   -0.4408240  
C   -3.3971962    0.0170429   -1.4675058  
O   -4.7313520    0.0145490   -1.1793468  
C   -2.9763654    0.0303020   -2.8186325  
O   -4.0166484    0.0394464   -3.7247625  
C   -1.6418567    0.0334992   -3.1673480  
H   -2.8160166   -0.0041569    0.5845966  
H   -5.1938823    0.0230023   -2.0274386  
H   -3.6464680    0.0481700   -4.6127343  
H   -1.3497475    0.0435647   -4.2109234  
H    2.1062466    0.0053162   -0.3505405  
C    2.5528530    2.1414826    2.8079335  
C    2.0663498    1.7338582    4.0032312  
C    0.9804344    0.8229586    3.6752840  
C    0.9495562    0.7966882    2.1971295  
N    1.8690446    1.5676019    1.6831036  
C    0.0000000    0.0000000    1.4700000  
C   -0.8785127   -0.7372425    2.1869543  
O   -1.8187535   -1.5261249    1.6395491  
C   -0.8723269   -0.7321790    3.6796354  
O   -1.7010379   -1.4274584    4.2670412  
C    0.1115397    0.0933559    4.4024240  
H    2.4028853    2.0163452    4.9860947  
H   -2.2861435   -1.9184361    2.3990168  
H    0.0832434    0.0693689    5.4835595  
H    3.3664920    2.8238276    2.6198634  
