64

C    2.6887807   -2.9788121   -5.2682094  
C    3.1803193   -3.6395252   -4.1662497  
C    4.2828620   -4.4277539   -4.6108778  
C    4.4180585   -4.2053026   -6.0052108  
N    3.4333342   -3.3220539   -6.3723713  
C    5.4067344   -4.8228205   -6.7772094  
C    6.2749323   -5.6802912   -6.1297884  
O    7.2592032   -6.3094953   -6.8357101  
C    6.1558683   -5.9153806   -4.7393302  
O    7.0950194   -6.7951053   -4.2419126  
C    5.1805874   -5.3067378   -3.9771581  
H    2.7913031   -3.5636544   -3.1652984  
H    3.2870178   -2.9690977   -7.3008080  
H    5.5149752   -4.6575856   -7.8403107  
H    7.7443746   -6.8538180   -6.2020014  
H    6.9446624   -6.8984808   -3.2972909  
H    5.1138857   -5.5064330   -2.9140724  
C    1.5640650   -2.0395931   -5.3856081  
C    0.7230581   -1.5862621   -4.4205824  
C   -0.2043668   -0.6833976   -5.0605465  
C    0.1679199   -0.6476535   -6.4877525  
N    1.2472254   -1.4907308   -6.6189379  
C   -0.4698111    0.0915042   -7.4304336  
C   -1.5980276    0.9063962   -7.0113711  
O   -2.2374227    1.6070674   -7.7850208  
C   -2.0096059    0.8840406   -5.5047495  
O   -2.9576827    1.5662686   -5.1400902  
C   -1.2456329    0.0471727   -4.5828766  
H    0.7494882   -1.8536710   -3.3792337  
H   -0.1807621    0.1034055   -8.4721727  
H    1.7291266   -1.6799002   -7.4786088  
C    1.1243410    0.0099923   -0.7919003  
C    0.7474076    0.0234544   -2.1148543  
C   -0.6787381    0.0234490   -2.1414700  
C   -1.1201745    0.0098592   -0.7935546  
N    0.0000000    0.0000000    0.0000000  
C   -2.4730816    0.0063709   -0.4408240  
C   -3.3971958    0.0170982   -1.4675058  
O   -4.7313517    0.0146259   -1.1793471  
C   -2.9763648    0.0303504   -2.8186324  
O   -4.0166480    0.0395118   -3.7247624  
C   -1.6418562    0.0335260   -3.1673481  
H    1.4178717    0.0310972   -2.9571209  
H   -2.8160166   -0.0041111    0.5845966  
H   -5.1938818    0.0230867   -2.0274384  
H   -3.6464675    0.0482293   -4.6127343  
H    2.1062467    0.0052819   -0.3505407  
C    0.8676693    0.7151171    2.2619005  
C    0.5875920    0.4624972    3.5848544  
C   -0.5048400   -0.4542819    3.6114698  
C   -0.8517165   -0.7276451    2.2635546  
N    0.0000000    0.0000000    1.4700000  
C   -1.8902865   -1.5946756    1.9108239  
C   -2.5912627   -2.1969500    2.9375057  
O   -3.6148162   -3.0527051    2.6493466  
C   -2.2603868   -1.9365747    4.2886322  
O   -3.0513550   -2.6123276    5.1947621  
C   -1.2361111   -1.0811317    4.6373480  
H    1.1060808    0.8876438    4.4271209  
H   -2.1597133   -1.8070987    0.8854031  
H   -3.9636755   -3.3565188    3.4974381  
H   -2.7621927   -2.3810384    6.0827341  
H   -1.0058879   -0.9010589    5.6809233  
H    1.6167816    1.3499334    1.8205408  
