60

C    4.3307342   -2.1193161   -1.2711413  
C    5.3837979   -1.6206416   -2.0024729  
C    4.8313690   -0.7469989   -2.9854123  
C    3.4246653   -0.7523142   -2.8035248  
N    3.1543583   -1.5972493   -1.7558431  
C    2.5562222   -0.0001542   -3.6002998  
C    3.1180978    0.7716627   -4.5986849  
O    2.3161062    1.5258167   -5.4055768  
C    4.5193625    0.7898944   -4.7960189  
O    4.9243886    1.6076651   -5.8306918  
C    5.3766838    0.0479121   -4.0105326  
H    6.4222902   -1.8582772   -1.8473667  
H    2.2404344   -1.7936472   -1.3895758  
H    2.9018499    1.9798776   -6.0252520  
H    5.8831622    1.5626521   -5.8964976  
H    6.4456543    0.0819115   -4.1855311  
H    4.3255769   -2.8071988   -0.4430416  
C    0.0000000    0.0000000    0.0000000  
C    1.0541691   -0.0001719   -0.8560389  
C    0.5103143   -0.0000448   -2.1935953  
C   -0.9576364    0.0002464   -2.0455731  
N   -1.2018458   -0.0001389   -0.6915972  
C   -1.8348303    0.0008322   -3.0810611  
C   -1.2972837    0.0009745   -4.4314603  
O   -2.0050658    0.0014276   -5.4301322  
C    0.2542633    0.0004194   -4.6117570  
O    0.7184681    0.0002269   -5.7439118  
C    1.0974560    0.0000881   -3.4189126  
H    2.0940754   -0.0005481   -0.5817976  
H   -2.1128195    0.0014913   -0.2706792  
C   -3.9842738    0.7276677   -1.9452940  
C   -5.3215464    0.5113825   -2.0401502  
C   -5.5219095   -0.4154380   -3.1290459  
C   -4.1821400   -0.7236130   -3.6646170  
N   -3.2941065    0.0012879   -2.9038247  
C   -3.9439094   -1.5640377   -4.7031915  
C   -5.0830905   -2.2078646   -5.3358755  
O   -4.9725158   -2.9811912   -6.2782344  
C   -6.5111073   -1.8958666   -4.7852121  
O   -7.4778728   -2.4317670   -5.3100315  
C   -6.6412636   -0.9729343   -3.6604422  
H   -6.0809663    0.9510772   -1.4184079  
H   -2.9532706   -1.7765342   -5.0805370  
H   -7.6334397   -0.7623672   -3.2849798  
H   -3.4449075    1.3567582   -1.2559330  
C    3.2798086   -0.0005857    2.9199648  
C    2.5571146   -0.0005566    4.0696553  
C    1.1637436   -0.0001548    3.6910360  
C    1.1336965    0.0000200    2.2159470  
N    2.4483514    0.0001428    1.8102719  
C    0.0000000    0.0000000    1.4700000  
C   -1.2757367    0.0000186    2.1664417  
O   -2.3524596    0.0000640    1.5842315  
C   -1.2676493    0.0000873    3.7284083  
O   -2.3355761    0.0004100    4.3257297  
C    0.0181563   -0.0001760    4.4216297  
H    2.9547357   -0.0006076    5.0689105  
H    0.0150794   -0.0003319    5.5031631  
H    4.3498549   -0.0008612    2.7900019  
H    2.7563627   -0.0012824    0.8551938  
