60

C    9.1001095   -0.0017589   -2.2684170  
C   10.1120572   -0.0033181   -1.3365217  
C   11.3425087   -0.0036889   -2.0580393  
C   11.0156406   -0.0020108   -3.4382859  
N    9.6459430   -0.0028198   -3.5307220  
C   11.9856513   -0.0015590   -4.4451962  
C   13.3097543   -0.0025173   -4.0515848  
O   14.2974688   -0.0017807   -4.9936214  
C   13.6558732   -0.0045698   -2.6793550  
O   15.0161562   -0.0057320   -2.4492094  
C   12.6994592   -0.0052899   -1.6854733  
H    9.9796671   -0.0051980   -0.2681290  
H    9.1220598    0.0085664   -4.3871078  
H   11.7430567   -0.0004262   -5.4989273  
H   15.1346167   -0.0029592   -4.5114940  
H   15.1637788   -0.0070690   -1.4985204  
H   12.9948822   -0.0070519   -0.6427841  
C    6.6174604   -0.0017047    1.3537077  
C    5.3857487   -0.0012517    0.7819026  
C    5.5854749   -0.0008503   -0.6481131  
C    7.0449748   -0.0011376   -0.8640994  
N    7.6133361   -0.0012548    0.3888394  
C    7.6418659   -0.0012958   -2.0828798  
C    6.7899755   -0.0009489   -3.2605122  
O    7.2316305   -0.0009950   -4.4021087  
C    5.2415215   -0.0003889   -3.0553446  
O    4.5141875    0.0002132   -4.0393395  
C    4.7161325   -0.0005435   -1.6923264  
H    4.4446710   -0.0010219    1.3024657  
H    6.8814406   -0.0021125    2.3987936  
H    8.5996516   -0.0030071    0.5738414  
C    3.2573665   -0.0002920   -1.5109385  
C    2.5379463   -0.0001709   -0.3591964  
C    1.1435038    0.0000331   -0.7338500  
C    1.1092599   -0.0000083   -2.2088477  
N    2.4227553    0.0001909   -2.6182613  
C   -0.0265539   -0.0002524   -2.9515660  
C   -1.3003040   -0.0002640   -2.2514977  
O   -2.3786790   -0.0004133   -2.8306421  
C   -1.2877727    0.0000311   -0.6895603  
O   -2.3539959    0.0003306   -0.0892030  
C    0.0000000    0.0000000    0.0000000  
H    2.9384091   -0.0000367    0.6389234  
H   -0.0296303   -0.0004086   -4.0327229  
H    2.7280482   -0.0013407   -3.5742119  
C    0.8175213    0.6860729    2.3021913  
C    0.0000000    0.0000000    1.4700000  
C   -0.8887526   -0.7456559    2.3478473  
C   -0.4549825   -0.3816753    3.7138435  
N    0.5448156    0.4573574    3.6934124  
C   -1.0945674   -0.9182058    4.8835240  
C   -2.1210866   -1.7789155    4.6970523  
O   -2.8083856   -2.3554314    5.6976972  
C   -2.5824069   -2.1655116    3.3310774  
O   -3.5227682   -2.9541547    3.2362962  
C   -1.9100805   -1.6015804    2.1470656  
H   -0.7567140   -0.6349833    5.8697035  
H   -3.4728268   -2.9124471    5.2533954  
H   -2.2742832   -1.9066565    1.1752040  
H    1.6189533    1.3585343    2.0405121  
