60

C   10.3474312    2.1148692   -1.9422675  
C    9.2585491    1.6546439   -1.2387066  
C    9.7542000    0.7672635   -0.2379639  
C   11.1648224    0.7254008   -0.3805058  
N   11.4916193    1.5534158   -1.4255958  
C   11.9854443   -0.0512889    0.4429758  
C   11.3708822   -0.7991103    1.4284977  
O   12.1248310   -1.5749982    2.2607082  
C    9.9647722   -0.7708336    1.5862079  
O    9.5043231   -1.5701273    2.6121021  
C    9.1545643   -0.0050494    0.7740109  
H    8.2330499    1.9243761   -1.4246850  
H   12.4231292    1.7334609   -1.7540080  
H   13.0611537   -0.0876485    0.3393946  
H   11.5073750   -2.0068643    2.8652792  
H    8.5460624   -1.4936073    2.6506420  
H   10.3983046    2.7980913   -2.7726766  
C    5.7656458   -0.0007232   -2.0564741  
C    7.0030819   -0.0022262   -1.4971669  
C    6.8178431   -0.0019779   -0.0652025  
C    5.3606050   -0.0002234    0.1655475  
N    4.7795901    0.0008674   -1.0815733  
C    4.7760825    0.0001045    1.3903077  
C    5.6398496   -0.0011429    2.5592563  
O    5.2097739   -0.0009035    3.7052651  
C    7.1861469   -0.0027566    2.3384237  
O    7.9234038   -0.0035090    3.3150054  
C    7.6977102   -0.0032495    0.9701567  
H    7.9388414   -0.0031952   -2.0272300  
H    3.7050043    0.0012712    1.5376179  
H    5.4911002   -0.0004270   -3.0988343  
C    3.3321168    0.0004716   -1.3379341  
C    2.6974177    0.0000118   -2.5332316  
C    1.2800432   -0.0002116   -2.2052842  
C    1.2395033    0.0000644   -0.7271298  
N    2.4394059    0.0005460   -0.2131041  
C    0.0000000    0.0000000    0.0000000  
C   -1.1468704    0.0000635   -0.7169542  
O   -2.3742206    0.0000074   -0.1695488  
C   -1.1388774    0.0001608   -2.2096352  
O   -2.2206238    0.0000906   -2.7970409  
C    0.1454514    0.0001818   -2.9324241  
H    3.1367978   -0.0000649   -3.5160956  
H   -2.9844350    0.0001027   -0.9290164  
H    0.1083567    0.0003684   -4.0135594  
C    2.5128556    2.1077716    2.9199648  
C    1.9592212    1.6432552    4.0696553  
C    0.8915788    0.7479214    3.6910360  
C    0.8684491    0.7287414    2.2159470  
N    1.8754542    1.5738793    1.8102719  
C    0.0000000    0.0000000    1.4700000  
C   -0.9772830   -0.8200135    2.1664417  
O   -1.8021297   -1.5120829    1.5842315  
C   -0.9711318   -0.8147624    3.7284083  
O   -1.7894187   -1.5009653    4.3257297  
C    0.0140216    0.0115358    4.4216297  
H    2.2638494    1.8988021    5.0689105  
H    0.0117648    0.0094386    5.5031631  
H    3.3327358    2.7953732    2.7900019  
H    2.1123206    1.7707734    0.8551938  
