64

C   -2.7909570   -0.4750100   -4.0232748  
C   -4.0248516   -0.6876961   -4.5931315  
C   -3.8443008   -0.6393729   -6.0072270  
C   -2.4675675   -0.3923471   -6.2428331  
N   -1.8571982   -0.2959926   -5.0169530  
C   -1.9281001   -0.2821247   -7.5279850  
C   -2.7941606   -0.4241573   -8.5947292  
O   -2.3202375   -0.3260403   -9.8709672  
C   -4.1710981   -0.6706082   -8.3799703  
O   -4.9029821   -0.7873732   -9.5436094  
C   -4.7040364   -0.7791961   -7.1124094  
H   -4.9424106   -0.8557742   -4.0557039  
H   -0.8776947   -0.1341096   -4.8674626  
H   -0.8797494   -0.0937967   -7.7142540  
H   -3.0792774   -0.4540692  -10.4546906  
H   -5.8214717   -0.9528037   -9.3099138  
C   -3.2549643   -0.5678608   -1.5420432  
C   -2.5461791   -0.4436276   -0.3695852  
C   -1.1860938   -0.2068814   -0.7283593  
C   -1.1251451   -0.1968641   -2.1454371  
N   -2.3982015   -0.4209522   -2.6077468  
C    0.0646944    0.0103916   -2.8497920  
C    1.2138897    0.2114950   -2.1101401  
O    2.4030211    0.4190267   -2.7472528  
C    1.1734051    0.2046701   -0.6955265  
O    2.4008649    0.4190023   -0.1032865  
C    0.0000000    0.0000000    0.0000000  
H   -2.9584983   -0.5159639    0.6222578  
H    0.1178345    0.0190467   -3.9297479  
H    3.0669828    0.5350192   -2.0551795  
H    2.2854518    0.3990492    0.8516401  
H   -4.3036170   -0.7510640   -1.7024290  
C   -6.1401777   -1.0355121   -6.9315768  
C   -6.8767370   -1.1776614   -5.7784329  
C   -8.2271678   -1.4123357   -6.1732299  
C   -8.2538739   -1.4026834   -7.5913691  
N   -6.9705994   -1.1693822   -8.0196147  
C   -9.4258430   -1.6026699   -8.3270885  
C  -10.5920440   -1.8165941   -7.6182946  
O  -11.7649272   -2.0177949   -8.2867845  
C  -10.5857282   -1.8294488   -6.2031580  
O  -11.8265790   -2.0547111   -5.6437940  
C   -9.4299692   -1.6319601   -5.4766967  
H   -6.4886578   -1.1182930   -4.7760038  
H   -6.6791951   -1.1183714   -8.9790222  
H   -9.4528826   -1.5963493   -9.4080280  
H  -12.4451038   -2.1448940   -7.6126390  
H  -11.7342964   -2.0478522   -4.6861717  
H   -9.4561232   -1.6471035   -4.3933844  
C    0.0000000    0.0000000    1.4700000  
C    1.0541688    0.0001722    2.3260392  
C    0.5103138    0.0000454    3.6635956  
C   -0.9576371   -0.0002459    3.5155732  
N   -1.2018458    0.0001392    2.1615969  
C   -1.8348311   -0.0008317    4.5510609  
C   -1.2972847   -0.0009736    5.9014604  
O   -2.0050672   -0.0014265    6.9001319  
C    0.2542623   -0.0004184    6.0817573  
O    0.7184670   -0.0002256    7.2139121  
C    1.0974552   -0.0000873    4.8889129  
H    2.0940752    0.0005483    2.0517982  
H   -2.9081052   -0.0011668    4.4207061  
H    2.1707277    0.0000911    5.0223670  
H   -2.1128194   -0.0014912    1.7406791  
