64

C    9.0071987    0.0003575   -0.1919581  
C   10.1059247    0.0009041   -1.0197684  
C   11.2594163    0.0007535   -0.1806895  
C   10.7983347   -0.0001845    1.1607010  
N    9.4261882    0.0015477    1.1179256  
C   11.6645697   -0.0008798    2.2581637  
C   13.0209746   -0.0009305    1.9967384  
O   13.9112115   -0.0019468    3.0313844  
C   13.5004267    0.0003726    0.6652200  
O   14.8767554    0.0005649    0.5700274  
C   12.6464408    0.0013321   -0.4179396  
H   10.0792953    0.0024609   -2.0960036  
H    8.8205804   -0.0091710    1.9186160  
H   11.3194755   -0.0014519    3.2829138  
H   14.7917333   -0.0014953    2.6339617  
H   15.1171987    0.0014423   -0.3615249  
H   13.0430195    0.0025036   -1.4265041  
C    6.8742260    0.0004673   -4.0661423  
C    5.5942422    0.0008992   -3.5620504  
C    5.7067592    0.0008100   -2.1401013  
C    7.0913505    0.0006002   -1.8321531  
N    7.7720040   -0.0015555   -3.0243458  
C    7.5742853    0.0007687   -0.5200693  
C    6.6425085    0.0014633    0.4997193  
O    7.0593435    0.0020074    1.7994356  
C    5.2567325    0.0013069    0.2125910  
O    4.4562659    0.0016418    1.3362443  
C    4.7795901    0.0008674   -1.0815733  
H    4.6906028    0.0001318   -4.1472243  
H    8.7711574    0.0083685   -3.1221988  
H    6.2603308    0.0021429    2.3424295  
H    3.5363981    0.0015350    1.0543802  
H    7.2178043   -0.0000037   -5.0863941  
C    3.3321168    0.0004716   -1.3379341  
C    2.6974177    0.0000118   -2.5332316  
C    1.2800432   -0.0002116   -2.2052842  
C    1.2395033    0.0000644   -0.7271298  
N    2.4394059    0.0005460   -0.2131041  
C    0.0000000    0.0000000    0.0000000  
C   -1.1468704    0.0000635   -0.7169542  
O   -2.3742206    0.0000074   -0.1695488  
C   -1.1388774    0.0001608   -2.2096352  
O   -2.2206238    0.0000906   -2.7970409  
C    0.1454514    0.0001818   -2.9324241  
H    3.1367978   -0.0000649   -3.5160956  
H   -2.9844350    0.0001027   -0.9290164  
H    0.1083567    0.0003684   -4.0135594  
C    2.5285572    2.1210227    2.9438989  
C    1.9331703    1.6216660    4.0790748  
C    0.8903039    0.7472258    3.6520102  
C    0.8972198    0.7527806    2.2336141  
N    1.9028376    1.5986179    1.8362361  
C    0.0000000    0.0000000    1.4700000  
C   -0.9207814   -0.7726952    2.1506477  
O   -1.8198395   -1.5274828    1.4542253  
C   -0.9436862   -0.7911793    3.5655508  
O   -1.9197945   -1.6098497    4.0950179  
C   -0.0590329   -0.0485852    4.3195194  
H    2.2150357    1.8593692    5.0905303  
H    2.1533708    1.7953814    0.8841339  
H   -2.3621246   -1.9821033    2.1118817  
H   -1.8668290   -1.5649508    5.0545920  
H   -0.1007624   -0.0827977    5.4019087  
H    3.3491200    2.8096064    2.8367138  
