62

C    9.0579928   -0.0133850    0.6206585  
C    9.7779930   -0.0162134    1.7928612  
C   11.1583061   -0.0330010    1.4336230  
C   11.2195202   -0.0395680    0.0165356  
N    9.9267726   -0.0292847   -0.4453236  
C   12.4269337   -0.0555716   -0.6882234  
C   13.5938135   -0.0648129    0.0510244  
O   14.8006054   -0.0801644   -0.5864939  
C   13.5532990   -0.0588508    1.4656412  
O   14.7994852   -0.0699194    2.0574527  
C   12.3625130   -0.0433374    2.1615674  
H    9.3597740   -0.0083813    2.7848420  
H    9.6559268   -0.0202412   -1.4120406  
H   12.4803507   -0.0607936   -1.7681871  
H   15.4748485   -0.0847090    0.1053447  
H   14.6827332   -0.0649076    3.0124122  
H   12.3629251   -0.0392896    3.2452931  
C    6.6540977   -0.0013093    1.3962728  
C    5.4018076   -0.0015695    0.8268551  
C    5.5874904   -0.0008948   -0.5874013  
C    6.9861184   -0.0005213   -0.8235501  
N    7.6043962    0.0011645    0.4021525  
C    7.5360617   -0.0001394   -2.1089881  
C    6.6581048   -0.0004414   -3.1754633  
O    7.1413991   -0.0004419   -4.4519588  
C    5.2593677   -0.0004400   -2.9601678  
O    4.5179016   -0.0003363   -4.1235994  
C    4.7161325   -0.0005435   -1.6923264  
H    4.4691981   -0.0010661    1.3646588  
H    8.6011207    0.0002905   -2.2956726  
H    6.3714461   -0.0003765   -5.0354278  
H    3.5847247   -0.0003699   -3.8895380  
H    6.9446140   -0.0012469    2.4328827  
C    3.2573665   -0.0002920   -1.5109385  
C    2.5379463   -0.0001709   -0.3591964  
C    1.1435038    0.0000331   -0.7338500  
C    1.1092599   -0.0000083   -2.2088477  
N    2.4227553    0.0001909   -2.6182613  
C   -0.0265539   -0.0002524   -2.9515660  
C   -1.3003040   -0.0002640   -2.2514977  
O   -2.3786790   -0.0004133   -2.8306421  
C   -1.2877727    0.0000311   -0.6895603  
O   -2.3539959    0.0003306   -0.0892030  
C    0.0000000    0.0000000    0.0000000  
H    2.9384091   -0.0000367    0.6389234  
H   -0.0296303   -0.0004086   -4.0327229  
H    2.7280482   -0.0013407   -3.5742119  
C    0.0000000    0.0000000    1.4700000  
C    1.0541688    0.0001722    2.3260392  
C    0.5103138    0.0000454    3.6635956  
C   -0.9576371   -0.0002459    3.5155732  
N   -1.2018458    0.0001392    2.1615969  
C   -1.8348311   -0.0008317    4.5510609  
C   -1.2972847   -0.0009736    5.9014604  
O   -2.0050672   -0.0014265    6.9001319  
C    0.2542623   -0.0004184    6.0817573  
O    0.7184670   -0.0002256    7.2139121  
C    1.0974552   -0.0000873    4.8889129  
H    2.0940752    0.0005483    2.0517982  
H   -2.9081052   -0.0011668    4.4207061  
H    2.1707277    0.0000911    5.0223670  
H   -2.1128194   -0.0014912    1.7406791  
