66

C    2.4861702   -0.0045381   -3.7159922  
C    3.5192653   -0.0069576   -2.8076001  
C    4.7328077   -0.0089740   -3.5572066  
C    4.3743056   -0.0073669   -4.9295766  
N    3.0028455   -0.0066335   -4.9905080  
C    5.3209179   -0.0083538   -5.9585147  
C    6.6537153   -0.0107049   -5.5954393  
O    7.6195178   -0.0114064   -6.5599276  
C    7.0312767   -0.0127111   -4.2315260  
O    8.3964910   -0.0153603   -4.0327047  
C    6.0979606   -0.0120121   -3.2159252  
H    3.4114641   -0.0083403   -1.7364463  
H    2.4594304    0.0050772   -5.8346312  
H    5.0541703   -0.0072833   -7.0063921  
H    8.4675238   -0.0133900   -6.0971679  
H    8.5659228   -0.0165595   -3.0856591  
H    6.4172671   -0.0137763   -2.1803008  
C    0.0000000    0.0000000    0.0000000  
C    1.0521666   -0.0011901   -0.8862341  
C    0.4917219   -0.0011956   -2.1979129  
C   -0.9187429    0.0003148   -2.0478681  
N   -1.1833171   -0.0009411   -0.7007912  
C   -1.7951701    0.0010349   -3.1372089  
C   -1.2375839    0.0005224   -4.4010424  
O   -2.0474212    0.0015359   -5.4997577  
C    0.1673581   -0.0013566   -4.5711964  
O    0.5673524   -0.0020688   -5.8915554  
C    1.0325770   -0.0023412   -3.4969892  
H    2.0953060   -0.0030648   -0.6200561  
H   -2.0989776    0.0102371   -0.2891822  
H   -1.4634886    0.0006496   -6.2693594  
H    1.5290710   -0.0033152   -5.9180047  
C   -3.9682106    0.7216620   -2.0578208  
C   -3.2578655    0.0024038   -2.9908506  
C   -4.2078974   -0.7253041   -3.7670467  
C   -5.4928151   -0.4072996   -3.2573542  
N   -5.3110109    0.4721766   -2.2190448  
C   -6.6702410   -0.9459926   -3.7848640  
C   -6.5483492   -1.8214263   -4.8464364  
O   -7.6658709   -2.3762792   -5.3998773  
C   -5.2750722   -2.1513560   -5.3686706  
O   -5.3202109   -3.0371626   -6.4253887  
C   -4.1130712   -1.6205103   -4.8485910  
H   -6.0451257    0.8820213   -1.6703339  
H   -7.6525643   -0.7077574   -3.4008243  
H   -7.3606513   -2.9485252   -6.1158668  
H   -4.4197689   -3.2069385   -6.7186188  
H   -3.1520006   -1.8920247   -5.2694248  
H   -3.6231675    1.3917896   -1.2891638  
C    1.1188642   -0.0008217    2.2703808  
C    0.0000000    0.0000000    1.4700000  
C   -1.1323862   -0.0008904    2.3373528  
C   -0.6382662   -0.0019682    3.6669281  
N    0.7324016   -0.0038477    3.5902241  
C   -1.4770914   -0.0027325    4.7854808  
C   -2.8395474   -0.0020958    4.5576857  
O   -3.7039201   -0.0024443    5.6140350  
C   -3.3517868   -0.0013946    3.2384331  
O   -4.7300496   -0.0012389    3.1773122  
C   -2.5248543   -0.0009135    2.1344818  
H    1.3576314    0.0056174    4.3757045  
H   -1.1067570   -0.0036993    5.8013813  
H   -4.5940033   -0.0021850    5.2385129  
H   -4.9934601   -0.0007286    2.2519915  
H   -2.9462578   -0.0005617    1.1360343  
H    2.1619896   -0.0009344    2.0042067  
