64

C   -6.8591837   -0.0028490   -5.4777161  
C   -5.8769211   -0.0043371   -6.4408498  
C   -6.5347863   -0.0053944   -7.7064763  
C   -7.9298994   -0.0041891   -7.4503831  
N   -8.0920270   -0.0046071   -6.0871775  
C   -8.8860611   -0.0044611   -8.4704542  
C   -8.4254740   -0.0056704   -9.7727727  
O   -9.3159439   -0.0056361  -10.8072183  
C   -7.0373854   -0.0072595  -10.0485002  
O   -6.7382070   -0.0087522  -11.3952870  
C   -6.0935426   -0.0072655   -9.0426744  
H   -4.8166641   -0.0057301   -6.2541772  
H   -8.9740053    0.0065864   -5.6076262  
H   -9.9507874   -0.0036915   -8.2818819  
H   -8.7917742   -0.0068762  -11.6187046  
H   -5.7812291   -0.0097394  -11.4942613  
H   -5.0371504   -0.0086855   -9.2845674  
C   -3.3460096   -0.0004265   -2.7913646  
C   -4.0351702    0.0002975   -1.6007663  
C   -5.4244873    0.0000966   -1.9238723  
C   -5.5227199   -0.0010536   -3.3388900  
N   -4.2424267    0.0006062   -3.8343331  
C   -6.7482118   -0.0018514   -4.0119108  
C   -7.8954377   -0.0017884   -3.2424625  
O   -9.1185481   -0.0028970   -3.8482795  
C   -7.8179698   -0.0002733   -1.8293760  
O   -9.0483375    0.0000109   -1.2052468  
C   -6.6093336    0.0007876   -1.1647523  
H   -3.5911529    0.0020019   -0.6200324  
H   -3.9968101   -0.0102582   -4.8077478  
H   -9.7745204   -0.0023404   -3.1390800  
H   -8.9066633    0.0010310   -0.2536526  
H   -6.5814276    0.0021214   -0.0813786  
C    0.0000000    0.0000000    0.0000000  
C    1.0662919   -0.0000103   -0.8334269  
C    0.4961869    0.0000064   -2.1718889  
C   -0.9663859   -0.0000850   -1.9540246  
N   -1.2632774   -0.0000084   -0.6828657  
C   -1.8985363   -0.0000518   -3.0477257  
C   -1.3925778    0.0004564   -4.3020545  
O   -2.1456384    0.0005409   -5.4151311  
C    0.0786230    0.0009323   -4.5544998  
O    0.4683758    0.0012588   -5.7221098  
C    1.0143164    0.0008442   -3.4159030  
H    2.1107195    0.0000633   -0.5721867  
H   -1.5042275    0.0009691   -6.1484418  
H    2.0724152    0.0013148   -3.6409744  
C    3.3003543   -0.0005276    2.9438989  
C    2.5232812   -0.0003497    4.0790748  
C    1.1623199    0.0001319    3.6520102  
C    1.1711883   -0.0000583    2.2336141  
N    2.4852299    0.0014920    1.8362361  
C    0.0000000    0.0000000    1.4700000  
C   -1.2020384   -0.0000520    2.1506477  
O   -2.3759250   -0.0003494    1.4542253  
C   -1.2314658    0.0005113    3.5655508  
O   -2.5054393    0.0008037    4.0950179  
C   -0.0764518    0.0007272    4.3195194  
H    2.8919952    0.0005619    5.0905303  
H    2.8036267   -0.0088181    0.8841339  
H   -3.0835639   -0.0000348    2.1118817  
H   -2.4360050    0.0011527    5.0545920  
H   -0.1304098    0.0013421    5.4019087  
H    4.3715549   -0.0004895    2.8367138  
