64

C    9.9403332    0.7328339   -4.1039315  
C    9.2349329    0.0129750   -3.1676193  
C   10.1902515   -0.7003304   -2.3845728  
C   11.4731462   -0.3733243   -2.8936629  
N   11.2851246    0.4974177   -3.9382072  
C   12.6545657   -0.8970869   -2.3600792  
C   12.5388170   -1.7665670   -1.2929406  
O   13.6604337   -2.3068943   -0.7334445  
C   11.2676488   -2.1053011   -0.7712045  
O   11.3190330   -2.9835712    0.2915019  
C   10.1017149   -1.5891869   -1.2972733  
H   12.0164443    0.9106739   -4.4880924  
H   13.6353777   -0.6519322   -2.7436256  
H   13.3591927   -2.8772811   -0.0142940  
H   10.4196356   -3.1600849    0.5839570  
H    9.1423952   -1.8671678   -0.8766659  
H    9.5905144    1.3944603   -4.8777765  
C    6.8742265    0.0004672   -4.0661423  
C    5.5942427    0.0008993   -3.5620503  
C    5.7067596    0.0008101   -2.1401010  
C    7.0913514    0.0006003   -1.8321527  
N    7.7720039   -0.0015554   -3.0243453  
C    7.5742853    0.0007689   -0.5200692  
C    6.6425084    0.0014636    0.4997195  
O    7.0593435    0.0020077    1.7994354  
C    5.2567325    0.0013069    0.2125911  
O    4.4562659    0.0016420    1.3362443  
C    4.7795901    0.0008674   -1.0815733  
H    4.6906033    0.0001317   -4.1472242  
H    8.6283021    0.0004666   -0.2787183  
H    6.2603303    0.0021430    2.3424297  
H    3.5363984    0.0015352    1.0543802  
H    7.2178046   -0.0000036   -5.0863935  
C    3.3321168    0.0004716   -1.3379341  
C    2.6974177    0.0000118   -2.5332316  
C    1.2800432   -0.0002116   -2.2052842  
C    1.2395033    0.0000644   -0.7271298  
N    2.4394059    0.0005460   -0.2131041  
C    0.0000000    0.0000000    0.0000000  
C   -1.1468704    0.0000635   -0.7169542  
O   -2.3742206    0.0000074   -0.1695488  
C   -1.1388774    0.0001608   -2.2096352  
O   -2.2206238    0.0000906   -2.7970409  
C    0.1454514    0.0001818   -2.9324241  
H    3.1367978   -0.0000649   -3.5160956  
H   -2.9844350    0.0001027   -0.9290164  
H    0.1083567    0.0003684   -4.0135594  
C    2.5285572    2.1210227    2.9438989  
C    1.9331703    1.6216660    4.0790748  
C    0.8903039    0.7472258    3.6520102  
C    0.8972198    0.7527806    2.2336141  
N    1.9028376    1.5986179    1.8362361  
C    0.0000000    0.0000000    1.4700000  
C   -0.9207814   -0.7726952    2.1506477  
O   -1.8198395   -1.5274828    1.4542253  
C   -0.9436862   -0.7911793    3.5655508  
O   -1.9197945   -1.6098497    4.0950179  
C   -0.0590329   -0.0485852    4.3195194  
H    2.2150357    1.8593692    5.0905303  
H    2.1533708    1.7953814    0.8841339  
H   -2.3621246   -1.9821033    2.1118817  
H   -1.8668290   -1.5649508    5.0545920  
H   -0.1007624   -0.0827977    5.4019087  
H    3.3491200    2.8096064    2.8367138  
