62

C    2.5001917   -3.0504834   -8.9839265  
C    2.1639593   -1.8274873   -8.4512954  
C    2.1566560   -0.8921566   -9.5281897  
C    2.4986404   -1.6083172  -10.7038121  
N    2.7025630   -2.9155489  -10.3375099  
C    2.5873633   -1.0013723  -11.9602096  
C    2.3257985    0.3531489  -12.0311652  
O    2.3977832    0.9958705  -13.2331388  
C    1.9833456    1.0849878  -10.8692902  
O    1.7526630    2.4247557  -11.1041329  
C    1.8958959    0.4869283   -9.6294500  
H    2.9476585   -3.6619527  -10.9626430  
H    2.8476616   -1.5415943  -12.8599908  
H    2.1822769    1.9217214  -13.0610306  
H    1.5276455    2.8456325  -10.2687691  
H    1.6315451    1.0733545   -8.7572681  
H    2.6130643   -4.0080796   -8.5051480  
C    2.5409787   -2.1228911   -5.9711679  
C    1.9926482   -1.6610299   -4.7970794  
C    0.9342950   -0.7733297   -5.1527156  
C    0.8833348   -0.7329666   -6.5696486  
N    1.8736002   -1.5621444   -7.0348961  
C   -0.0437619    0.0435813   -7.2712567  
C   -0.9358595    0.7928004   -6.5289556  
O   -1.8625194    1.5686187   -7.1633227  
C   -0.9005316    0.7660311   -5.1144410  
O   -1.8535894    1.5666038   -4.5193714  
C    0.0139741    0.0003876   -4.4216236  
H    2.3164397   -1.9299053   -3.8061918  
H   -0.0876905    0.0788014   -8.3510857  
H   -2.3770355    2.0015784   -6.4697198  
H   -1.7612554    1.4910552   -3.5647142  
H    3.3562566   -2.8068326   -6.1339727  
C    3.2798085    0.0005853   -1.4499648  
C    2.5571144    0.0005562   -2.5996554  
C    1.1637436    0.0001546   -2.2210360  
C    1.1336965   -0.0000201   -0.7459470  
N    2.4483513   -0.0001430   -0.3402717  
C    0.0000000    0.0000000    0.0000000  
C   -1.2757367   -0.0000188   -0.6964414  
O   -2.3524597   -0.0000640   -0.1142313  
C   -1.2676494   -0.0000875   -2.2584081  
O   -2.3355762   -0.0004102   -2.8557294  
C    0.0181562    0.0001757   -2.9516296  
H    2.9547357    0.0006072   -3.5989105  
H    4.3498550    0.0008609   -1.3200021  
H    2.7563627    0.0012824    0.6148063  
C    0.8175213    0.6860729    2.3021913  
C    0.0000000    0.0000000    1.4700000  
C   -0.8887526   -0.7456559    2.3478473  
C   -0.4549825   -0.3816753    3.7138435  
N    0.5448156    0.4573574    3.6934124  
C   -1.0945674   -0.9182058    4.8835240  
C   -2.1210866   -1.7789155    4.6970523  
O   -2.8083856   -2.3554314    5.6976972  
C   -2.5824069   -2.1655116    3.3310774  
O   -3.5227682   -2.9541547    3.2362962  
C   -1.9100805   -1.6015804    2.1470656  
H   -0.7567140   -0.6349833    5.8697035  
H   -3.4728268   -2.9124471    5.2533954  
H   -2.2742832   -1.9066565    1.1752040  
H    1.6189533    1.3585343    2.0405121  
