64

C    7.0425128   -1.9458981   -6.5715758  
C    8.1383854   -2.7770315   -6.5989307  
C    8.6646847   -2.7286317   -7.9237953  
C    7.8417385   -1.8437047   -8.6664851  
N    6.8654154   -1.3876917   -7.8159191  
C    8.0664206   -1.5550938  -10.0159336  
C    9.1416255   -2.1707968  -10.6266873  
O    9.4067993   -1.9241904  -11.9426969  
C    9.9740137   -3.0571155   -9.9025420  
O   11.0026787   -3.5904088  -10.6514016  
C    9.7527929   -3.3425107   -8.5713255  
H    8.5117894   -3.3488109   -5.7666860  
H    6.1415559   -0.7360180   -8.0594961  
H    7.4428112   -0.8816702  -10.5876108  
H   10.1877640   -2.4469514  -12.1664845  
H   11.5164512   -4.1772101  -10.0881027  
H   10.4073145   -4.0256972   -8.0428027  
C    6.2078071   -2.1204373   -4.1884496  
C    6.1274188   -1.6213462   -5.4678683  
C    5.0008410   -0.7471989   -5.5037681  
C    4.4282842   -0.7526502   -4.2060484  
N    5.1843807   -1.5981477   -3.4326984  
C    3.2973506   -0.0000934   -3.8752374  
C    2.7343299    0.7722679   -4.8725555  
O    1.6291395    1.5268265   -4.6038363  
C    3.2908611    0.7906439   -6.1736138  
O    2.6156196    1.6089740   -7.0555033  
C    4.4063832    0.0482703   -6.5007499  
H    5.0245806   -1.7947655   -2.4612116  
H    1.4023571    1.9812319   -5.4256334  
H    3.0556037    1.5640229   -7.9099027  
H    4.8100200    0.0823926   -7.5059317  
H    6.9133539   -2.8087592   -3.7555793  
C    3.3321174    0.0004714   -1.3379332  
C    2.6974186    0.0000115   -2.5332308  
C    1.2800441   -0.0002119   -2.2052838  
C    1.2395035    0.0000643   -0.7271293  
N    2.4394063    0.0005458   -0.2131034  
C    0.0000000    0.0000000    0.0000000  
C   -1.1468701    0.0000634   -0.7169542  
O   -2.3742201    0.0000072   -0.1695492  
C   -1.1388767    0.0001606   -2.2096354  
O   -2.2206229    0.0000903   -2.7970413  
C    0.1454526    0.0001815   -2.9324239  
H   -2.9844344    0.0001023   -0.9290168  
H    0.1083580    0.0003680   -4.0135594  
H    4.3940040    0.0007617   -1.1498630  
C    0.0000000    0.0000000    1.4700000  
C    1.0521667    0.0011902    2.3562342  
C    0.4917218    0.0011957    3.6679131  
C   -0.9187428   -0.0003148    3.5178682  
N   -1.1833171    0.0009411    2.1707914  
C   -1.7951701   -0.0010350    4.6072090  
C   -1.2375837   -0.0005224    5.8710424  
O   -2.0474215   -0.0015360    6.9697579  
C    0.1673580    0.0013566    6.0411963  
O    0.5673524    0.0020687    7.3615553  
C    1.0325770    0.0023412    4.9669890  
H    2.0953057    0.0030649    2.0900562  
H   -2.0989778   -0.0102372    1.7591824  
H   -2.8710934   -0.0020419    4.4995513  
H   -1.4634884   -0.0006497    7.7393593  
H    1.5290710    0.0033153    7.3880045  
H    2.1042148    0.0039609    5.1284455  
