62

C    0.3969711   -3.1052306  -10.3376651  
C    0.2153310   -2.3045083  -11.4414399  
C   -0.0030912   -0.9787422  -10.9626535  
C    0.0572817   -1.0324130   -9.5465322  
N    0.2996724   -2.3385003   -9.2001214  
C   -0.1139545    0.0959899   -8.7389591  
C   -0.3501428    1.3005696   -9.3725059  
O   -0.5242745    2.4338207   -8.6319417  
C   -0.4142975    1.3742978  -10.7843363  
O   -0.6570268    2.6448183  -11.2641308  
C   -0.2457325    0.2614591  -11.5816447  
H    0.2364417   -2.6354658  -12.4656541  
H    0.4043074   -2.6802424   -8.2619079  
H   -0.6742833    3.1510433   -9.2615086  
H   -0.6850281    2.6068510  -12.2250562  
H   -0.3004352    0.3487764  -12.6604690  
H    0.5868100   -4.1628589  -10.2717766  
C    2.5385454   -2.1201622   -5.9030165  
C    1.9398804   -1.6207032   -7.0364216  
C    0.8981434   -0.7464320   -6.6062662  
C    0.9090951   -0.7521905   -5.1878960  
N    1.9159261   -1.5979815   -4.7935027  
C    0.0139741    0.0003876   -4.4216236  
C   -0.9088193    0.7730861   -5.0995376  
O   -1.8059698    1.5276806   -4.4004515  
C   -0.9357512    0.7917718   -6.5143672  
O   -1.9134458    1.6104178   -7.0409369  
C   -0.0531703    0.0493775   -7.2709569  
H    2.2188913   -1.8582314   -8.0487102  
H    2.1691871   -1.7948563   -3.8421456  
H   -2.3501706    1.9823401   -5.0564961  
H   -1.8632060    1.5656629   -8.0006639  
H    3.3594807   -2.8086769   -5.7982655  
C    3.2798085    0.0005853   -1.4499648  
C    2.5571144    0.0005562   -2.5996554  
C    1.1637436    0.0001546   -2.2210360  
C    1.1336965   -0.0000201   -0.7459470  
N    2.4483513   -0.0001430   -0.3402717  
C    0.0000000    0.0000000    0.0000000  
C   -1.2757367   -0.0000188   -0.6964414  
O   -2.3524597   -0.0000640   -0.1142313  
C   -1.2676494   -0.0000875   -2.2584081  
O   -2.3355762   -0.0004102   -2.8557294  
C    0.0181562    0.0001757   -2.9516296  
H    2.9547357    0.0006072   -3.5989105  
H    4.3498550    0.0008609   -1.3200021  
H    2.7563627    0.0012824    0.6148063  
C    0.8400945    0.7047457    2.2710304  
C    0.0000000    0.0000000    1.4700000  
C   -0.8844236   -0.7423113    2.3369512  
C   -0.4878984   -0.4098547    3.7186280  
N    0.5629682    0.4714286    3.6095011  
C   -1.0836927   -0.9095027    4.8308716  
C   -2.1891196   -1.8367527    4.6554461  
O   -2.7906899   -2.3413415    5.5944904  
C   -2.6257283   -2.2031529    3.2011665  
O   -3.5549479   -2.9829990    3.0410059  
C   -1.9068976   -1.5999348    2.0816745  
H   -0.7774656   -0.6525820    5.8354244  
H   -2.2155208   -1.8586617    1.0779135  
H    1.6384792    1.3747609    1.9961646  
H    1.0518368    0.8833920    4.3830260  
