60

C    2.9772350   -5.3094971   -9.0795839  
C    3.1236207   -4.7860453  -10.3433238  
C    2.8258455   -3.3939154  -10.2544225  
C    2.5019804   -3.1232146   -8.9002585  
N    2.6018205   -4.3083604   -8.2146347  
C    2.1552137   -1.8471690   -8.4461110  
C    2.1353140   -0.8257284   -9.3758646  
O    1.8039066    0.4397537   -8.9863291  
C    2.4550072   -1.0760523  -10.7315751  
O    2.3895616    0.0442236  -11.5340977  
C    2.7969283   -2.3347053  -11.1803602  
H    3.4087569   -5.3397198  -11.2214675  
H    2.4399902   -4.4250066   -7.2306702  
H    1.8508000    0.9904299   -9.7786815  
H    2.6195003   -0.2114609  -12.4326287  
H    3.0367075   -2.4960100  -12.2248542  
H    3.1095216   -6.3180490   -8.7270499  
C    2.4602719   -2.0944453   -5.9392893  
C    1.9124732   -1.6318086   -4.7860510  
C    0.8432455   -0.7354856   -5.1577935  
C    0.8127883   -0.7137217   -6.6327135  
N    1.8180302   -1.5578235   -7.0448669  
C   -0.0596373    0.0159818   -7.3730587  
C   -1.0334829    0.8347250   -6.6703356  
O   -1.8613774    1.5276079   -7.2472268  
C   -1.0192493    0.8271228   -5.1084314  
O   -1.8341905    1.5127102   -4.5058520  
C   -0.0307352   -0.0004646   -4.4215603  
H    2.2221962   -1.8889424   -3.7887707  
H   -0.0651701    0.0176829   -8.4542048  
H    3.2792593   -2.7820943   -6.0745265  
C    3.2573670   -0.0002920   -1.5109380  
C    2.5379468   -0.0001709   -0.3591961  
C    1.1435043    0.0000332   -0.7338500  
C    1.1092609   -0.0000082   -2.2088477  
N    2.4227562    0.0001909   -2.6182613  
C   -0.0265532   -0.0002522   -2.9515663  
C   -1.3003035   -0.0002639   -2.2514981  
O   -2.3786784   -0.0004131   -2.8306429  
C   -1.2877725    0.0000312   -0.6895608  
O   -2.3539958    0.0003307   -0.0892036  
C    0.0000000    0.0000000    0.0000000  
H    2.9384091   -0.0000369    0.6389239  
H    4.3270394   -0.0004765   -1.6439446  
H    2.7280494   -0.0013406   -3.5742113  
C    0.0000000    0.0000000    1.4700000  
C    1.0541688    0.0001722    2.3260392  
C    0.5103138    0.0000454    3.6635956  
C   -0.9576371   -0.0002459    3.5155732  
N   -1.2018458    0.0001392    2.1615969  
C   -1.8348311   -0.0008317    4.5510609  
C   -1.2972847   -0.0009736    5.9014604  
O   -2.0050672   -0.0014265    6.9001319  
C    0.2542623   -0.0004184    6.0817573  
O    0.7184670   -0.0002256    7.2139121  
C    1.0974552   -0.0000873    4.8889129  
H    2.0940752    0.0005483    2.0517982  
H   -2.9081052   -0.0011668    4.4207061  
H    2.1707277    0.0000911    5.0223670  
H   -2.1128194   -0.0014912    1.7406791  
