60

C    5.1529360   -4.3481510   -3.5333586  
C    4.1581266   -3.5152081   -3.9905544  
C    4.2027218   -3.5565220   -5.4156527  
C    5.2537110   -4.4391913   -5.7737626  
N    5.8109859   -4.9007323   -4.6071252  
C    5.5848966   -4.7210627   -7.1025413  
C    4.8413765   -4.1008165   -8.0877566  
O    5.1220859   -4.3407799   -9.4017716  
C    3.7891076   -3.2166537   -7.7504110  
O    3.1432944   -2.6782340   -8.8441989  
C    3.4620052   -2.9379061   -6.4397505  
H    3.4840284   -2.9468004   -3.3729006  
H    6.5722886   -5.5523604   -4.5456610  
H    6.3848481   -5.3927323   -7.3820735  
H    4.4944974   -3.8157611   -9.9153401  
H    2.4474771   -2.0933144   -8.5290625  
H    5.4460786   -4.5906938   -2.5262840  
C    2.3617623   -2.0132534   -6.1309080  
C    1.9111468   -1.6311561   -4.9133176  
C    0.8167587   -0.7132545   -5.1894898  
C    0.7423558   -0.6552471   -6.6651875  
N    1.6455077   -1.4153050   -7.2225180  
C   -0.2276453    0.1569480   -7.3467464  
C   -1.0846236    0.8781008   -6.5885501  
O   -2.0400755    1.6785700   -7.0909464  
C   -1.0349498    0.8404009   -5.0971509  
O   -1.8457776    1.5226371   -4.4707861  
C   -0.0307352   -0.0004646   -4.4215603  
H    2.2762462   -1.9347703   -3.9470896  
H   -0.2592112    0.1804607   -8.4262657  
H   -2.4850413    2.0539985   -6.3097857  
C    3.2573670   -0.0002920   -1.5109380  
C    2.5379468   -0.0001709   -0.3591961  
C    1.1435043    0.0000332   -0.7338500  
C    1.1092609   -0.0000082   -2.2088477  
N    2.4227562    0.0001909   -2.6182613  
C   -0.0265532   -0.0002522   -2.9515663  
C   -1.3003035   -0.0002639   -2.2514981  
O   -2.3786784   -0.0004131   -2.8306429  
C   -1.2877725    0.0000312   -0.6895608  
O   -2.3539958    0.0003307   -0.0892036  
C    0.0000000    0.0000000    0.0000000  
H    2.9384091   -0.0000369    0.6389239  
H    4.3270394   -0.0004765   -1.6439446  
H    2.7280494   -0.0013406   -3.5742113  
C    2.3971438    2.0127888    3.1728260  
C    1.9431056    1.6308205    1.9564670  
C    0.8496017    0.7127664    2.2356185  
C    0.7794028    0.6545384    3.7115134  
N    1.6840587    1.4146091    4.2663826  
C   -0.1885723   -0.1578550    4.3957118  
C   -1.0476298   -0.8789867    3.6398520  
O   -2.0015663   -1.6796266    4.1448486  
C   -1.0022026   -0.8410666    2.1483229  
O   -1.8147390   -1.5232959    1.5241687  
C    0.0000000    0.0000000    1.4700000  
H    2.3054237    1.9346118    0.9892483  
H   -0.2170646   -0.1815267    5.4753125  
H   -2.4487139   -2.0549881    3.3649027  
H    3.2048689    2.6911772    3.3971983  
