60

C    9.1704840    0.0013080   -3.6525722  
C    9.7749209    0.0017482   -4.8883405  
C   11.1833907    0.0025652   -4.6629281  
C   11.3800825    0.0022998   -3.2582079  
N   10.1374649    0.0034846   -2.6746707  
C   12.6495340    0.0026264   -2.6723058  
C   13.7402968    0.0029251   -3.5199003  
O   15.0026831    0.0029000   -3.0008717  
C   13.5644517    0.0035685   -4.9241420  
O   14.7482900    0.0042227   -5.6325705  
C   12.3124018    0.0035200   -5.5028440  
H    9.2635764    0.0026150   -5.8357163  
H    9.9603501   -0.0069579   -1.6864894  
H   12.8061708    0.0025709   -1.6024140  
H   15.6075911    0.0034342   -3.7540990  
H   14.5405857    0.0046028   -6.5719655  
H   12.2089962    0.0042046   -6.5816320  
C    6.6781257    0.0000527   -4.1292994  
C    7.7444173    0.0009685   -3.2958729  
C    7.1743129    0.0014029   -1.9574112  
C    5.7117403    0.0007372   -2.1752748  
N    5.4148486   -0.0001361   -3.4464332  
C    4.7795901    0.0008674   -1.0815733  
C    5.2855490    0.0012392    0.1727550  
O    4.5324888    0.0014071    1.2858323  
C    6.7567498    0.0015422    0.4252004  
O    7.1465030    0.0019990    1.5928102  
C    7.6924432    0.0014449   -0.7133968  
H    5.1738997    0.0016452    2.0191429  
H    8.7505413    0.0015572   -0.4883257  
H    6.6781253   -0.0005125   -5.2077115  
C    3.3321168    0.0004716   -1.3379341  
C    2.6974177    0.0000118   -2.5332316  
C    1.2800432   -0.0002116   -2.2052842  
C    1.2395033    0.0000644   -0.7271298  
N    2.4394059    0.0005460   -0.2131041  
C    0.0000000    0.0000000    0.0000000  
C   -1.1468704    0.0000635   -0.7169542  
O   -2.3742206    0.0000074   -0.1695488  
C   -1.1388774    0.0001608   -2.2096352  
O   -2.2206238    0.0000906   -2.7970409  
C    0.1454514    0.0001818   -2.9324241  
H    3.1367978   -0.0000649   -3.5160956  
H   -2.9844350    0.0001027   -0.9290164  
H    0.1083567    0.0003684   -4.0135594  
C    2.5128556    2.1077716    2.9199648  
C    1.9592212    1.6432552    4.0696553  
C    0.8915788    0.7479214    3.6910360  
C    0.8684491    0.7287414    2.2159470  
N    1.8754542    1.5738793    1.8102719  
C    0.0000000    0.0000000    1.4700000  
C   -0.9772830   -0.8200135    2.1664417  
O   -1.8021297   -1.5120829    1.5842315  
C   -0.9711318   -0.8147624    3.7284083  
O   -1.7894187   -1.5009653    4.3257297  
C    0.0140216    0.0115358    4.4216297  
H    2.2638494    1.8988021    5.0689105  
H    0.0117648    0.0094386    5.5031631  
H    3.3327358    2.7953732    2.7900019  
H    2.1123206    1.7707734    0.8551938  
