62

C    1.1188641    0.0008220   -0.8003808  
C    0.0000000    0.0000000    0.0000000  
C   -1.1323866    0.0008906   -0.8673522  
C   -0.6382666    0.0019686   -2.1969277  
N    0.7324014    0.0038484   -2.1202240  
C   -1.4770914    0.0027331   -3.3154805  
C   -2.8395481    0.0020961   -3.0876854  
O   -3.7039204    0.0024448   -4.1440347  
C   -3.3517874    0.0013946   -1.7684327  
O   -4.7300495    0.0012386   -1.7073120  
C   -2.5248549    0.0009135   -0.6644811  
H   -1.1067577    0.0037001   -4.3313811  
H   -4.5940041    0.0021855   -3.7685124  
H   -4.9934602    0.0007280   -0.7819907  
H   -2.9462581    0.0005613    0.3339664  
H    2.1619892    0.0009349   -0.5342070  
C    4.4769653   -2.1470646   -2.7027291  
C    4.8409674   -1.7539562   -3.9455273  
C    3.7877256   -0.8472137   -4.3756423  
C    2.8430643   -0.8072144   -3.2387173  
N    3.2418487   -1.5671443   -2.2551183  
C    1.6478429   -0.0100098   -3.2703000  
C    1.4074689    0.7146095   -4.3867597  
O    0.3314538    1.5023762   -4.5530620  
C    2.3418713    0.6955153   -5.5506701  
O    2.0597581    1.3797252   -6.5342807  
C    3.5612144   -0.1302661   -5.4939936  
H    5.7161623   -2.0434626   -4.5016712  
H    0.4389875    1.8844071   -5.4428040  
H    4.2123683   -0.1166603   -6.3577324  
C    6.3567232   -3.7012512   -2.0616221  
C    5.1844436   -3.0673590   -1.8008239  
C    4.7730906   -3.4709147   -0.4769028  
C    5.8092572   -4.3985046    0.0157695  
N    6.7406558   -4.4959541   -0.9921441  
C    5.7867174   -5.0008421    1.2316588  
C    4.6671073   -4.7167501    2.1138718  
O    4.5557207   -5.2097947    3.2286817  
C    3.5581906   -3.7375528    1.6125923  
O    2.6105971   -3.4910018    2.3464446  
C    3.6927690   -3.1498864    0.2820327  
H    6.5569987   -5.6779916    1.5737774  
H    2.9207979   -2.4727505   -0.0574835  
H    6.9723561   -3.6548714   -2.9452143  
H    7.5723419   -5.0563180   -0.9555750  
C    2.5311839    2.1237619    3.0120429  
C    1.9795631    1.6616747    1.8395852  
C    0.9223175    0.7739173    2.1983588  
C    0.8753926    0.7337535    3.6154372  
N    1.8668922    1.5631002    4.0777464  
C   -0.0496243   -0.0427881    4.3197917  
C   -0.9437528   -0.7922060    3.5801400  
O   -1.8685244   -1.5680278    4.2172520  
C   -0.9124520   -0.7656372    2.1655264  
O   -1.8671164   -1.5663939    1.5732860  
C    0.0000000    0.0000000    1.4700000  
H    2.3005065    1.9304404    0.8477417  
H    2.0679347    1.7444845    5.0445261  
H   -0.0904770   -0.0778569    5.3997470  
H   -2.3849669   -2.0011402    3.5251786  
H   -1.7775064   -1.4909735    0.6183591  
H    3.3468514    2.8078103    3.1724291  
