62

C    1.7131551   -1.1094257   -7.1794277  
C    2.6804805   -1.9936545   -6.7612315  
C    3.5219281   -2.2517694   -7.8837033  
C    3.0148467   -1.4904881   -8.9677900  
N    1.9153785   -0.8101139   -8.5064043  
C    3.5993400   -1.5006694  -10.2378510  
C    4.7162513   -2.2935729  -10.4167099  
O    5.3266401   -2.3403508  -11.6366491  
C    5.2368732   -3.0606144   -9.3474033  
O    6.3526715   -3.7986788   -9.6844458  
C    4.6606099   -3.0512645   -8.0942635  
H    2.7681245   -2.4032014   -5.7694741  
H    1.3531150   -0.1797358   -9.0490496  
H    3.2176181   -0.9228411  -11.0682755  
H    6.0746751   -2.9447123  -11.5446925  
H    6.6405823   -4.2869350   -8.9070673  
H    5.0817060   -3.6494146   -7.2946557  
C    0.2908545   -0.7259201   -5.1324812  
C    0.5947728   -0.5089645   -6.4380994  
C   -0.3866749    0.4179357   -6.9504006  
C   -1.2937755    0.7254266   -5.8281667  
N   -0.8287665    0.0000939   -4.7555305  
C   -2.3565432    1.5657114   -5.9065952  
C   -2.6250282    2.2100991   -7.1814348  
O   -3.5581860    2.9833517   -7.3534768  
C   -1.6774676    1.8988296   -8.3835351  
O   -1.8937474    2.4352061   -9.4618602  
C   -0.5642182    0.9759847   -8.1764497  
H   -3.0094295    1.7777024   -5.0713052  
H    0.0873222    0.7659237   -9.0137624  
H    0.7904773   -1.3552685   -4.4140198  
C    1.0672569   -0.0000698   -0.8321910  
C    0.0000000    0.0000000    0.0000000  
C   -1.1601223   -0.0000736   -0.8778472  
C   -0.5938729   -0.0000768   -2.2438435  
N    0.7113367   -0.0001553   -2.2234123  
C   -1.4286985   -0.0001877   -3.4135239  
C   -2.7683113   -0.0006798   -3.2270524  
O   -3.6653902   -0.0008302   -4.2276970  
C   -3.3702024   -0.0010610   -1.8610774  
O   -4.5974910   -0.0013779   -1.7662963  
C   -2.4926825   -0.0008943   -0.6770658  
H   -4.5324245   -0.0012258   -3.7833954  
H   -2.9677772   -0.0012974    0.2947961  
H    2.1134391   -0.0000547   -0.5705119  
C    0.8576279    0.7185626    2.2703808  
C    0.0000000    0.0000000    1.4700000  
C   -0.8668858   -0.7285659    2.3373528  
C   -0.4876752   -0.4117774    3.6669281  
N    0.5635254    0.4678311    3.5902241  
C   -1.1297612   -0.9515493    4.7854808  
C   -2.1738724   -1.8268314    4.5576857  
O   -2.8357962   -2.3827064    5.6140350  
C   -2.5667212   -2.1555554    3.2384331  
O   -3.6226318   -3.0413663    3.1773122  
C   -1.9335634   -1.6236449    2.1344818  
H    1.0363952    0.8769718    4.3757045  
H   -0.8454472   -0.7142436    5.8013813  
H   -3.5178062   -2.9546422    5.2385129  
H   -3.8247440   -3.2102924    2.2519915  
H   -2.2566033   -1.8942483    1.1360343  
H    1.6567807    1.3889844    2.0042067  
