62

C    5.0516945   -1.1493866   -8.8187346  
C    4.6029063   -0.0653620   -8.1004393  
C    4.6832369    1.0678275   -8.9630101  
C    5.1922234    0.6100296  -10.2052983  
N    5.4069343   -0.7403439  -10.0827914  
C    5.4030763    1.4596177  -11.2954964  
C    5.0942019    2.7956353  -11.1286663  
O    5.2804803    3.6689688  -12.1609462  
C    4.5857088    3.2715530   -9.8966951  
O    4.3275012    4.6267655   -9.8882792  
C    4.3777003    2.4340314   -8.8206767  
H    5.7559263   -1.3406360  -10.8079355  
H    5.7908663    1.1169476  -12.2449143  
H    5.0068136    4.5369738  -11.8370047  
H    3.9874286    4.8662080   -9.0207421  
H    3.9871856    2.8274451   -7.8894401  
H    5.1478471   -2.1817285   -8.5289359  
C    5.8833913   -2.1427755   -4.3709417  
C    5.8356981   -1.7363035   -5.6609362  
C    4.7031567   -0.8254390   -5.7255535  
C    4.1678915   -0.7979257   -4.3473961  
N    4.8557055   -1.5681393   -3.5488520  
C    3.0267438   -0.0008951   -3.9901699  
C    2.4469280    0.7354872   -4.9653056  
O    1.3760859    1.5245624   -4.7737362  
C    2.9639697    0.7291614   -6.3655872  
O    2.3865734    1.4237046   -7.2019147  
C    4.1358655   -0.0967023   -6.7069580  
H    6.4884971   -2.0195258   -6.4688436  
H    1.1970821    1.9160958   -5.6476998  
H    6.5833961   -2.8247269   -3.9149717  
C    3.3003547    0.0005277   -1.4738986  
C    2.5232816    0.0003497   -2.6090746  
C    1.1623203   -0.0001319   -2.1820102  
C    1.1711884    0.0000584   -0.7636141  
N    2.4852301   -0.0014919   -0.3662359  
C    0.0000000    0.0000000    0.0000000  
C   -1.2020383    0.0000520   -0.6806479  
O   -2.3759248    0.0003493    0.0157745  
C   -1.2314655   -0.0005115   -2.0955511  
O   -2.5054388   -0.0008040   -2.6250184  
C   -0.0764513   -0.0007274   -2.8495195  
H    2.8036266    0.0088183    0.5858662  
H   -3.0835639    0.0000346   -0.6418822  
H   -2.4360043   -0.0011529   -3.5845924  
H   -0.1304091   -0.0013423   -3.9319089  
H    4.3715553    0.0004897   -1.3667133  
C    0.8681109    0.7263879    2.2709268  
C    0.6127770    0.5096195    3.5869401  
C   -0.4920590   -0.4175482    3.6542670  
C   -0.8620974   -0.7254003    2.2596025  
N    0.0000000    0.0000000    1.4700000  
C   -1.8641242   -1.5660088    1.8976294  
C   -2.6293522   -2.2103885    2.9520183  
O   -3.5512764   -2.9839180    2.7283916  
C   -2.2549728   -1.8987399    4.4361073  
O   -2.8923672   -2.4351063    5.3323774  
C   -1.1543735   -0.9755647    4.7012123  
H    1.1382914    0.9492124    4.4159191  
H   -2.1192137   -1.7782617    0.8686553  
H   -0.9013378   -0.7652422    5.7314848  
H    1.6172880    1.3558399    1.8188057  
