60

C    7.0722664   -5.6300125   -4.3575049  
C    6.1827382   -4.6452037   -3.9950696  
C    6.6223161   -3.4382794   -4.6153155  
C    7.7946761   -3.7509307   -5.3499920  
N    8.0410242   -5.0894540   -5.1703122  
C    8.5003378   -2.7973114   -6.0898839  
C    8.0134727   -1.5045868   -6.0883385  
O    8.6635384   -0.5340600   -6.7943875  
C    6.8455113   -1.1729928   -5.3612009  
O    6.4884179    0.1560142   -5.4590184  
C    6.1490026   -2.1131919   -4.6308394  
H    5.3234322   -4.7798887   -3.3606839  
H    8.8025130   -5.5995349   -5.5801068  
H    9.3945802   -3.0291768   -6.6518191  
H    8.1646064    0.2821386   -6.6596624  
H    5.6906426    0.2956089   -4.9397203  
H    7.0931450   -6.6749475   -4.0993698  
C    4.5533949   -2.1376043   -2.6578821  
C    4.9399045   -1.7283668   -3.8886195  
C    3.8940257   -0.8167856   -4.3264063  
C    2.9285537   -0.7919270   -3.2066606  
N    3.3097737   -1.5641892   -2.2257060  
C    1.7334695    0.0049281   -3.2500363  
C    1.5131086    0.7436791   -4.3613519  
O    0.4396992    1.5328949   -4.5373375  
C    2.4688038    0.7400642   -5.5079972  
O    2.2042969    1.4366796   -6.4877848  
C    3.6875671   -0.0856735   -5.4394563  
H    0.5632901    1.9263770   -5.4199757  
H    4.3545060   -0.0606070   -6.2908044  
H    5.0606857   -2.8208826   -1.9954922  
C    1.1319246    0.0015678   -0.8009268  
C    0.7969914    0.0034958   -2.1169401  
C   -0.6453340    0.0035696   -2.1842669  
C   -1.1266832    0.0015410   -0.7896025  
N    0.0000000    0.0000000    0.0000000  
C   -2.4346129    0.0013913   -0.4276292  
C   -3.4350111    0.0031335   -1.4820181  
O   -4.6384614    0.0030875   -1.2583914  
C   -2.9478961    0.0050442   -2.9661074  
O   -3.7809382    0.0062135   -3.8623773  
C   -1.5113825    0.0053055   -3.2312122  
H   -2.7664565    0.0000174    0.6013448  
H   -1.1823533    0.0068381   -4.2614848  
H    2.1104316    0.0009435   -0.3488059  
C    2.5528530    2.1414826    2.8079335  
C    2.0663498    1.7338582    4.0032312  
C    0.9804344    0.8229586    3.6752840  
C    0.9495562    0.7966882    2.1971295  
N    1.8690446    1.5676019    1.6831036  
C    0.0000000    0.0000000    1.4700000  
C   -0.8785127   -0.7372425    2.1869543  
O   -1.8187535   -1.5261249    1.6395491  
C   -0.8723269   -0.7321790    3.6796354  
O   -1.7010379   -1.4274584    4.2670412  
C    0.1115397    0.0933559    4.4024240  
H    2.4028853    2.0163452    4.9860947  
H   -2.2861435   -1.9184361    2.3990168  
H    0.0832434    0.0693689    5.4835595  
H    3.3664920    2.8238276    2.6198634  
