62

C    1.2556435   -1.0438181   -7.6900123  
C    2.3083639   -1.9284464   -7.7310079  
C    2.6023854   -2.1622615   -9.1070465  
C    1.6887605   -1.3864283   -9.8655307  
N    0.8840623   -0.7211339   -8.9742052  
C    1.6878752   -1.3715984  -11.2635891  
C    2.6265829   -2.1539894  -11.9076936  
O    2.6701635   -2.1764130  -13.2717363  
C    3.5463119   -2.9352459  -11.1683997  
O    4.4178404   -3.6601825  -11.9546883  
C    3.5475869   -2.9505710   -9.7891650  
H    2.8027529   -2.3538472   -6.8744994  
H    0.1468644   -0.0855579   -9.2203010  
H    0.9941147   -0.7825781  -11.8475012  
H    3.3874235   -2.7772453  -13.5121610  
H    5.0042840   -4.1593851  -11.3780733  
H    4.2641854   -3.5591359   -9.2500807  
C    0.8347517   -0.7156069   -5.2158226  
C    0.5508858   -0.4632070   -6.5380106  
C   -0.5417122    0.4534559   -6.5616509  
C   -0.8847809    0.7269782   -5.2127937  
N   -0.0307352   -0.0004646   -4.4215603  
C   -1.9224331    1.5939529   -4.8572348  
C   -2.6263892    2.1960069   -5.8820051  
O   -3.6492070    3.0516981   -5.5910584  
C   -2.2993314    1.9354703   -7.2340296  
O   -3.0929438    2.6110106   -8.1380030  
C   -1.2759636    1.0800823   -7.5855346  
H   -2.1889633    1.8064963   -3.8310824  
H   -4.0005089    3.3553532   -6.4381984  
H   -2.8062851    2.3796233   -9.0267615  
H   -1.0486913    0.8998823   -8.6297347  
H    1.5851820   -1.3502822   -4.7765045  
C    3.2573670   -0.0002920   -1.5109380  
C    2.5379468   -0.0001709   -0.3591961  
C    1.1435043    0.0000332   -0.7338500  
C    1.1092609   -0.0000082   -2.2088477  
N    2.4227562    0.0001909   -2.6182613  
C   -0.0265532   -0.0002522   -2.9515663  
C   -1.3003035   -0.0002639   -2.2514981  
O   -2.3786784   -0.0004131   -2.8306429  
C   -1.2877725    0.0000312   -0.6895608  
O   -2.3539958    0.0003307   -0.0892036  
C    0.0000000    0.0000000    0.0000000  
H    2.9384091   -0.0000369    0.6389239  
H    4.3270394   -0.0004765   -1.6439446  
H    2.7280494   -0.0013406   -3.5742113  
C    0.0000000    0.0000000    1.4700000  
C    1.0541688    0.0001722    2.3260392  
C    0.5103138    0.0000454    3.6635956  
C   -0.9576371   -0.0002459    3.5155732  
N   -1.2018458    0.0001392    2.1615969  
C   -1.8348311   -0.0008317    4.5510609  
C   -1.2972847   -0.0009736    5.9014604  
O   -2.0050672   -0.0014265    6.9001319  
C    0.2542623   -0.0004184    6.0817573  
O    0.7184670   -0.0002256    7.2139121  
C    1.0974552   -0.0000873    4.8889129  
H    2.0940752    0.0005483    2.0517982  
H   -2.9081052   -0.0011668    4.4207061  
H    2.1707277    0.0000911    5.0223670  
H   -2.1128194   -0.0014912    1.7406791  
