62

C   -3.2578652    0.0024039   -2.9908507  
C   -4.0349370    0.0043587   -1.8556754  
C   -5.3958972    0.0056179   -2.2827405  
C   -5.3870307    0.0040490   -3.7011356  
N   -4.0729884    0.0040658   -4.0985152  
C   -6.5582193    0.0043937   -4.4647492  
C   -7.7602567    0.0060510   -3.7841021  
O   -8.9341432    0.0061072   -4.4805238  
C   -7.7896818    0.0080075   -2.3692002  
O   -9.0636546    0.0099261   -1.8397339  
C   -6.6346677    0.0079419   -1.6152323  
H   -3.6662213    0.0059254   -0.8442213  
H   -3.7546020   -0.0074429   -5.0506068  
H   -6.5582194    0.0033485   -5.5460456  
H   -9.6417813    0.0076765   -3.8228683  
H   -8.9942189    0.0111418   -0.8801607  
H   -6.6886244    0.0096502   -0.5328440  
C    0.0000000    0.0000000    0.0000000  
C    1.0521668   -0.0011902   -0.8862340  
C    0.4917219   -0.0011956   -2.1979129  
C   -0.9187425    0.0003149   -2.0478680  
N   -1.1833171   -0.0009411   -0.7007913  
C   -1.7951698    0.0010351   -3.1372090  
C   -1.2375834    0.0005226   -4.4010421  
O   -2.0474212    0.0015361   -5.4997584  
C    0.1673583   -0.0013565   -4.5711959  
O    0.5673528   -0.0020685   -5.8915549  
C    1.0325773   -0.0023411   -3.4969889  
H    2.0953059   -0.0030649   -0.6200560  
H   -2.0989777    0.0102372   -0.2891824  
H   -1.4634882    0.0006499   -6.2693595  
H    1.5290714   -0.0033151   -5.9180044  
C    4.2912211   -2.1143571   -1.4466313  
C    5.3462817   -1.6515853   -2.1654945  
C    4.8141460   -0.7557365   -3.1650555  
C    3.3521030   -0.7343530   -2.9681710  
N    3.0997379   -1.5788366   -1.9117389  
C    2.4861705   -0.0045381   -3.7159918  
C    3.0304479    0.8143880   -4.7863457  
O    2.3328665    1.5072883   -5.5154345  
C    4.5758896    0.8068028   -5.0129659  
O    5.0456439    1.4920740   -5.9112950  
C    5.4069286   -0.0204845   -4.1418619  
H    6.3793922   -1.9086111   -2.0130678  
H    6.4760577   -0.0200038   -4.3052227  
H    4.2838446   -2.8017254   -0.6163540  
H    2.1903187   -1.7742921   -1.5351740  
C    1.0672568    0.0000697    2.3021913  
C    0.0000000    0.0000000    1.4700000  
C   -1.1601224    0.0000736    2.3478473  
C   -0.5938729    0.0000769    3.7138435  
N    0.7113367    0.0001554    3.6934124  
C   -1.4286986    0.0001879    4.8835240  
C   -2.7683114    0.0006799    4.6970523  
O   -3.6653903    0.0008304    5.6976972  
C   -3.3702025    0.0010610    3.3310774  
O   -4.5974910    0.0013779    3.2362962  
C   -2.4926826    0.0008943    2.1470656  
H   -0.9878360   -0.0000190    5.8697035  
H   -4.5324246    0.0012261    5.2533954  
H   -2.9677772    0.0012974    1.1752040  
H    2.1134392    0.0000545    2.0405121  
