66

C    1.5862965   -2.0670320   -5.3411847  
C    1.3189951   -1.5555204   -6.5899331  
C    0.1997466   -0.6822136   -6.4513069  
C   -0.1759085   -0.7009547   -5.0836600  
N    0.6852546   -1.5532112   -4.4381564  
C   -1.2456329    0.0471727   -4.5828766  
C   -1.9487579    0.8286865   -5.4789955  
O   -3.0021416    1.5794499   -5.0433904  
C   -1.5894396    0.8603682   -6.8474632  
O   -2.3865858    1.6866036   -7.6124703  
C   -0.5344149    0.1223716   -7.3422465  
H    1.8630204   -1.7845990   -7.4902406  
H    0.6698563   -1.7594942   -3.4557151  
H   -3.3470234    2.0416480   -5.8184353  
H   -2.0769446    1.6504695   -8.5226458  
H    2.3474956   -2.7588384   -5.0234759  
C    0.7490394   -3.0063556  -10.2668774  
C    0.3490864   -2.3462110   -9.1281443  
C    0.1887517   -0.9726494   -9.4777460  
C    0.5073563   -0.8537317  -10.8547986  
N    0.8451236   -2.1067209  -11.3026255  
C    0.4575959    0.3638860  -11.5401597  
C    0.0790207    1.4817695  -10.8223887  
O    0.0133896    2.6959258  -11.4424944  
C   -0.2423178    1.3833980   -9.4476592  
O   -0.6003090    2.5855119   -8.8731094  
C   -0.1931840    0.1825619   -8.7708260  
H    0.1932536   -2.7987735   -8.1638328  
H    1.1080848   -2.3351436  -12.2442495  
H    0.6993459    0.4611982  -12.5895830  
H   -0.2665964    3.3309573  -10.7704774  
H   -0.8014366    2.4311020   -7.9450415  
H    0.9747520   -4.0475050  -10.4218670  
C    1.1243410    0.0099923   -0.7919003  
C    0.7474076    0.0234544   -2.1148543  
C   -0.6787381    0.0234490   -2.1414700  
C   -1.1201745    0.0098592   -0.7935546  
N    0.0000000    0.0000000    0.0000000  
C   -2.4730816    0.0063709   -0.4408240  
C   -3.3971958    0.0170982   -1.4675058  
O   -4.7313517    0.0146259   -1.1793471  
C   -2.9763648    0.0303504   -2.8186324  
O   -4.0166480    0.0395118   -3.7247624  
C   -1.6418562    0.0335260   -3.1673481  
H    1.4178717    0.0310972   -2.9571209  
H   -2.8160166   -0.0041111    0.5845966  
H   -5.1938818    0.0230867   -2.0274384  
H   -3.6464675    0.0482293   -4.6127343  
H    2.1062467    0.0052819   -0.3505407  
C    0.8676693    0.7151171    2.2619005  
C    0.5875920    0.4624972    3.5848544  
C   -0.5048400   -0.4542819    3.6114698  
C   -0.8517165   -0.7276451    2.2635546  
N    0.0000000    0.0000000    1.4700000  
C   -1.8902865   -1.5946756    1.9108239  
C   -2.5912627   -2.1969500    2.9375057  
O   -3.6148162   -3.0527051    2.6493466  
C   -2.2603868   -1.9365747    4.2886322  
O   -3.0513550   -2.6123276    5.1947621  
C   -1.2361111   -1.0811317    4.6373480  
H    1.1060808    0.8876438    4.4271209  
H   -2.1597133   -1.8070987    0.8854031  
H   -3.9636755   -3.3565188    3.4974381  
H   -2.7621927   -2.3810384    6.0827341  
H   -1.0058879   -0.9010589    5.6809233  
H    1.6167816    1.3499334    1.8205408  
