66

C   -0.3398867   -0.9878064   -9.4657224  
C   -0.5105098   -0.5738635  -10.7664944  
C   -0.7669067    0.8287372  -10.7268493  
C   -0.7399865    1.2183835   -9.3632587  
N   -0.4801244    0.0909632   -8.6243318  
C   -0.9532960    2.5366068   -8.9490409  
C   -1.1979422    3.4787007   -9.9292379  
O   -1.4126100    4.7806787   -9.5802622  
C   -1.2291466    3.1093461  -11.2950422  
O   -1.4853894    4.1616025  -12.1497002  
C   -1.0190670    1.8090255  -11.7043826  
H   -0.4578672   -1.2053769  -11.6367895  
H   -0.9342246    2.8399952   -7.9113551  
H   -1.5615038    5.2631291  -10.4038743  
H   -1.4892150    3.8268536  -13.0516598  
H   -1.0492059    1.5560808  -12.7577532  
H   -0.1306692   -1.9674690   -9.0714544  
C    2.3027745   -2.1230392   -5.9144753  
C    1.6515179   -1.6244163   -7.0188784  
C    0.6310517   -0.7498911   -6.5409098  
C    0.7085806   -0.7546401   -5.1246139  
N    1.7328872   -1.6001002   -4.7773247  
C   -0.1496415   -0.0015615   -4.3176961  
C   -1.1033077    0.7706087   -4.9520869  
O   -1.9667115    1.5256559   -4.2121874  
C   -1.1966340    0.7882866   -6.3641049  
O   -2.1980397    1.6065094   -6.8447735  
C   -0.3504845    0.0453981   -7.1607692  
H    1.8827166   -1.8626507   -8.0429807  
H    2.0305490   -1.7962856   -3.8387672  
H   -2.5411495    1.9798216   -4.8422817  
H   -2.1929082    1.5610742   -7.8057690  
H    3.1277796   -2.8114384   -5.8478929  
C    3.3003543    0.0005276   -1.4738987  
C    2.5232814    0.0003497   -2.6090747  
C    1.1623200   -0.0001320   -2.1820103  
C    1.1711883    0.0000582   -0.7636140  
N    2.4852300   -0.0014919   -0.3662360  
C    0.0000000    0.0000000    0.0000000  
C   -1.2020384    0.0000519   -0.6806477  
O   -2.3759249    0.0003493    0.0157743  
C   -1.2314656   -0.0005115   -2.0955510  
O   -2.5054392   -0.0008039   -2.6250180  
C   -0.0764516   -0.0007274   -2.8495195  
H    2.8919955   -0.0005620   -3.6205304  
H    2.8036267    0.0088183    0.5858662  
H   -3.0835638    0.0000347   -0.6418818  
H   -2.4360047   -0.0011529   -3.5845921  
H    4.3715549    0.0004895   -1.3667136  
C    0.8576279    0.7185626    2.2703808  
C    0.0000000    0.0000000    1.4700000  
C   -0.8668858   -0.7285659    2.3373528  
C   -0.4876752   -0.4117774    3.6669281  
N    0.5635254    0.4678311    3.5902241  
C   -1.1297612   -0.9515493    4.7854808  
C   -2.1738724   -1.8268314    4.5576857  
O   -2.8357962   -2.3827064    5.6140350  
C   -2.5667212   -2.1555554    3.2384331  
O   -3.6226318   -3.0413663    3.1773122  
C   -1.9335634   -1.6236449    2.1344818  
H    1.0363952    0.8769718    4.3757045  
H   -0.8454472   -0.7142436    5.8013813  
H   -3.5178062   -2.9546422    5.2385129  
H   -3.8247440   -3.2102924    2.2519915  
H   -2.2566033   -1.8942483    1.1360343  
H    1.6567807    1.3889844    2.0042067  
