60

C    3.5030027   -3.5883032   -4.1494416  
C    3.1222050   -2.9366273   -5.2995630  
C    4.0344071   -3.3307030   -6.3228871  
C    4.9574978   -4.2318402   -5.7331578  
N    4.6073309   -4.3646119   -4.4124111  
C    6.0012539   -4.8230725   -6.4513549  
C    6.1150475   -4.4989375   -7.7893263  
O    7.1159164   -5.0479669   -8.5375519  
C    5.2040207   -3.6015922   -8.3956404  
O    5.4503025   -3.3798090   -9.7348572  
C    4.1742547   -3.0177434   -7.6876672  
H    5.0756256   -4.9490881   -3.7437787  
H    6.7081901   -5.5105429   -6.0077019  
H    7.0151162   -4.6935139   -9.4305616  
H    4.7908754   -2.7631890  -10.0673317  
H    3.4920555   -2.3339806   -8.1791455  
H    3.0751049   -3.5596677   -3.1619995  
C    1.9859502   -2.0121222   -5.4225055  
C    1.1142987   -1.6302696   -4.4602212  
C    0.2013165   -0.7124160   -5.1239291  
C    0.6817523   -0.6541656   -6.5212024  
N    1.7275942   -1.4140512   -6.7022472  
C    0.0351788    0.1580608   -7.5148402  
C   -1.0425997    0.8790114   -7.1301861  
O   -1.7423825    1.6794830   -7.9521295  
C   -1.5518357    0.8410637   -5.7275461  
O   -2.5376877    1.5231241   -5.4480632  
C   -0.8712826    0.0001710   -4.7267111  
H    1.0933977   -1.9340156   -3.4275658  
H    0.4078533    0.1817532   -8.5284790  
H   -2.4462789    2.0547409   -7.3927868  
C    1.0965514    0.0001359   -0.8010305  
C    0.0000000    0.0000000    0.0000000  
C   -1.1546563    0.0001470   -0.8669513  
C   -0.6372014    0.0003519   -2.2486282  
N    0.7342871    0.0007337   -2.1395014  
C   -1.4147739    0.0001352   -3.3608717  
C   -2.8576049   -0.0001048   -3.1854462  
O   -3.6427779   -0.0002494   -4.1244907  
C   -3.4275840   -0.0000725   -1.7311666  
O   -4.6406831    0.0000333   -1.5710060  
C   -2.4891867   -0.0001091   -0.6116744  
H   -2.8919122   -0.0002918    0.3920866  
H    2.1388272    0.0000663   -0.5261648  
H    1.3735872   -0.0006099   -2.9130262  
C    0.8400945    0.7047457    2.2710304  
C    0.0000000    0.0000000    1.4700000  
C   -0.8844236   -0.7423113    2.3369512  
C   -0.4878984   -0.4098547    3.7186280  
N    0.5629682    0.4714286    3.6095011  
C   -1.0836927   -0.9095027    4.8308716  
C   -2.1891196   -1.8367527    4.6554461  
O   -2.7906899   -2.3413415    5.5944904  
C   -2.6257283   -2.2031529    3.2011665  
O   -3.5549479   -2.9829990    3.0410059  
C   -1.9068976   -1.5999348    2.0816745  
H   -0.7774656   -0.6525820    5.8354244  
H   -2.2155208   -1.8586617    1.0779135  
H    1.6384792    1.3747609    1.9961646  
H    1.0518368    0.8833920    4.3830260  
