62

C   -7.1152901    5.4747409    1.1606733  
C   -8.3326891    5.0061483    1.5975126  
C   -8.3744070    3.6123299    1.2972959  
C   -7.1439507    3.2841078    0.6726575  
N   -6.4036182    4.4381270    0.6036244  
C   -6.8368625    1.9905710    0.2399356  
C   -7.7891409    1.0104568    0.4417279  
O   -7.5408838   -0.2697697    0.0387352  
C   -9.0229339    1.3184004    1.0628086  
O   -9.8662266    0.2341591    1.1917291  
C   -9.3266697    2.5943427    1.4897076  
H   -9.0971279    5.5965529    2.0729579  
H   -5.4792085    4.5124708    0.2190198  
H   -8.3240394   -0.7857114    0.2705446  
H  -10.6759536    0.5278963    1.6202900  
H  -10.2800849    2.8000882    1.9620893  
H   -6.6988995    6.4666800    1.2010852  
C   -4.3359695    2.1064016   -0.0635823  
C   -5.5644951    1.6417184   -0.4083570  
C   -5.3776808    0.7467249   -1.5259091  
C   -3.9292261    0.7279264   -1.8059379  
N   -3.3543293    1.5729379   -0.8848847  
C   -3.3460097   -0.0004262   -2.7913647  
C   -4.2020393   -0.8203941   -3.6324363  
O   -3.7724540   -1.5121266   -4.5463636  
C   -5.7389983   -0.8155429   -3.3539783  
O   -6.4697263   -1.5017111   -4.0557404  
C   -6.2499650    0.0103535   -2.2628046  
H   -7.3153178    0.0079811   -2.0764130  
H   -4.0651606    2.7938487    0.7212540  
H   -2.3726203    1.7700215   -0.8181563  
C    0.0000000    0.0000000    0.0000000  
C    1.0662919   -0.0000103   -0.8334272  
C    0.4961868    0.0000066   -2.1718889  
C   -0.9663860   -0.0000849   -1.9540248  
N   -1.2632775   -0.0000084   -0.6828659  
C   -1.8985364   -0.0000515   -3.0477258  
C   -1.3925778    0.0004567   -4.3020543  
O   -2.1456385    0.0005412   -5.4151314  
C    0.0786229    0.0009326   -4.5544999  
O    0.4683756    0.0012594   -5.7221104  
C    1.0143162    0.0008443   -3.4159034  
H    2.1107195    0.0000631   -0.5721869  
H   -1.5042277    0.0009692   -6.1484420  
H    2.0724151    0.0013151   -3.6409746  
C    1.1188642   -0.0008217    2.2703808  
C    0.0000000    0.0000000    1.4700000  
C   -1.1323862   -0.0008904    2.3373528  
C   -0.6382662   -0.0019682    3.6669281  
N    0.7324016   -0.0038477    3.5902241  
C   -1.4770914   -0.0027325    4.7854808  
C   -2.8395474   -0.0020958    4.5576857  
O   -3.7039201   -0.0024443    5.6140350  
C   -3.3517868   -0.0013946    3.2384331  
O   -4.7300496   -0.0012389    3.1773122  
C   -2.5248543   -0.0009135    2.1344818  
H    1.3576314    0.0056174    4.3757045  
H   -1.1067570   -0.0036993    5.8013813  
H   -4.5940033   -0.0021850    5.2385129  
H   -4.9934601   -0.0007286    2.2519915  
H   -2.9462578   -0.0005617    1.1360343  
H    2.1619896   -0.0009344    2.0042067  
