60

C    0.0298374   -0.0618532   -8.8233015  
C    0.8095091   -0.7183226   -9.7472205  
C    0.3420669   -0.3298491  -11.0376419  
C   -0.7332677    0.5729681  -10.8363891  
N   -0.8977141    0.7120862   -9.4805796  
C   -1.4358917    1.1598369  -11.8931264  
C   -1.0456693    0.8295309  -13.1764053  
O   -1.6973579    1.3741068  -14.2449325  
C    0.0246141   -0.0695825  -13.3975505  
O    0.2923267   -0.2976845  -14.7315832  
C    0.7180420   -0.6491295  -12.3555300  
H    1.6152475   -1.3949084   -9.5191628  
H   -1.5801520    1.2990848   -9.0359540  
H   -2.2564635    1.8485578  -11.7464025  
H   -1.2728554    1.0157236  -15.0352648  
H    1.0275995   -0.9151031  -14.7929990  
H    1.5333766   -1.3343855  -12.5558591  
C    2.5185218   -2.1418784   -5.7664424  
C    2.0285784   -1.7344768   -6.9604095  
C    0.9435064   -0.8236411   -6.6295061  
C    0.9168306   -0.7971603   -5.1512739  
N    1.8378571   -1.5679055   -4.6397540  
C   -0.0307352   -0.0004646   -4.4215603  
C   -0.9113598    0.7365842   -5.1361191  
O   -1.8501209    1.5254492   -4.5861545  
C   -0.9094201    0.7313057   -6.6288110  
O   -1.7398703    1.4264153   -7.2139569  
C    0.0724714   -0.0942326   -7.3542764  
H    2.3623455   -2.0170710   -7.9441861  
H   -2.3197101    1.9176029   -5.3443463  
H    3.3327630   -2.8241129   -5.5805892  
C    3.2573670   -0.0002920   -1.5109380  
C    2.5379468   -0.0001709   -0.3591961  
C    1.1435043    0.0000332   -0.7338500  
C    1.1092609   -0.0000082   -2.2088477  
N    2.4227562    0.0001909   -2.6182613  
C   -0.0265532   -0.0002522   -2.9515663  
C   -1.3003035   -0.0002639   -2.2514981  
O   -2.3786784   -0.0004131   -2.8306429  
C   -1.2877725    0.0000312   -0.6895608  
O   -2.3539958    0.0003307   -0.0892036  
C    0.0000000    0.0000000    0.0000000  
H    2.9384091   -0.0000369    0.6389239  
H    4.3270394   -0.0004765   -1.6439446  
H    2.7280494   -0.0013406   -3.5742113  
C    0.8681109    0.7263879    2.2709268  
C    0.6127770    0.5096195    3.5869401  
C   -0.4920590   -0.4175482    3.6542670  
C   -0.8620974   -0.7254003    2.2596025  
N    0.0000000    0.0000000    1.4700000  
C   -1.8641242   -1.5660088    1.8976294  
C   -2.6293522   -2.2103885    2.9520183  
O   -3.5512764   -2.9839180    2.7283916  
C   -2.2549728   -1.8987399    4.4361073  
O   -2.8923672   -2.4351063    5.3323774  
C   -1.1543735   -0.9755647    4.7012123  
H    1.1382914    0.9492124    4.4159191  
H   -2.1192137   -1.7782617    0.8686553  
H   -0.9013378   -0.7652422    5.7314848  
H    1.6172880    1.3558399    1.8188057  
