62

C    7.5265863   -3.6292186   -2.7300146  
C    7.2866707   -3.0309821   -3.9453423  
C    8.2935617   -3.4940121   -4.8433253  
C    9.1265674   -4.3802018   -4.1134657  
N    8.6339784   -4.4381353   -2.8333810  
C   10.2268767   -5.0267324   -4.6845239  
C   10.4909042   -4.7742923   -6.0167179  
O   11.5528001   -5.3794502   -6.6243129  
C    9.6715749   -3.8929659   -6.7615544  
O   10.0649949   -3.7452095   -8.0756060  
C    8.5860899   -3.2545910   -6.1987701  
H    9.0140004   -4.9957488   -2.0899889  
H   10.8657397   -5.7031714   -4.1336287  
H   11.5566165   -5.0698257   -7.5393990  
H    9.4597704   -3.1346384   -8.5074736  
H    7.9768462   -2.5847770   -6.7942941  
H    6.9962456   -3.5417871   -1.7972481  
C    6.1923725   -2.0934462   -4.2359241  
C    5.2191576   -1.6310076   -3.4094377  
C    4.3967566   -0.7348789   -4.1875411  
C    4.9747503   -0.7130124   -5.5448313  
N    6.0607559   -1.5568755   -5.5077373  
C    4.4832122    0.0165649   -6.5781802  
C    3.3064976    0.8350543   -6.3374472  
O    2.7884368    1.5278086   -7.2034755  
C    2.6779832    0.8273398   -4.9075117  
O    1.6873114    1.5127139   -4.6928198  
C    3.2973506   -0.0000934   -3.8752374  
H    5.0920136   -1.8881512   -2.3729409  
H    4.9222071    0.0183449   -7.5662034  
H    6.6635521   -1.7542833   -6.2853714  
C    3.3321174    0.0004714   -1.3379332  
C    2.6974186    0.0000115   -2.5332308  
C    1.2800441   -0.0002119   -2.2052838  
C    1.2395035    0.0000643   -0.7271293  
N    2.4394063    0.0005458   -0.2131034  
C    0.0000000    0.0000000    0.0000000  
C   -1.1468701    0.0000634   -0.7169542  
O   -2.3742201    0.0000072   -0.1695492  
C   -1.1388767    0.0001606   -2.2096354  
O   -2.2206229    0.0000903   -2.7970413  
C    0.1454526    0.0001815   -2.9324239  
H   -2.9844344    0.0001023   -0.9290168  
H    0.1083580    0.0003680   -4.0135594  
H    4.3940040    0.0007617   -1.1498630  
C    2.5285572    2.1210227    2.9438989  
C    1.9331703    1.6216660    4.0790748  
C    0.8903039    0.7472258    3.6520102  
C    0.8972198    0.7527806    2.2336141  
N    1.9028376    1.5986179    1.8362361  
C    0.0000000    0.0000000    1.4700000  
C   -0.9207814   -0.7726952    2.1506477  
O   -1.8198395   -1.5274828    1.4542253  
C   -0.9436862   -0.7911793    3.5655508  
O   -1.9197945   -1.6098497    4.0950179  
C   -0.0590329   -0.0485852    4.3195194  
H    2.2150357    1.8593692    5.0905303  
H    2.1533708    1.7953814    0.8841339  
H   -2.3621246   -1.9821033    2.1118817  
H   -1.8668290   -1.5649508    5.0545920  
H   -0.1007624   -0.0827977    5.4019087  
H    3.3491200    2.8096064    2.8367138  
