62

C   -0.2098398   -1.1481618   -9.6237622  
C   -0.3444004   -0.7460262  -10.9324450  
C   -0.6027600    0.6566333  -10.9125383  
C   -0.6141467    1.0584823   -9.5522757  
N   -0.3742253   -0.0620427   -8.7963141  
C   -0.8398249    2.3801576   -9.1560013  
C   -1.0576809    3.3132203  -10.1510443  
O   -1.2828862    4.6180659   -9.8198755  
C   -1.0505287    2.9316380  -11.5138215  
O   -1.2835534    3.9759710  -12.3846900  
C   -0.8282277    1.6279060  -11.9054724  
H   -0.2670749   -1.3852473  -11.7952371  
H   -0.8499091    2.6928304   -8.1209481  
H   -1.4090809    5.0929933  -10.6516109  
H   -1.2619933    3.6331665  -13.2833689  
H   -0.8288037    1.3655240  -12.9569638  
H   -0.0110315   -2.1240644   -9.2150470  
C    2.2088376   -2.1426205   -5.8191636  
C    1.6816910   -1.7351242   -6.9971456  
C    0.6077899   -0.8240080   -6.6323121  
C    0.6276207   -0.7974855   -5.1539730  
N    1.5640846   -1.5684500   -4.6716456  
C   -0.2963293   -0.0005341   -4.3948471  
C   -1.1988048    0.7367190   -5.0813825  
O   -2.1196088    1.5258329   -4.5021932  
C   -1.2438086    0.7314045   -6.5733969  
O   -2.0920753    1.4267087   -7.1321599  
C   -0.2854235   -0.0943979   -7.3293552  
H    1.9842853   -2.0178258   -7.9909228  
H   -2.6127106    1.9180864   -5.2452551  
H    3.0283493   -2.8250551   -5.6589865  
C    3.1301146   -0.0010313   -1.7028256  
C    2.5367765   -0.0002766   -0.4864669  
C    1.1089901    0.0001027   -0.7656184  
C    1.0177865   -0.0004150   -2.2415133  
N    2.1993571   -0.0011612   -2.7963824  
C   -0.2459219   -0.0002879   -2.9257116  
C   -1.3675326   -0.0000606   -2.1698520  
O   -2.6129318    0.0000865   -2.6748483  
C   -1.3083588    0.0000910   -0.6783229  
O   -2.3693264    0.0004206   -0.0541685  
C    0.0000000    0.0000000    0.0000000  
H    3.0096016   -0.0001007    0.4807518  
H   -3.1967444    0.0002093   -1.8949026  
H    4.1849275   -0.0015114   -1.9271979  
C    2.5311839    2.1237619    3.0120429  
C    1.9795631    1.6616747    1.8395852  
C    0.9223175    0.7739173    2.1983588  
C    0.8753926    0.7337535    3.6154372  
N    1.8668922    1.5631002    4.0777464  
C   -0.0496243   -0.0427881    4.3197917  
C   -0.9437528   -0.7922060    3.5801400  
O   -1.8685244   -1.5680278    4.2172520  
C   -0.9124520   -0.7656372    2.1655264  
O   -1.8671164   -1.5663939    1.5732860  
C    0.0000000    0.0000000    1.4700000  
H    2.3005065    1.9304404    0.8477417  
H    2.0679347    1.7444845    5.0445261  
H   -0.0904770   -0.0778569    5.3997470  
H   -2.3849669   -2.0011402    3.5251786  
H   -1.7775064   -1.4909735    0.6183591  
H    3.3468514    2.8078103    3.1724291  
