64

C    1.5646134   -2.3588217   -7.3163786  
C    1.1269580   -1.0555853   -7.3663784  
C    1.8370166   -0.4183117   -8.4267086  
C    2.7010385   -1.3906298   -8.9923844  
N    2.5119006   -2.5569822   -8.2934810  
C    3.5539707   -1.1121381  -10.0646432  
C    3.5340982    0.1712011  -10.5753514  
O    4.3465887    0.4972094  -11.6225344  
C    2.6792573    1.1552585  -10.0242669  
O    2.7757655    2.3847581  -10.6426207  
C    1.8377508    0.8812990   -8.9662775  
H    2.9815549   -3.4254265   -8.4757202  
H    4.2149800   -1.8487242  -10.5002005  
H    4.1780558    1.4278444  -11.8194598  
H    2.1665282    2.9911703  -10.2105344  
H    1.1943037    1.6555875   -8.5651177  
H    1.2770422   -3.1622976   -6.6601105  
C   -0.0037888   -0.7105351   -5.1341627  
C   -1.0641734    0.0073898   -4.6315339  
C   -1.6260116    0.7376864   -5.7203887  
C   -0.8603255    0.4225622   -6.8720602  
N    0.1176069   -0.4577633   -6.4805350  
C   -1.1316216    0.9642906   -8.1321067  
C   -2.1954372    1.8398544   -8.2314166  
O   -2.5045524    2.3976091   -9.4382181  
C   -2.9709733    2.1669366   -7.0937087  
O   -3.9953215    3.0532717   -7.3553654  
C   -2.7037392    1.6330951   -5.8502755  
H   -0.5517519    0.7282599   -9.0137205  
H   -3.2684087    2.9694078   -9.2871066  
H   -4.4693377    3.2210037   -6.5351348  
H   -3.3151860    1.9024710   -4.9970182  
H    0.6764270   -1.3817966   -4.6385080  
C    1.1319248    0.0015675   -0.8009270  
C    0.7969916    0.0034959   -2.1169404  
C   -0.6453336    0.0035703   -2.1842672  
C   -1.1266831    0.0015415   -0.7896027  
N    0.0000000    0.0000000    0.0000000  
C   -2.4346129    0.0013924   -0.4276297  
C   -3.4350110    0.0031352   -1.4820184  
O   -4.6384610    0.0030897   -1.2583919  
C   -2.9478958    0.0050460   -2.9661075  
O   -3.7809377    0.0062160   -3.8623775  
C   -1.5113821    0.0053068   -3.2312125  
H    1.4821240    0.0045436   -2.9459192  
H   -2.7664565    0.0000185    0.6013447  
H    2.1104318    0.0009428   -0.3488058  
C    2.5311839    2.1237619    3.0120429  
C    1.9795631    1.6616747    1.8395852  
C    0.9223175    0.7739173    2.1983588  
C    0.8753926    0.7337535    3.6154372  
N    1.8668922    1.5631002    4.0777464  
C   -0.0496243   -0.0427881    4.3197917  
C   -0.9437528   -0.7922060    3.5801400  
O   -1.8685244   -1.5680278    4.2172520  
C   -0.9124520   -0.7656372    2.1655264  
O   -1.8671164   -1.5663939    1.5732860  
C    0.0000000    0.0000000    1.4700000  
H    2.3005065    1.9304404    0.8477417  
H    2.0679347    1.7444845    5.0445261  
H   -0.0904770   -0.0778569    5.3997470  
H   -2.3849669   -2.0011402    3.5251786  
H   -1.7775064   -1.4909735    0.6183591  
H    3.3468514    2.8078103    3.1724291  
