64

C    6.8155223   -0.0017531   -5.8175125  
C    5.5435135    0.0004350   -6.3413982  
C    5.6780746    0.0010277   -7.7614308  
C    7.0672740   -0.0011694   -8.0478649  
N    7.7293545   -0.0008695   -6.8452571  
C    7.5705031   -0.0015746   -9.3523000  
C    6.6546574   -0.0000352  -10.3864192  
O    7.0916024   -0.0006999  -11.6795135  
C    5.2645973    0.0025407  -10.1208204  
O    4.4816579    0.0042490  -11.2567551  
C    4.7674384    0.0032151   -8.8342128  
H    4.6309084    0.0025809   -5.7703111  
H    8.7268502   -0.0126907   -6.7319231  
H    8.6281349   -0.0031010   -9.5772723  
H    6.3011094    0.0009144  -12.2348360  
H    3.5575300    0.0059162  -10.9891932  
H    3.6975115    0.0053863   -8.6617901  
C    4.5679461   -0.0016854   -2.0086701  
C    5.6536976   -0.0029016   -1.1639160  
C    6.8200673   -0.0036871   -1.9850014  
C    6.3798477   -0.0026036   -3.3333825  
N    5.0072029   -0.0033527   -3.3118968  
C    7.2630028   -0.0026750   -4.4172768  
C    8.6151887   -0.0035548   -4.1348426  
O    9.5213679   -0.0033138   -5.1555548  
C    9.0739283   -0.0050178   -2.7960471  
O   10.4486142   -0.0061775   -2.6795164  
C    8.2032438   -0.0052215   -1.7262643  
H    5.6103771   -0.0042927   -0.0882233  
H    4.4140948    0.0076883   -4.1218859  
H   10.3956188   -0.0043381   -4.7445213  
H   10.6745782   -0.0070991   -1.7443461  
H    8.5841288   -0.0065379   -0.7116691  
C    3.1301149   -0.0010311   -1.7028252  
C    2.5367768   -0.0002767   -0.4864665  
C    1.1089904    0.0001028   -0.7656183  
C    1.0177872   -0.0004148   -2.2415132  
N    2.1993578   -0.0011611   -2.7963820  
C   -0.2459209   -0.0002877   -2.9257118  
C   -1.3675319   -0.0000605   -2.1698524  
O   -2.6129313    0.0000867   -2.6748490  
C   -1.3083584    0.0000910   -0.6783232  
O   -2.3693261    0.0004206   -0.0541692  
C    0.0000000    0.0000000    0.0000000  
H    3.0096017   -0.0001007    0.4807525  
H   -0.2829630   -0.0004687   -4.0053125  
H   -3.1967441    0.0002094   -1.8949034  
C    0.8676693    0.7151171    2.2619005  
C    0.5875920    0.4624972    3.5848544  
C   -0.5048400   -0.4542819    3.6114698  
C   -0.8517165   -0.7276451    2.2635546  
N    0.0000000    0.0000000    1.4700000  
C   -1.8902865   -1.5946756    1.9108239  
C   -2.5912627   -2.1969500    2.9375057  
O   -3.6148162   -3.0527051    2.6493466  
C   -2.2603868   -1.9365747    4.2886322  
O   -3.0513550   -2.6123276    5.1947621  
C   -1.2361111   -1.0811317    4.6373480  
H    1.1060808    0.8876438    4.4271209  
H   -2.1597133   -1.8070987    0.8854031  
H   -3.9636755   -3.3565188    3.4974381  
H   -2.7621927   -2.3810384    6.0827341  
H   -1.0058879   -0.9010589    5.6809233  
H    1.6167816    1.3499334    1.8205408  
