64

C    2.3576645   -1.9345381   -7.7303361  
C    3.4433947   -2.7658483   -7.8806100  
C    3.8193484   -2.7152752   -9.2556366  
C    2.9193743   -1.8289014   -9.9008609  
N    2.0437138   -1.3741534   -8.9463757  
C    2.9929411   -1.5380133  -11.2664227  
C    3.9934374   -2.1528846  -11.9938281  
O    4.1109417   -1.9040666  -13.3307249  
C    4.9007350   -3.0406201  -11.3680845  
O    5.8396765   -3.5728342  -12.2274339  
C    4.8285851   -3.3282616  -10.0210207  
H    3.9066741   -3.3391367   -7.0959406  
H    1.2975420   -0.7219125   -9.1069696  
H    2.3099767   -0.8634783  -11.7641831  
H    4.8620217   -2.4266020  -13.6407289  
H    6.4125873   -4.1607102  -11.7256584  
H    5.5374747   -4.0124917   -9.5695967  
C    1.7926687   -2.1130094   -5.2695612  
C    1.5709109   -1.6116993   -6.5312979  
C    0.4476590   -0.7372602   -6.4404054  
C    0.0227367   -0.7448287   -5.0871465  
N    0.8596942   -1.5918117   -4.4039632  
C   -1.0641734    0.0073898   -4.6315339  
C   -1.7341471    0.7815829   -5.5588624  
O   -2.8023667    1.5359045   -5.1678127  
C   -1.3255168    0.8020852   -6.9136384  
O   -2.0941820    1.6220711   -7.7137142  
C   -0.2535110    0.0600468   -7.3638698  
H    0.8086763   -1.7900694   -3.4210734  
H   -3.1188177    1.9917709   -5.9585779  
H   -1.7518073    1.5785010   -8.6117589  
H    0.0360304    0.0958170   -8.4075967  
H    2.5416453   -2.8022207   -4.9188733  
C    1.1319248    0.0015675   -0.8009270  
C    0.7969916    0.0034959   -2.1169404  
C   -0.6453336    0.0035703   -2.1842672  
C   -1.1266831    0.0015415   -0.7896027  
N    0.0000000    0.0000000    0.0000000  
C   -2.4346129    0.0013924   -0.4276297  
C   -3.4350110    0.0031352   -1.4820184  
O   -4.6384610    0.0030897   -1.2583919  
C   -2.9478958    0.0050460   -2.9661075  
O   -3.7809377    0.0062160   -3.8623775  
C   -1.5113821    0.0053068   -3.2312125  
H    1.4821240    0.0045436   -2.9459192  
H   -2.7664565    0.0000185    0.6013447  
H    2.1104318    0.0009428   -0.3488058  
C    2.5311839    2.1237619    3.0120429  
C    1.9795631    1.6616747    1.8395852  
C    0.9223175    0.7739173    2.1983588  
C    0.8753926    0.7337535    3.6154372  
N    1.8668922    1.5631002    4.0777464  
C   -0.0496243   -0.0427881    4.3197917  
C   -0.9437528   -0.7922060    3.5801400  
O   -1.8685244   -1.5680278    4.2172520  
C   -0.9124520   -0.7656372    2.1655264  
O   -1.8671164   -1.5663939    1.5732860  
C    0.0000000    0.0000000    1.4700000  
H    2.3005065    1.9304404    0.8477417  
H    2.0679347    1.7444845    5.0445261  
H   -0.0904770   -0.0778569    5.3997470  
H   -2.3849669   -2.0011402    3.5251786  
H   -1.7775064   -1.4909735    0.6183591  
H    3.3468514    2.8078103    3.1724291  
