64

C    0.9760138   -1.0711308   -7.6508007  
C    2.0265513   -1.9568624   -7.7165102  
C    2.2660966   -2.2168950   -9.0983938  
C    1.3230205   -1.4551809   -9.8348205  
N    0.5539393   -0.7727141   -8.9252220  
C    1.2669478   -1.4668956  -11.2317841  
C    2.1797260   -2.2618059  -11.8974658  
O    2.1694377   -2.3101415  -13.2614922  
C    3.1281457   -3.0293094  -11.1803486  
O    3.9681681   -3.7694441  -11.9865163  
C    3.1838649   -3.0184474   -9.8021968  
H    2.5544863   -2.3661536   -6.8722602  
H   -0.1925817   -0.1415854   -9.1540537  
H    0.5505093   -0.8887474  -11.7989390  
H    2.8768224   -2.9157602  -13.5185880  
H    4.5770588   -4.2578793  -11.4241228  
H    3.9213600   -3.6169983   -9.2803578  
C    0.6605682   -0.7024455   -5.1602328  
C   -0.1387079    0.0017019   -4.3179684  
C   -1.0653112    0.7443401   -5.1393883  
C   -0.7380203    0.4127273   -6.5392828  
N    0.3171091   -0.4684292   -6.4831128  
C   -1.3885286    0.9128908   -7.6201989  
C   -2.4839897    1.8398449   -7.3894262  
O   -3.1316444    2.3448515   -8.2970685  
C   -2.8477047    2.2053536   -5.9150045  
O   -3.7679152    2.9849439   -5.7083347  
C   -2.0739363    1.6016379   -4.8330332  
H   -1.1326585    0.6565868   -8.6388987  
H   -2.3322393    1.8597482   -3.8150046  
H    1.4717488   -1.3724715   -4.9258391  
C    3.3041273    0.0001178   -1.5420428  
C    2.5845373   -0.0004780   -0.3695851  
C    1.2040007   -0.0000007   -0.7283589  
C    1.1422374    0.0006038   -2.1454372  
N    2.4348641    0.0026111   -2.6077464  
C   -0.0655179    0.0008799   -2.8497918  
C   -1.2321766    0.0002325   -2.1101402  
O   -2.4392814    0.0001148   -2.7472522  
C   -1.1911209   -0.0000007   -0.6955266  
O   -2.4371528   -0.0002320   -0.1032862  
C    0.0000000    0.0000000    0.0000000  
H    3.0031533   -0.0000660    0.6222584  
H    2.7054631   -0.0071097   -3.5745261  
H   -3.1132988   -0.0000648   -2.0551787  
H   -2.3200282   -0.0004072    0.8516409  
H    4.3686625    0.0004073   -1.7024290  
C    2.5311839    2.1237619    3.0120429  
C    1.9795631    1.6616747    1.8395852  
C    0.9223175    0.7739173    2.1983588  
C    0.8753926    0.7337535    3.6154372  
N    1.8668922    1.5631002    4.0777464  
C   -0.0496243   -0.0427881    4.3197917  
C   -0.9437528   -0.7922060    3.5801400  
O   -1.8685244   -1.5680278    4.2172520  
C   -0.9124520   -0.7656372    2.1655264  
O   -1.8671164   -1.5663939    1.5732860  
C    0.0000000    0.0000000    1.4700000  
H    2.3005065    1.9304404    0.8477417  
H    2.0679347    1.7444845    5.0445261  
H   -0.0904770   -0.0778569    5.3997470  
H   -2.3849669   -2.0011402    3.5251786  
H   -1.7775064   -1.4909735    0.6183591  
H    3.3468514    2.8078103    3.1724291  
