60

C   10.2349391   -0.0012922   -6.8182472  
C    9.5207727   -0.0019563   -7.9940161  
C    8.1385936   -0.0020872   -7.6416219  
C    8.0702857   -0.0011922   -6.2248445  
N    9.3607631   -0.0026780   -5.7565683  
C    6.8592899   -0.0007517   -5.5260759  
C    5.6960601   -0.0009165   -6.2711092  
O    4.4860252   -0.0001535   -5.6395796  
C    5.7436494   -0.0021809   -7.6855173  
O    4.5003664   -0.0026077   -8.2835061  
C    6.9379699   -0.0028891   -8.3755342  
H    9.9439656   -0.0034085   -8.9839150  
H    9.6268935    0.0080737   -4.7885597  
H    3.8152119   -0.0007237   -6.3347584  
H    4.6219002   -0.0034411   -9.2378812  
H    6.9429759   -0.0040372   -9.4592556  
H   11.2987222   -0.0013856   -6.6529453  
C    6.7793191   -0.0000202   -4.0582530  
C    7.7853572    0.0004711   -3.1461329  
C    7.1695419    0.0010651   -1.8401443  
C    5.7118175    0.0008489   -2.0678064  
N    5.5416291    0.0005850   -3.4330631  
C    4.7795901    0.0008674   -1.0815733  
C    5.2428764    0.0013430    0.2960700  
O    4.4818126    0.0014588    1.2547579  
C    6.7823176    0.0018306    0.5605065  
O    7.1842432    0.0025397    1.7162382  
C    7.6891544    0.0014826   -0.5847003  
H    8.8386427    0.0006053   -3.3633956  
H    8.7535769    0.0016186   -0.3930558  
H    4.6549030   -0.0011624   -3.9029151  
C    3.3321168    0.0004716   -1.3379341  
C    2.6974177    0.0000118   -2.5332316  
C    1.2800432   -0.0002116   -2.2052842  
C    1.2395033    0.0000644   -0.7271298  
N    2.4394059    0.0005460   -0.2131041  
C    0.0000000    0.0000000    0.0000000  
C   -1.1468704    0.0000635   -0.7169542  
O   -2.3742206    0.0000074   -0.1695488  
C   -1.1388774    0.0001608   -2.2096352  
O   -2.2206238    0.0000906   -2.7970409  
C    0.1454514    0.0001818   -2.9324241  
H    3.1367978   -0.0000649   -3.5160956  
H   -2.9844350    0.0001027   -0.9290164  
H    0.1083567    0.0003684   -4.0135594  
C    0.8175213    0.6860729    2.3021913  
C    0.0000000    0.0000000    1.4700000  
C   -0.8887526   -0.7456559    2.3478473  
C   -0.4549825   -0.3816753    3.7138435  
N    0.5448156    0.4573574    3.6934124  
C   -1.0945674   -0.9182058    4.8835240  
C   -2.1210866   -1.7789155    4.6970523  
O   -2.8083856   -2.3554314    5.6976972  
C   -2.5824069   -2.1655116    3.3310774  
O   -3.5227682   -2.9541547    3.2362962  
C   -1.9100805   -1.6015804    2.1470656  
H   -0.7567140   -0.6349833    5.8697035  
H   -3.4728268   -2.9124471    5.2533954  
H   -2.2742832   -1.9066565    1.1752040  
H    1.6189533    1.3585343    2.0405121  
