64

C   -7.6176861   -0.0964928   -2.1522681  
C   -8.4066493    0.5513509   -1.2301492  
C   -9.7526645    0.1500120   -1.4786840  
C   -9.7228131   -0.7514019   -2.5734387  
N   -8.4114296   -0.8773475   -2.9594772  
C  -10.8752315   -1.3489743   -3.0926975  
C  -12.0796916   -1.0310128   -2.4957425  
O  -13.2357456   -1.5863810   -2.9627744  
C  -12.1299589   -0.1335000   -1.4026920  
O  -13.4036947    0.0816964   -0.9183012  
C  -10.9935015    0.4566017   -0.8900823  
H   -8.0553739    1.2305902   -0.4723677  
H   -8.0798013   -1.4603555   -3.7065414  
H  -10.8592091   -2.0366915   -3.9269581  
H  -13.9486562   -1.2355041   -2.4133125  
H  -13.3489617    0.6989008   -0.1823211  
H  -11.0632232    1.1403270   -0.0521463  
C   -4.3568016    2.1196430   -0.0439435  
C   -5.5783087    1.6201327   -0.4323715  
C   -5.3394752    0.7460397   -1.5339703  
C   -3.9416100    0.7519547   -1.7745206  
N   -3.3751251    1.5976635   -0.8533862  
C   -3.3460097   -0.0004262   -2.7913647  
C   -4.1766436   -0.7730845   -3.5795421  
O   -3.6475259   -1.5274892   -4.5864790  
C   -5.5738550   -0.7919242   -3.3553483  
O   -6.2652642   -1.6105065   -4.2243824  
C   -6.1621470   -0.0497244   -2.3525632  
H   -6.5251586    1.8575137    0.0216316  
H   -2.3939629    1.7946126   -0.7726814  
H   -4.3895798   -1.9821538   -5.0058844  
H   -7.2009062   -1.5658646   -4.0048713  
H   -4.1083019    2.8080661    0.7455374  
C    0.0000000    0.0000000    0.0000000  
C    1.0662919   -0.0000103   -0.8334272  
C    0.4961868    0.0000066   -2.1718889  
C   -0.9663860   -0.0000849   -1.9540248  
N   -1.2632775   -0.0000084   -0.6828659  
C   -1.8985364   -0.0000515   -3.0477258  
C   -1.3925778    0.0004567   -4.3020543  
O   -2.1456385    0.0005412   -5.4151314  
C    0.0786229    0.0009326   -4.5544999  
O    0.4683756    0.0012594   -5.7221104  
C    1.0143162    0.0008443   -3.4159034  
H    2.1107195    0.0000631   -0.5721869  
H   -1.5042277    0.0009692   -6.1484420  
H    2.0724151    0.0013151   -3.6409746  
C    3.3003543   -0.0005276    2.9438989  
C    2.5232812   -0.0003497    4.0790748  
C    1.1623199    0.0001319    3.6520102  
C    1.1711883   -0.0000583    2.2336141  
N    2.4852299    0.0014920    1.8362361  
C    0.0000000    0.0000000    1.4700000  
C   -1.2020384   -0.0000520    2.1506477  
O   -2.3759250   -0.0003494    1.4542253  
C   -1.2314658    0.0005113    3.5655508  
O   -2.5054393    0.0008037    4.0950179  
C   -0.0764518    0.0007272    4.3195194  
H    2.8919952    0.0005619    5.0905303  
H    2.8036267   -0.0088181    0.8841339  
H   -3.0835639   -0.0000348    2.1118817  
H   -2.4360050    0.0011527    5.0545920  
H   -0.1304098    0.0013421    5.4019087  
H    4.3715549   -0.0004895    2.8367138  
