64

C   -0.8349615   -0.6164621   -9.5215638  
C   -0.5750277   -0.5448131  -10.8705521  
C   -0.7882980    0.8094651  -11.2643111  
C   -1.1800087    1.5237582  -10.1031590  
N   -1.2000942    0.6277267   -9.0632832  
C   -1.4728109    2.8908003  -10.1190413  
C   -1.3679850    3.5488167  -11.3290842  
O   -1.6420403    4.8840001  -11.4011408  
C   -0.9790281    2.8534006  -12.4986681  
O   -0.9213700    3.6483673  -13.6247432  
C   -0.6902826    1.5047233  -12.4837920  
H   -0.2703666   -1.3676820  -11.4942996  
H   -1.7720354    3.4409502   -9.2375649  
H   -1.5095527    5.1405647  -12.3230343  
H   -0.6513359    3.1020618  -14.3692144  
H   -0.3950965    0.9989713  -13.3956900  
H   -0.7901783   -1.4569308   -8.8503227  
C    0.5332460   -0.7193580   -5.2240418  
C   -0.2963293   -0.0005341   -4.3948471  
C   -1.1923437    0.7280151   -5.2320894  
C   -0.8589935    0.4109477   -6.5738313  
N    0.1940939   -0.4688040   -6.5330672  
C   -1.5389810    0.9506274   -7.6698017  
C   -2.5745419    1.8261025   -7.4064881  
O   -3.2722204    2.3818987   -8.4396146  
C   -2.9218747    2.1551058   -6.0745971  
O   -3.9749424    3.0410837   -5.9774569  
C   -2.2513096    1.6232861   -4.9929146  
H    0.6396925   -0.8781463   -7.3342302  
H   -3.9408710    2.9539986   -8.0410249  
H   -4.1451819    3.2101945   -5.0457790  
H   -2.5398834    1.8941046   -3.9840238  
H    1.3409607   -1.3898536   -4.9853125  
C    3.1301146   -0.0010313   -1.7028256  
C    2.5367765   -0.0002766   -0.4864669  
C    1.1089901    0.0001027   -0.7656184  
C    1.0177865   -0.0004150   -2.2415133  
N    2.1993571   -0.0011612   -2.7963824  
C   -0.2459219   -0.0002879   -2.9257116  
C   -1.3675326   -0.0000606   -2.1698520  
O   -2.6129318    0.0000865   -2.6748483  
C   -1.3083588    0.0000910   -0.6783229  
O   -2.3693264    0.0004206   -0.0541685  
C    0.0000000    0.0000000    0.0000000  
H    3.0096016   -0.0001007    0.4807518  
H   -3.1967444    0.0002093   -1.8949026  
H    4.1849275   -0.0015114   -1.9271979  
C    0.8576279    0.7185626    2.2703808  
C    0.0000000    0.0000000    1.4700000  
C   -0.8668858   -0.7285659    2.3373528  
C   -0.4876752   -0.4117774    3.6669281  
N    0.5635254    0.4678311    3.5902241  
C   -1.1297612   -0.9515493    4.7854808  
C   -2.1738724   -1.8268314    4.5576857  
O   -2.8357962   -2.3827064    5.6140350  
C   -2.5667212   -2.1555554    3.2384331  
O   -3.6226318   -3.0413663    3.1773122  
C   -1.9335634   -1.6236449    2.1344818  
H    1.0363952    0.8769718    4.3757045  
H   -0.8454472   -0.7142436    5.8013813  
H   -3.5178062   -2.9546422    5.2385129  
H   -3.8247440   -3.2102924    2.2519915  
H   -2.2566033   -1.8942483    1.1360343  
H    1.6567807    1.3889844    2.0042067  
