62

C    5.3743489   -2.6035718   -8.7971007  
C    5.9970428   -2.0399697   -9.8866291  
C    5.6697999   -0.6516318   -9.8811925  
C    4.8378726   -0.4245178   -8.7550298  
N    4.6769132   -1.6308378   -8.1198119  
C    4.3240430    0.8361079   -8.4362957  
C    4.6563361    1.8866572   -9.2694247  
O    4.1820837    3.1387981   -9.0043925  
C    5.4847616    1.6799554  -10.3980549  
O    5.7240093    2.8251946  -11.1291706  
C    5.9918022    0.4365384  -10.7132525  
H    6.6106531   -2.5651246  -10.5984491  
H    4.1441915   -1.7789337   -7.2818047  
H    4.5282569    3.7144975   -9.6986542  
H    6.2908689    2.5984823  -11.8727253  
H    6.6236317    0.3088202  -11.5844341  
H    5.3713576   -3.6227406   -8.4503386  
C    4.4128858   -0.7149386   -4.2439194  
C    4.6970351   -0.4625188   -5.5660427  
C    3.7102940    0.4538451   -6.0363822  
C    2.8434265    0.7271730   -4.9474562  
N    3.2973506   -0.0000934   -3.8752374  
C    1.7510556    1.5938357   -5.0494863  
C    1.5299296    2.1957718   -6.2729871  
O    0.4776244    3.0511604   -6.4278356  
C    2.3834960    1.9354257   -7.3713775  
O    2.0309911    2.6108145   -8.5215661  
C    3.4611750    1.0803453   -7.2715183  
H    5.5142567   -0.8875292   -6.1232754  
H    1.0865292    1.8062301   -4.2233536  
H    0.5051644    3.3547821   -7.3445254  
H    2.6574457    2.3795720   -9.2141590  
H    4.9168469   -1.3494398   -3.5351244  
C    3.3321174    0.0004714   -1.3379332  
C    2.6974186    0.0000115   -2.5332308  
C    1.2800441   -0.0002119   -2.2052838  
C    1.2395035    0.0000643   -0.7271293  
N    2.4394063    0.0005458   -0.2131034  
C    0.0000000    0.0000000    0.0000000  
C   -1.1468701    0.0000634   -0.7169542  
O   -2.3742201    0.0000072   -0.1695492  
C   -1.1388767    0.0001606   -2.2096354  
O   -2.2206229    0.0000903   -2.7970413  
C    0.1454526    0.0001815   -2.9324239  
H   -2.9844344    0.0001023   -0.9290168  
H    0.1083580    0.0003680   -4.0135594  
H    4.3940040    0.0007617   -1.1498630  
C    0.8175213    0.6860729    2.3021913  
C    0.0000000    0.0000000    1.4700000  
C   -0.8887526   -0.7456559    2.3478473  
C   -0.4549825   -0.3816753    3.7138435  
N    0.5448156    0.4573574    3.6934124  
C   -1.0945674   -0.9182058    4.8835240  
C   -2.1210866   -1.7789155    4.6970523  
O   -2.8083856   -2.3554314    5.6976972  
C   -2.5824069   -2.1655116    3.3310774  
O   -3.5227682   -2.9541547    3.2362962  
C   -1.9100805   -1.6015804    2.1470656  
H   -0.7567140   -0.6349833    5.8697035  
H   -3.4728268   -2.9124471    5.2533954  
H   -2.2742832   -1.9066565    1.1752040  
H    1.6189533    1.3585343    2.0405121  
