64

C    0.1067682   -0.7134232   -5.1553162  
C   -0.9736305    0.0040473   -4.6965763  
C   -1.4915509    0.7330083   -5.8078704  
C   -0.6796794    0.4175751   -6.9273761  
N    0.2823069   -0.4616403   -6.4958911  
C   -0.9002265    0.9580657   -8.1978162  
C   -1.9598376    1.8326857   -8.3407930  
O   -2.2203380    2.3892148   -9.5595750  
C   -2.7809953    2.1600572   -7.2356487  
O   -3.7946146    3.0453494   -7.5392530  
C   -2.5638414    1.6274373   -5.9819792  
H    0.9958917   -0.8698707   -7.0721947  
H   -2.9901244    2.9605152   -9.4399521  
H   -4.3015388    3.2133595   -6.7390003  
H   -3.2094974    1.8970058   -5.1543687  
H    0.7669086   -1.3837318   -4.6320004  
C    1.1188640    0.0008226   -0.8003814  
C    0.0000000    0.0000000    0.0000000  
C   -1.1323862    0.0008901   -0.8673531  
C   -0.6382668    0.0019684   -2.1969280  
N    0.7324012    0.0038484   -2.1202243  
C   -1.4770920    0.0027325   -3.3154808  
C   -2.8395478    0.0020950   -3.0876858  
O   -3.7039209    0.0024430   -4.1440343  
C   -3.3517874    0.0013935   -1.7684326  
O   -4.7300498    0.0012368   -1.7073121  
C   -2.5248543    0.0009124   -0.6644821  
H    1.3576310   -0.0056162   -2.9057047  
H   -4.5940039    0.0021832   -3.7685127  
H   -4.9934606    0.0007262   -0.7819905  
H   -2.9462579    0.0005604    0.3339662  
H    2.1619892    0.0009358   -0.5342072  
C    0.4380367   -0.6067539   -9.6698477  
C   -0.0638395    0.6368582   -9.3632268  
C    0.3840286    1.5293149  -10.3818212  
C    1.1616335    0.7669579  -11.2907046  
N    1.1756520   -0.5253489  -10.8277104  
C    1.7643427    1.3240522  -12.4225955  
C    1.5784296    2.6752971  -12.6411157  
O    2.1443593    3.2703071  -13.7313918  
C    0.8062661    3.4527835  -11.7455187  
O    0.7149337    4.7828052  -12.1005475  
C    0.2116106    2.9039164  -10.6285335  
H    1.6403914   -1.2961679  -11.2724989  
H    2.3583167    0.7484697  -13.1190883  
H    1.8940443    4.2026341  -13.6943352  
H    0.1772496    5.2365382  -11.4443267  
H   -0.3740189    3.5245953   -9.9604961  
H    0.3293912   -1.5451002   -9.1534549  
C    0.8175213    0.6860729    2.3021913  
C    0.0000000    0.0000000    1.4700000  
C   -0.8887526   -0.7456559    2.3478473  
C   -0.4549825   -0.3816753    3.7138435  
N    0.5448156    0.4573574    3.6934124  
C   -1.0945674   -0.9182058    4.8835240  
C   -2.1210866   -1.7789155    4.6970523  
O   -2.8083856   -2.3554314    5.6976972  
C   -2.5824069   -2.1655116    3.3310774  
O   -3.5227682   -2.9541547    3.2362962  
C   -1.9100805   -1.6015804    2.1470656  
H   -0.7567140   -0.6349833    5.8697035  
H   -3.4728268   -2.9124471    5.2533954  
H   -2.2742832   -1.9066565    1.1752040  
H    1.6189533    1.3585343    2.0405121  
