64

C    6.2683962    0.7211474   -5.8839350  
C    7.2821289    0.0019837   -5.2943446  
C    7.9353500   -0.7252744   -6.3330925  
C    7.2709225   -0.4071056   -7.5452114  
N    6.2627591    0.4720311   -7.2364361  
C    7.6492515   -0.9453653   -8.7788779  
C    8.7179725   -1.8205259   -8.7891475  
O    9.1294307   -2.3749526   -9.9665724  
C    9.3934138   -2.1506138   -7.5901315  
O   10.4367099   -3.0361085   -7.7655597  
C    9.0205560   -1.6201954   -6.3726913  
H    5.6275536    0.8818963   -7.8971215  
H    7.1468751   -0.7070026   -9.7062412  
H    9.8777543   -2.9470680   -9.7521902  
H   10.8388493   -3.2060176   -6.9082274  
H    9.5568319   -1.8918216   -5.4709676  
H    5.5480198    1.3909730   -5.4464990  
C    4.7161325   -0.0005435   -1.6923264  
C    5.7254239   -0.0020906   -0.7575560  
C    6.9579237   -0.0022114   -1.4755702  
C    6.6349842   -0.0004002   -2.8567410  
N    5.2655550   -0.0013739   -2.9530733  
C    7.6078546    0.0003045   -3.8608874  
C    8.9308324   -0.0005333   -3.4635108  
O    9.9212225    0.0004503   -4.4027334  
C    9.2730454   -0.0027156   -2.0903021  
O   10.6326706   -0.0037315   -1.8562879  
C    8.3138101   -0.0036848   -1.0991455  
H    5.5899962   -0.0041233    0.3104555  
H    4.7441074    0.0100535   -3.8109450  
H   10.7569960   -0.0006818   -3.9182267  
H   10.7775869   -0.0051700   -0.9051826  
H    8.6062648   -0.0055411   -0.0556201  
C    3.2573665   -0.0002920   -1.5109385  
C    2.5379463   -0.0001709   -0.3591964  
C    1.1435038    0.0000331   -0.7338500  
C    1.1092599   -0.0000083   -2.2088477  
N    2.4227553    0.0001909   -2.6182613  
C   -0.0265539   -0.0002524   -2.9515660  
C   -1.3003040   -0.0002640   -2.2514977  
O   -2.3786790   -0.0004133   -2.8306421  
C   -1.2877727    0.0000311   -0.6895603  
O   -2.3539959    0.0003306   -0.0892030  
C    0.0000000    0.0000000    0.0000000  
H    2.9384091   -0.0000367    0.6389234  
H   -0.0296303   -0.0004086   -4.0327229  
H    2.7280482   -0.0013407   -3.5742119  
C    2.5285572    2.1210227    2.9438989  
C    1.9331703    1.6216660    4.0790748  
C    0.8903039    0.7472258    3.6520102  
C    0.8972198    0.7527806    2.2336141  
N    1.9028376    1.5986179    1.8362361  
C    0.0000000    0.0000000    1.4700000  
C   -0.9207814   -0.7726952    2.1506477  
O   -1.8198395   -1.5274828    1.4542253  
C   -0.9436862   -0.7911793    3.5655508  
O   -1.9197945   -1.6098497    4.0950179  
C   -0.0590329   -0.0485852    4.3195194  
H    2.2150357    1.8593692    5.0905303  
H    2.1533708    1.7953814    0.8841339  
H   -2.3621246   -1.9821033    2.1118817  
H   -1.8668290   -1.5649508    5.0545920  
H   -0.1007624   -0.0827977    5.4019087  
H    3.3491200    2.8096064    2.8367138  
