62

C    1.7254292   -1.8302073   -8.4895518  
C    2.6627605   -2.6371841   -9.0917693  
C    2.4611042   -2.5304327  -10.4997952  
C    1.3779531   -1.6364436  -10.6985250  
N    0.9534239   -1.2313960   -9.4574258  
C    0.9023568   -1.2949849  -11.9681728  
C    1.5318557   -1.8661769  -13.0570483  
O    1.1080119   -1.5670582  -14.3195444  
C    2.6139839   -2.7606958  -12.8791420  
O    3.1344715   -3.2455394  -14.0612430  
C    3.0835240   -3.0982154  -11.6268889  
H    3.4003297   -3.2307257   -8.5792324  
H    0.2042714   -0.5863647   -9.2822515  
H    0.0771563   -0.6143782  -12.1263528  
H    1.6744772   -2.0653229  -14.9229635  
H    3.8602000   -3.8415487  -13.8522100  
H    3.9141039   -3.7863925  -11.5218771  
C    2.1801845   -2.1249311   -6.0224128  
C    1.6691586   -1.6625655   -4.8318093  
C    0.6003590   -0.7747108   -5.1542714  
C    0.5048748   -0.7347776   -6.5689139  
N    1.4798199   -1.5643492   -7.0648071  
C   -0.4436399    0.0417838   -7.2412688  
C   -1.3117721    0.7914586   -6.4715206  
O   -2.2577362    1.5673114   -7.0766812  
C   -1.2319855    0.7651224   -5.0588080  
O   -2.1656657    1.5661204   -4.4343180  
C   -0.2963293   -0.0005341   -4.3948471  
H    2.0238859   -1.9312126   -3.8515082  
H   -0.5214962    0.0766778   -8.3191935  
H   -2.7500812    2.0006166   -6.3673799  
H   -2.0433735    1.4908464   -3.4830124  
H    2.9897746   -2.8091278   -6.2105564  
C    3.1301146   -0.0010313   -1.7028256  
C    2.5367765   -0.0002766   -0.4864669  
C    1.1089901    0.0001027   -0.7656184  
C    1.0177865   -0.0004150   -2.2415133  
N    2.1993571   -0.0011612   -2.7963824  
C   -0.2459219   -0.0002879   -2.9257116  
C   -1.3675326   -0.0000606   -2.1698520  
O   -2.6129318    0.0000865   -2.6748483  
C   -1.3083588    0.0000910   -0.6783229  
O   -2.3693264    0.0004206   -0.0541685  
C    0.0000000    0.0000000    0.0000000  
H    3.0096016   -0.0001007    0.4807518  
H   -3.1967444    0.0002093   -1.8949026  
H    4.1849275   -0.0015114   -1.9271979  
C    2.4951002    2.0940188    2.9809380  
C    1.9440701    1.6314916    1.8291961  
C    0.8759964    0.7350050    2.2038498  
C    0.8497377    0.7130254    3.6788474  
N    1.8560616    1.5571714    4.0882609  
C   -0.0205033   -0.0168748    4.4215661  
C   -0.9962600   -0.8356168    3.7214979  
O   -1.8224391   -1.5286685    4.3006425  
C   -0.9864710   -0.8277881    2.1595606  
O   -1.8030528   -1.5133726    1.5592035  
C    0.0000000    0.0000000    1.4700000  
H    2.2509283    1.8888011    0.8310761  
H   -0.0229599   -0.0187323    5.5027230  
H    3.3143982    2.7817323    3.1139444  
H    2.0889452    1.7545833    5.0442112  
