64

C    3.1044174   -3.5886738   -4.1072689  
C    2.6887807   -2.9788121   -5.2682094  
C    3.5525922   -3.4320003   -6.3089063  
C    4.4834218   -4.3244430   -5.7181204  
N    4.1842526   -4.3954094   -4.3801822  
C    5.4875973   -4.9642281   -6.4509885  
C    5.5531126   -4.6984876   -7.8049705  
O    6.5139413   -5.2965840   -8.5679255  
C    4.6336082   -3.8107477   -8.4126263  
O    4.8297323   -3.6497313   -9.7687059  
C    3.6428765   -3.1790214   -7.6902005  
H    4.6691449   -4.9598862   -3.7062193  
H    6.2001849   -5.6453764   -6.0066258  
H    6.3833848   -4.9780112   -9.4705489  
H    4.1678807   -3.0355790  -10.1009302  
H    2.9530265   -2.5040310   -8.1831227  
H    2.7169331   -3.5109202   -3.1058853  
C    1.5640650   -2.0395931   -5.3856081  
C    0.7230581   -1.5862621   -4.4205824  
C   -0.2043668   -0.6833976   -5.0605465  
C    0.1679199   -0.6476535   -6.4877525  
N    1.2472254   -1.4907308   -6.6189379  
C   -0.4698111    0.0915042   -7.4304336  
C   -1.5980276    0.9063962   -7.0113711  
O   -2.2374227    1.6070674   -7.7850208  
C   -2.0096059    0.8840406   -5.5047495  
O   -2.9576827    1.5662686   -5.1400902  
C   -1.2456329    0.0471727   -4.5828766  
H    0.7494882   -1.8536710   -3.3792337  
H   -0.1807621    0.1034055   -8.4721727  
H    1.7291266   -1.6799002   -7.4786088  
C    1.1243410    0.0099923   -0.7919003  
C    0.7474076    0.0234544   -2.1148543  
C   -0.6787381    0.0234490   -2.1414700  
C   -1.1201745    0.0098592   -0.7935546  
N    0.0000000    0.0000000    0.0000000  
C   -2.4730816    0.0063709   -0.4408240  
C   -3.3971958    0.0170982   -1.4675058  
O   -4.7313517    0.0146259   -1.1793471  
C   -2.9763648    0.0303504   -2.8186324  
O   -4.0166480    0.0395118   -3.7247624  
C   -1.6418562    0.0335260   -3.1673481  
H    1.4178717    0.0310972   -2.9571209  
H   -2.8160166   -0.0041111    0.5845966  
H   -5.1938818    0.0230867   -2.0274384  
H   -3.6464675    0.0482293   -4.6127343  
H    2.1062467    0.0052819   -0.3505407  
C    2.5285572    2.1210227    2.9438989  
C    1.9331703    1.6216660    4.0790748  
C    0.8903039    0.7472258    3.6520102  
C    0.8972198    0.7527806    2.2336141  
N    1.9028376    1.5986179    1.8362361  
C    0.0000000    0.0000000    1.4700000  
C   -0.9207814   -0.7726952    2.1506477  
O   -1.8198395   -1.5274828    1.4542253  
C   -0.9436862   -0.7911793    3.5655508  
O   -1.9197945   -1.6098497    4.0950179  
C   -0.0590329   -0.0485852    4.3195194  
H    2.2150357    1.8593692    5.0905303  
H    2.1533708    1.7953814    0.8841339  
H   -2.3621246   -1.9821033    2.1118817  
H   -1.8668290   -1.5649508    5.0545920  
H   -0.1007624   -0.0827977    5.4019087  
H    3.3491200    2.8096064    2.8367138  
