62

C   -3.3041035    0.0127939   -1.5420414  
C   -2.5845161    0.0105776   -0.3695841  
C   -1.2039919    0.0047056   -0.7283581  
C   -1.1422324    0.0038597   -2.1454365  
N   -2.4348569    0.0069038   -2.6077451  
C    0.0655126   -0.0011360   -2.8497915  
C    1.2321660   -0.0050477   -2.1101403  
O    2.4392609   -0.0096470   -2.7472527  
C    1.1911105   -0.0046539   -0.6955270  
O    2.4371339   -0.0092919   -0.1032872  
C    0.0000000    0.0000000    0.0000000  
H   -3.0031302    0.0118016    0.6222597  
H   -2.7054161    0.0176819   -3.5745247  
H    0.1193466   -0.0019510   -3.9297471  
H    3.1132746   -0.0121014   -2.0551798  
H    2.3200124   -0.0086591    0.8516402  
C   -5.7131368    0.0220918   -0.7960682  
C   -4.7576885    0.0180790   -1.7610437  
C   -5.4429414    0.0197132   -3.0319735  
C   -6.8862794    0.0250745   -2.7261369  
N   -6.9826945    0.0258870   -1.3536963  
C   -7.8702614    0.0283904   -3.6607351  
C   -7.4818437    0.0263306   -5.0613289  
O   -8.2934285    0.0289429   -5.9776394  
C   -5.9588894    0.0204104   -5.4082866  
O   -5.6197921    0.0183253   -6.5839859  
C   -4.9916985    0.0175077   -4.3135786  
H   -3.9391481    0.0136157   -4.5622683  
H   -5.5966160    0.0223789    0.2755248  
H   -7.8428185    0.0307512   -0.8367725  
C   -9.8818670    0.7628902   -2.2997364  
C  -11.2222802    0.5511638   -2.2493438  
C  -11.5423066   -0.3752548   -3.3096107  
C  -10.2693311   -0.6881621   -3.9866731  
N   -9.3018172    0.0338941   -3.3267938  
C  -10.1476059   -1.5296751   -5.0443801  
C  -11.3506722   -2.1697628   -5.5498047  
O  -11.3452272   -2.9437149   -6.4981027  
C  -12.7097328   -1.8527263   -4.8482016  
O  -13.7293704   -2.3854503   -5.2651008  
C  -12.7144217   -0.9290536   -3.7165401  
H  -11.9085503    0.9936240   -1.5494329  
H   -9.2042861   -1.7456657   -5.5264643  
H  -13.6594797   -0.7149876   -3.2361597  
H   -9.2690204    1.3903124   -1.6731184  
C    2.5311839    2.1237619    3.0120429  
C    1.9795631    1.6616747    1.8395852  
C    0.9223175    0.7739173    2.1983588  
C    0.8753926    0.7337535    3.6154372  
N    1.8668922    1.5631002    4.0777464  
C   -0.0496243   -0.0427881    4.3197917  
C   -0.9437528   -0.7922060    3.5801400  
O   -1.8685244   -1.5680278    4.2172520  
C   -0.9124520   -0.7656372    2.1655264  
O   -1.8671164   -1.5663939    1.5732860  
C    0.0000000    0.0000000    1.4700000  
H    2.3005065    1.9304404    0.8477417  
H    2.0679347    1.7444845    5.0445261  
H   -0.0904770   -0.0778569    5.3997470  
H   -2.3849669   -2.0011402    3.5251786  
H   -1.7775064   -1.4909735    0.6183591  
H    3.3468514    2.8078103    3.1724291  
