64

C    0.6827532   -0.7107506   -5.1516732  
C    0.3353062   -0.4609401   -6.4590914  
C   -0.7638013    0.4477949   -6.4314647  
C   -1.0451347    0.7193736   -5.0680048  
N   -0.1496419   -0.0015610   -4.3176963  
C   -2.0711959    1.5789712   -4.6641738  
C   -2.8268260    2.1755111   -5.6548010  
O   -3.8410211    3.0239065   -5.3162069  
C   -2.5617280    1.9168005   -7.0206736  
O   -3.4017735    2.5862257   -7.8864319  
C   -1.5498284    1.0686877   -7.4197853  
H    0.8143256   -0.8827542   -7.3260446  
H   -2.2907868    1.7899961   -3.6266529  
H   -4.2338967    3.3246751   -6.1459378  
H   -3.1554898    2.3565578   -8.7876542  
H    1.4575545   -1.3398104   -4.7480328  
C    3.3003539    0.0005280   -1.4738993  
C    2.5232814    0.0003499   -2.6090749  
C    1.1623199   -0.0001318   -2.1820107  
C    1.1711883    0.0000584   -0.7636139  
N    2.4852299   -0.0014918   -0.3662363  
C    0.0000000    0.0000000    0.0000000  
C   -1.2020386    0.0000521   -0.6806478  
O   -2.3759249    0.0003494    0.0157743  
C   -1.2314659   -0.0005113   -2.0955513  
O   -2.5054393   -0.0008036   -2.6250183  
C   -0.0764519   -0.0007271   -2.8495194  
H    2.8919952   -0.0005617   -3.6205307  
H    2.8036268    0.0088183    0.5858658  
H   -3.0835640    0.0000347   -0.6418814  
H   -2.4360050   -0.0011527   -3.5845922  
H    4.3715552    0.0004897   -1.3667139  
C   -1.3066280    0.8259248   -8.8490575  
C   -0.3685575    0.0309408   -9.4658976  
C   -0.5735292    0.1593273  -10.8716371  
C   -1.6593718    1.0535471  -11.0539645  
N   -2.0822414    1.4379130   -9.8057407  
C   -2.1385781    1.4137283  -12.3170631  
C   -1.5099894    0.8613697  -13.4161333  
O   -1.9373204    1.1792364  -14.6728595  
C   -0.4252130   -0.0330550  -13.2546346  
O    0.0939448   -0.4978894  -14.4453272  
C    0.0478895   -0.3890395  -12.0088516  
H    0.3716217   -0.5686982   -8.9643390  
H   -2.8326471    2.0781790   -9.6188394  
H   -2.9658427    2.0946177  -12.4627522  
H   -1.3708996    0.6919908  -15.2852520  
H    0.8216332   -1.0952483  -14.2472471  
H    0.8804377   -1.0766475  -11.9164540  
C    0.0000000    0.0000000    1.4700000  
C    1.0662921    0.0000102    2.3034270  
C    0.4961870   -0.0000064    3.6418889  
C   -0.9663858    0.0000850    3.4240247  
N   -1.2632773    0.0000084    2.1528658  
C   -1.8985362    0.0000517    4.5177257  
C   -1.3925775   -0.0004564    5.7720543  
O   -2.1456383   -0.0005410    6.8851312  
C    0.0786232   -0.0009323    6.0245000  
O    0.4683759   -0.0012588    7.1921102  
C    1.0143166   -0.0008442    4.8859032  
H    2.1107198   -0.0000632    2.0421868  
H   -2.9622183    0.0003270    4.3293377  
H   -1.5042274   -0.0009692    7.6184419  
H    2.0724152   -0.0013148    5.1109744  
