60

C    6.0555920   -2.4076551   -2.6713504  
C    7.3619157   -2.6163756   -2.2939643  
C    8.0548170   -1.3857502   -2.4940865  
C    7.1116987   -0.4544506   -2.9991960  
N    5.9083931   -1.1080617   -3.0964844  
C    7.4463138    0.8664601   -3.3122728  
C    8.7568050    1.2543799   -3.1115057  
O    9.1376459    2.5328621   -3.4003934  
C    9.7124263    0.3396133   -2.6087063  
O   10.9746804    0.8774881   -2.4646576  
C    9.3830889   -0.9637263   -2.2998878  
H    7.7659941   -3.5420793   -1.9214223  
H    6.7322145    1.5810959   -3.6977077  
H   10.0789078    2.5913078   -3.1909295  
H   11.5587371    0.1948103   -2.1205169  
H   10.1366972   -1.6416501   -1.9165183  
H    5.2175342   -3.0833896   -2.6722512  
C    3.4164202   -0.7248682   -3.0395956  
C    4.6504341   -0.5074352   -3.5630530  
C    4.4860923    0.4201599   -4.6573081  
C    3.0448509    0.7275385   -4.7289413  
N    2.4521483    0.0014840   -3.7217481  
C    2.4820245    1.5683503   -5.6333562  
C    3.3539019    2.2134650   -6.6009271  
O    2.9430837    2.9872291   -7.4558060  
C    4.8835155    1.9023268   -6.5436549  
O    5.6273691    2.4393134   -7.3533394  
C    5.3721315    0.9788706   -5.5227069  
H    1.4224202    1.7802478   -5.6686835  
H    6.4325777    0.7689052   -5.4896580  
H    3.1302861   -1.3547866   -2.2130247  
C    0.0000000    0.0000000    0.0000000  
C    1.0662923   -0.0000101   -0.8334270  
C    0.4961873    0.0000065   -2.1718887  
C   -0.9663854   -0.0000848   -1.9540250  
N   -1.2632773   -0.0000083   -0.6828660  
C   -1.8985359   -0.0000514   -3.0477261  
C   -1.3925770    0.0004566   -4.3020547  
O   -2.1456378    0.0005414   -5.4151314  
C    0.0786240    0.0009326   -4.5545000  
O    0.4683767    0.0012591   -5.7221100  
C    1.0143171    0.0008444   -3.4159031  
H    2.1107200    0.0000633   -0.5721865  
H   -2.9622181   -0.0003268   -2.8593381  
H   -1.5042265    0.0009697   -6.1484419  
C    0.0000000    0.0000000    1.4700000  
C    1.0541688    0.0001722    2.3260392  
C    0.5103138    0.0000454    3.6635956  
C   -0.9576371   -0.0002459    3.5155732  
N   -1.2018458    0.0001392    2.1615969  
C   -1.8348311   -0.0008317    4.5510609  
C   -1.2972847   -0.0009736    5.9014604  
O   -2.0050672   -0.0014265    6.9001319  
C    0.2542623   -0.0004184    6.0817573  
O    0.7184670   -0.0002256    7.2139121  
C    1.0974552   -0.0000873    4.8889129  
H    2.0940752    0.0005483    2.0517982  
H   -2.9081052   -0.0011668    4.4207061  
H    2.1707277    0.0000911    5.0223670  
H   -2.1128194   -0.0014912    1.7406791  
