62

C    0.0950458    0.0004351   -4.4015596  
C    1.1162051    0.0003983   -5.3233520  
C    0.5111117    0.0000861   -6.6150416  
C   -0.8933793    0.0002293   -6.4167188  
N   -1.1116045   -0.0015105   -5.0613625  
C   -1.8066450    0.0003039   -7.4753665  
C   -1.2927241    0.0005396   -8.7575773  
O   -2.1397618    0.0009726   -9.8278760  
C    0.1055576    0.0000260   -8.9758068  
O    0.4600412   -0.0000780  -10.3091046  
C    1.0071038   -0.0003211   -7.9319000  
H    2.1678592   -0.0005304   -5.0931005  
H   -2.0126226    0.0087260   -4.6185953  
H   -2.8782450    0.0002691   -7.3308775  
H   -1.5825620    0.0007744  -10.6170477  
H    1.4202883   -0.0004054  -10.3685169  
H    2.0725757   -0.0008938   -8.1300089  
C    3.3321177    0.0004714   -1.3379329  
C    2.6974191    0.0000116   -2.5332309  
C    1.2800443   -0.0002118   -2.2052838  
C    1.2395035    0.0000643   -0.7271296  
N    2.4394066    0.0005460   -0.2131032  
C    0.0000000    0.0000000    0.0000000  
C   -1.1468697    0.0000634   -0.7169547  
O   -2.3742196    0.0000072   -0.1695495  
C   -1.1388763    0.0001605   -2.2096359  
O   -2.2206227    0.0000904   -2.7970417  
C    0.1454530    0.0001814   -2.9324241  
H    3.1367996   -0.0000651   -3.5160943  
H   -2.9844343    0.0001024   -0.9290175  
C    5.7628311    0.0000250   -2.0437074  
C    4.7795907    0.0008674   -1.0815719  
C    5.4361694    0.0004498    0.1847238  
C    6.8315421   -0.0003742   -0.0699522  
N    6.9950521   -0.0025638   -1.4329919  
C    7.7866672   -0.0006600    0.9510892  
C    7.3247567    0.0002031    2.2529399  
O    8.2141756    0.0003217    3.2882892  
C    5.9363885    0.0006571    2.5272580  
O    5.6358414    0.0010874    3.8737407  
C    4.9935674    0.0006662    1.5204735  
H    7.8775307    0.0069808   -1.9116588  
H    8.8515846   -0.0014313    0.7635985  
H    7.6891821    0.0006678    4.0992432  
H    4.6787630    0.0014041    3.9717430  
H    3.9369296    0.0008380    1.7612947  
H    5.6826524   -0.0003797   -3.1172670  
C    2.3971438    2.0127888    3.1728260  
C    1.9431056    1.6308205    1.9564670  
C    0.8496017    0.7127664    2.2356185  
C    0.7794028    0.6545384    3.7115134  
N    1.6840587    1.4146091    4.2663826  
C   -0.1885723   -0.1578550    4.3957118  
C   -1.0476298   -0.8789867    3.6398520  
O   -2.0015663   -1.6796266    4.1448486  
C   -1.0022026   -0.8410666    2.1483229  
O   -1.8147390   -1.5232959    1.5241687  
C    0.0000000    0.0000000    1.4700000  
H    2.3054237    1.9346118    0.9892483  
H   -0.2170646   -0.1815267    5.4753125  
H   -2.4487139   -2.0549881    3.3649027  
H    3.2048689    2.6911772    3.3971983  
