64

C   -6.3887624    1.0688133   -1.2625282  
C   -6.2995143    1.9544129   -0.2136170  
C   -7.6309045    2.2102708    0.2297086  
C   -8.4976158    1.4462630   -0.5931100  
N   -7.7110201    0.7665050   -1.4896668  
C   -9.8873170    1.4537379   -0.4399313  
C  -10.4116088    2.2466885    0.5623288  
O  -11.7620159    2.2908871    0.7558739  
C   -9.5632119    3.0164274    1.3933168  
O  -10.2371150    3.7541715    2.3445953  
C   -8.1921669    3.0097482    1.2425981  
H   -5.3871264    2.3662982    0.1824781  
H   -8.0468698    0.1346345   -2.1938869  
H  -10.5533598    0.8738239   -1.0638616  
H  -11.9124115    2.8957716    1.4939537  
H   -9.5915703    4.2443512    2.8628604  
H   -7.5678466    3.6099284    1.8941238  
C   -3.9849990    0.7198455   -1.9557673  
C   -3.2941076    0.0012878   -2.9038237  
C   -4.2599030   -0.7267532   -3.6599953  
C   -5.5339487   -0.4096642   -3.1231642  
N   -5.3307597    0.4696102   -2.0886556  
C   -6.7219431   -0.9488998   -3.6258409  
C   -6.6219976   -1.8239441   -4.6900239  
O   -7.7506392   -2.3792961   -5.2198972  
C   -5.3598481   -2.1529613   -5.2391523  
O   -5.4267876   -3.0384796   -6.2949558  
C   -4.1874279   -1.6215802   -4.7435802  
H   -7.6960711   -0.7113630   -3.2210539  
H   -7.4602829   -2.9511471   -5.9423545  
H   -4.5326436   -3.2076331   -6.6072021  
H   -3.2353056   -1.8923978   -5.1847149  
H   -3.6241832    1.3899486   -1.1943656  
C    0.0000000    0.0000000    0.0000000  
C    1.0541688   -0.0001723   -0.8560392  
C    0.5103136   -0.0000455   -2.1935956  
C   -0.9576373    0.0002461   -2.0455730  
N   -1.2018460   -0.0001389   -0.6915968  
C   -1.8348314    0.0008319   -3.0810607  
C   -1.2972851    0.0009739   -4.4314603  
O   -2.0050676    0.0014268   -5.4301316  
C    0.2542619    0.0004184   -4.6117572  
O    0.7184666    0.0002257   -5.7439122  
C    1.0974551    0.0000873   -3.4189129  
H    2.0940752   -0.0005484   -0.5817983  
H    2.1707276   -0.0000912   -3.5523673  
H   -2.1128194    0.0014915   -0.2706789  
C    3.3003543   -0.0005276    2.9438989  
C    2.5232812   -0.0003497    4.0790748  
C    1.1623199    0.0001319    3.6520102  
C    1.1711883   -0.0000583    2.2336141  
N    2.4852299    0.0014920    1.8362361  
C    0.0000000    0.0000000    1.4700000  
C   -1.2020384   -0.0000520    2.1506477  
O   -2.3759250   -0.0003494    1.4542253  
C   -1.2314658    0.0005113    3.5655508  
O   -2.5054393    0.0008037    4.0950179  
C   -0.0764518    0.0007272    4.3195194  
H    2.8919952    0.0005619    5.0905303  
H    2.8036267   -0.0088181    0.8841339  
H   -3.0835639   -0.0000348    2.1118817  
H   -2.4360050    0.0011527    5.0545920  
H   -0.1304098    0.0013421    5.4019087  
H    4.3715549   -0.0004895    2.8367138  
