60

C    6.8148664   -1.8475902   -1.9160708  
C    7.4548724   -2.6672857   -1.0155382  
C    8.8511316   -2.5824147   -1.2945659  
C    9.0040850   -1.6880519   -2.3848165  
N    7.7481199   -1.2617400   -2.7389723  
C   10.2508401   -1.3653593   -2.9291145  
C   11.3634825   -1.9560506   -2.3622928  
O   12.6052767   -1.6757534   -2.8546282  
C   11.2312548   -2.8512738   -1.2742172  
O   12.4323368   -3.3567520   -0.8211840  
C   10.0015933   -3.1702862   -0.7369188  
H    6.9743813   -3.2550425   -0.2522143  
H    7.5422352   -0.6114466   -3.4756615  
H   10.3741244   -0.6845759   -3.7601005  
H   13.2309640   -2.1855384   -2.3236858  
H   12.2541494   -3.9517968   -0.0864903  
H    9.9315640   -3.8595086    0.0964756  
C    4.3630981   -2.0949035   -1.3110652  
C    3.1522514   -1.6320804   -1.7156885  
C    3.3924172   -0.7354492   -2.8216759  
C    4.8529064   -0.7137076   -3.0297340  
N    5.3832064   -1.5581152   -2.0817637  
C    5.4827050    0.0162381   -3.9848456  
C    4.6677391    0.8352839   -4.8666219  
O    5.1406430    1.5283993   -5.7578308  
C    3.1189447    0.8277106   -4.6641774  
O    2.4225435    1.5135518   -5.4003220  
C    2.5562217   -0.0001543   -3.6003001  
H    2.1995747   -1.8892845   -1.2880584  
H    6.5552966    0.0179178   -4.1206901  
H    4.5960544   -2.7827971   -0.5145582  
C    0.0000000    0.0000000    0.0000000  
C    1.0541688   -0.0001719   -0.8560391  
C    0.5103141   -0.0000449   -2.1935955  
C   -0.9576367    0.0002461   -2.0455733  
N   -1.2018459   -0.0001392   -0.6915970  
C   -1.8348306    0.0008319   -3.0810611  
C   -1.2972842    0.0009739   -4.4314605  
O   -2.0050664    0.0014267   -5.4301321  
C    0.2542628    0.0004190   -4.6117571  
O    0.7184677    0.0002263   -5.7439119  
C    1.0974556    0.0000880   -3.4189127  
H    2.0940752   -0.0005479   -0.5817978  
H   -2.9081050    0.0011669   -2.9507065  
H   -2.1128195    0.0014911   -0.2706793  
C    1.0965515   -0.0001358    2.2710304  
C    0.0000000    0.0000000    1.4700000  
C   -1.1546562   -0.0001469    2.3369512  
C   -0.6372014   -0.0003519    3.7186280  
N    0.7342871   -0.0007337    3.6095011  
C   -1.4147739   -0.0001353    4.8308716  
C   -2.8576048    0.0001048    4.6554461  
O   -3.6427778    0.0002493    5.5944904  
C   -3.4275839    0.0000726    3.2011665  
O   -4.6406829   -0.0000333    3.0410059  
C   -2.4891866    0.0001091    2.0816745  
H   -1.0150448   -0.0001615    5.8354244  
H   -2.8919121    0.0002919    1.0779135  
H    2.1388271   -0.0000662    1.9961646  
H    1.3735872    0.0006099    4.3830260  
