64

C   -3.3003090   -0.0171687   -1.4738997  
C   -2.5232464   -0.0130727   -2.6090755  
C   -1.1623051   -0.0057288   -2.1820104  
C   -1.1711731   -0.0059637   -0.7636142  
N   -2.4852058   -0.0110393   -0.3662366  
C    0.0000000    0.0000000    0.0000000  
C    1.2020235    0.0060090   -0.6806472  
O    2.3758965    0.0116306    0.0157757  
C    1.2314485    0.0067205   -2.0955503  
O    2.5054043    0.0134367   -2.6250165  
C    0.0764482    0.0011127   -2.8495194  
H   -2.8919602   -0.0140202   -3.6205310  
H   -2.8035463   -0.0229546    0.5858655  
H    3.0835257    0.0155133   -0.6418803  
H    2.4359703    0.0134356   -3.5845910  
H    0.1304025    0.0019997   -3.9319083  
C   -6.5322608   -0.0358339   -4.4466898  
C   -7.6042747   -0.0405540   -3.6131201  
C   -7.0888190   -0.0370711   -2.2643692  
C   -5.6180856   -0.0298542   -2.3813360  
N   -5.3453136   -0.0298416   -3.7298482  
C   -4.7629867   -0.0244920   -1.3275418  
C   -5.3289504   -0.0261503    0.0111956  
O   -4.6424445   -0.0217509    1.0246013  
C   -6.8839412   -0.0340120    0.1586628  
O   -7.3719662   -0.0357787    1.2807542  
C   -7.7017225   -0.0390465   -1.0517345  
H   -8.7775633   -0.0442741   -0.9409923  
H   -6.5094774   -0.0364457   -5.5243587  
H   -4.4256657   -0.0241002   -4.1314209  
C   -9.5470048   -0.7701171   -5.0622666  
C   -9.0174196   -0.0480682   -4.0179237  
C  -10.0936650    0.6754525   -3.4239428  
C  -11.2657733    0.3521352   -4.1543910  
N  -10.8980694   -0.5263397   -5.1431745  
C  -12.5206352    0.8857365   -3.8455533  
C  -12.5936424    1.7614463   -2.7797297  
O  -13.7942517    2.3114547   -2.4347039  
C  -11.4352739    2.0966370   -2.0390221  
O  -11.6718122    2.9820154   -1.0077616  
C  -10.1969487    1.5708161   -2.3433039  
H  -11.5208637   -0.9391617   -5.8137614  
H  -13.4177378    0.6434384   -4.3984539  
H  -13.6239827    2.8848291   -1.6760762  
H  -10.8387997    3.1555287   -0.5587773  
H   -9.3274565    1.8462953   -1.7580050  
H   -9.0676347   -1.4386146   -5.7567265  
C    2.5285572    2.1210227    2.9438989  
C    1.9331703    1.6216660    4.0790748  
C    0.8903039    0.7472258    3.6520102  
C    0.8972198    0.7527806    2.2336141  
N    1.9028376    1.5986179    1.8362361  
C    0.0000000    0.0000000    1.4700000  
C   -0.9207814   -0.7726952    2.1506477  
O   -1.8198395   -1.5274828    1.4542253  
C   -0.9436862   -0.7911793    3.5655508  
O   -1.9197945   -1.6098497    4.0950179  
C   -0.0590329   -0.0485852    4.3195194  
H    2.2150357    1.8593692    5.0905303  
H    2.1533708    1.7953814    0.8841339  
H   -2.3621246   -1.9821033    2.1118817  
H   -1.8668290   -1.5649508    5.0545920  
H   -0.1007624   -0.0827977    5.4019087  
H    3.3491200    2.8096064    2.8367138  
