60

C    5.2180291   -4.4180369   -8.6466320  
C    4.2557867   -3.5948706   -8.1090860  
C    4.3906594   -3.6674748   -6.6909405  
C    5.4609886   -4.5578366   -6.4196880  
N    5.9397251   -4.9969155   -7.6290843  
C    5.8758091   -4.8683709   -5.1211191  
C    5.1979835   -4.2689387   -4.0773701  
O    5.5620221   -4.5366879   -2.7894258  
C    4.1272272   -3.3780992   -4.3277748  
O    3.5532522   -2.8633769   -3.1836781  
C    3.7172817   -3.0714990   -5.6085825  
H    3.5434818   -3.0144247   -8.6700643  
H    6.7075872   -5.6316582   -7.7534512  
H    6.6907403   -5.5462666   -4.9077041  
H    4.9691042   -4.0229718   -2.2256800  
H    2.8393582   -2.2720339   -3.4411117  
H    5.4457199   -4.6391429   -9.6753341  
C    2.6001984   -2.1411815   -5.8266050  
C    2.0730541   -1.7332812   -7.0044489  
C    0.9991584   -0.8222828   -6.6393046  
C    1.0189896   -0.7962633   -5.1609565  
N    1.9554489   -1.5673972   -4.6788923  
C    0.0950446    0.0004351   -4.4015596  
C   -0.8074268    0.7379271   -5.0878437  
O   -1.7282262    1.5268496   -4.5083866  
C   -0.8524310    0.7331204   -6.5798599  
O   -1.7006936    1.4286195   -7.1383864  
C    0.1059489   -0.0924302   -7.3360995  
H    2.3756463   -2.0156467   -7.9983221  
H   -2.2213259    1.9193587   -5.2513147  
H    0.0405998   -0.0682527   -8.4156246  
C    3.3321173    0.0004713   -1.3379338  
C    2.6974181    0.0000116   -2.5332314  
C    1.2800438   -0.0002119   -2.2052841  
C    1.2395034    0.0000643   -0.7271299  
N    2.4394062    0.0005460   -0.2131038  
C    0.0000000    0.0000000    0.0000000  
C   -1.1468702    0.0000634   -0.7169543  
O   -2.3742203    0.0000074   -0.1695487  
C   -1.1388770    0.0001607   -2.2096355  
O   -2.2206234    0.0000905   -2.7970411  
C    0.1454522    0.0001815   -2.9324241  
H    3.1367984   -0.0000653   -3.5160950  
H   -2.9844346    0.0001026   -0.9290167  
H    4.3940038    0.0007618   -1.1498640  
C    0.0000000    0.0000000    1.4700000  
C    1.0662921    0.0000102    2.3034270  
C    0.4961870   -0.0000064    3.6418889  
C   -0.9663858    0.0000850    3.4240247  
N   -1.2632773    0.0000084    2.1528658  
C   -1.8985362    0.0000517    4.5177257  
C   -1.3925775   -0.0004564    5.7720543  
O   -2.1456383   -0.0005410    6.8851312  
C    0.0786232   -0.0009323    6.0245000  
O    0.4683759   -0.0012588    7.1921102  
C    1.0143166   -0.0008442    4.8859032  
H    2.1107198   -0.0000632    2.0421868  
H   -2.9622183    0.0003270    4.3293377  
H   -1.5042274   -0.0009692    7.6184419  
H    2.0724152   -0.0013148    5.1109744  
