60

C   -5.2008355    2.1296294   -5.9955986  
C   -6.2463361    1.6313806   -6.7379880  
C   -5.6837989    0.7587099   -7.7160459  
C   -4.2790107    0.7641519   -7.5199223  
N   -4.0195026    1.6082257   -6.4688217  
C   -3.4023861    0.0128655   -8.3085206  
C   -3.9539621   -0.7581922   -9.3132150  
O   -3.1436830   -1.5114776  -10.1126043  
C   -5.3531534   -0.7765361   -9.5247413  
O   -5.7475113   -1.5934846  -10.5641742  
C   -6.2185406   -0.0354154   -8.7473279  
H   -7.2863951    1.8686695   -6.5931958  
H   -3.1093750    1.8044891   -6.0931493  
H   -3.7230274   -1.9651158  -10.7385732  
H   -6.7055796   -1.5486090  -10.6396438  
H   -7.2856774   -0.0694790   -8.9331686  
H   -5.2042084    2.8167890   -5.1668897  
C   -1.0641738    0.0073911   -4.6315339  
C    0.2051247    0.0079407   -5.1010655  
C    0.0692337    0.0101851   -6.5495229  
C   -1.3902935    0.0106361   -6.7869342  
N   -2.0598289    0.0090850   -5.6663500  
C   -1.9455310    0.0127610   -8.1123753  
C   -1.0819577    0.0147513   -9.1533232  
O   -1.4606997    0.0168505  -10.4427384  
C    0.3963086    0.0147286   -8.9462286  
O    1.1228019    0.0164823   -9.9399214  
C    0.9412629    0.0124832   -7.5769427  
H    1.1205717    0.0070363   -4.5344694  
H   -0.6266011    0.0179439  -10.9461564  
H    2.0176805    0.0126570   -7.4694464  
C    1.1319245    0.0015656   -0.8009271  
C    0.7969914    0.0034943   -2.1169404  
C   -0.6453340    0.0035712   -2.1842672  
C   -1.1266833    0.0015434   -0.7896027  
N    0.0000000    0.0000000    0.0000000  
C   -2.4346131    0.0013965   -0.4276296  
C   -3.4350110    0.0031409   -1.4820182  
O   -4.6384610    0.0030975   -1.2583916  
C   -2.9478961    0.0050507   -2.9661073  
O   -3.7809383    0.0062220   -3.8623773  
C   -1.5113824    0.0053091   -3.2312124  
H    1.4821237    0.0045409   -2.9459193  
H   -2.7664564    0.0000233    0.6013449  
H    2.1104315    0.0009392   -0.3488061  
C    2.3971438    2.0127888    3.1728260  
C    1.9431056    1.6308205    1.9564670  
C    0.8496017    0.7127664    2.2356185  
C    0.7794028    0.6545384    3.7115134  
N    1.6840587    1.4146091    4.2663826  
C   -0.1885723   -0.1578550    4.3957118  
C   -1.0476298   -0.8789867    3.6398520  
O   -2.0015663   -1.6796266    4.1448486  
C   -1.0022026   -0.8410666    2.1483229  
O   -1.8147390   -1.5232959    1.5241687  
C    0.0000000    0.0000000    1.4700000  
H    2.3054237    1.9346118    0.9892483  
H   -0.2170646   -0.1815267    5.4753125  
H   -2.4487139   -2.0549881    3.3649027  
H    3.2048689    2.6911772    3.3971983  
