62

C    9.7946006    0.6681501    0.0134331  
C    9.0750148   -0.0448085    0.9442151  
C   10.0159636   -0.7829329    1.7216396  
C   11.3051187   -0.4774823    1.2149788  
N   11.1344521    0.4048626    0.1772130  
C   12.4758934   -1.0286580    1.7443933  
C   12.3428718   -1.9038976    2.8047890  
O   13.4535273   -2.4706496    3.3599921  
C   11.0652098   -2.2214032    3.3240036  
O   11.0991149   -3.1087082    4.3798847  
C    9.9097639   -1.6782396    2.8020436  
H   11.8738506    0.8077871   -0.3695256  
H   13.4613959   -0.8000258    1.3626660  
H   13.1410004   -3.0404985    4.0747388  
H   10.1963773   -3.2696237    4.6710459  
H    8.9450974   -1.9404027    3.2205746  
H    9.4580071    1.3425396   -0.7552432  
C    5.7554373   -0.0091491   -2.0505782  
C    6.9923854   -0.0221756   -1.4487010  
C    6.7698802   -0.0218617   -0.0397681  
C    5.3656330   -0.0085417    0.1598300  
N    4.7795901    0.0008674   -1.0815733  
C    4.7823663   -0.0048626    1.4304892  
C    5.6321564   -0.0151181    2.5194934  
O    5.1157424   -0.0124420    3.7829501  
C    7.0359714   -0.0280959    2.3407450  
O    7.7467972   -0.0367933    3.5231131  
C    7.6120764   -0.0314592    1.0875018  
H    7.9386727   -0.0297332   -1.9620009  
H    3.7128509    0.0054157    1.5893381  
H    5.8701760   -0.0205768    4.3862978  
H    8.6857212   -0.0453503    3.3134661  
H    5.4920799   -0.0047651   -3.0944090  
C    3.3321168    0.0004716   -1.3379341  
C    2.6974177    0.0000118   -2.5332316  
C    1.2800432   -0.0002116   -2.2052842  
C    1.2395033    0.0000644   -0.7271298  
N    2.4394059    0.0005460   -0.2131041  
C    0.0000000    0.0000000    0.0000000  
C   -1.1468704    0.0000635   -0.7169542  
O   -2.3742206    0.0000074   -0.1695488  
C   -1.1388774    0.0001608   -2.2096352  
O   -2.2206238    0.0000906   -2.7970409  
C    0.1454514    0.0001818   -2.9324241  
H    3.1367978   -0.0000649   -3.5160956  
H   -2.9844350    0.0001027   -0.9290164  
H    0.1083567    0.0003684   -4.0135594  
C    0.8400945    0.7047457    2.2710304  
C    0.0000000    0.0000000    1.4700000  
C   -0.8844236   -0.7423113    2.3369512  
C   -0.4878984   -0.4098547    3.7186280  
N    0.5629682    0.4714286    3.6095011  
C   -1.0836927   -0.9095027    4.8308716  
C   -2.1891196   -1.8367527    4.6554461  
O   -2.7906899   -2.3413415    5.5944904  
C   -2.6257283   -2.2031529    3.2011665  
O   -3.5549479   -2.9829990    3.0410059  
C   -1.9068976   -1.5999348    2.0816745  
H   -0.7774656   -0.6525820    5.8354244  
H   -2.2155208   -1.8586617    1.0779135  
H    1.6384792    1.3747609    1.9961646  
H    1.0518368    0.8833920    4.3830260  
