60

C    5.4992129   -1.0738733   -6.5332720  
C    6.4819047   -1.9596049   -6.1560932  
C    7.2739492   -2.2203357   -7.3133674  
C    6.7222875   -1.4590279   -8.3754438  
N    5.6449097   -0.7761210   -7.8679878  
C    7.2517552   -1.4714579   -9.6693905  
C    8.3584627   -2.2666789   -9.8952202  
O    8.9158825   -2.3157116  -11.1401667  
C    8.9230080   -3.0337859   -8.8484859  
O   10.0219240   -3.7743055   -9.2323578  
C    8.4010350   -3.0222182   -7.5717956  
H    6.6112231   -2.3684480   -5.1686128  
H    5.0610885   -0.1451330   -8.3866284  
H    6.8358679   -0.8936223  -10.4832376  
H    9.6660254   -2.9214391  -11.0797912  
H   10.3419822   -4.2624340   -8.4675725  
H    8.8549010   -3.6204790   -6.7904079  
C    4.1774648   -0.7039258   -4.3991482  
C    3.1006054    0.0006263   -3.9654951  
C    2.5992399    0.7428152   -5.0980249  
C    3.4785673    0.4104979   -6.2351873  
N    4.4147925   -0.4705962   -5.7452433  
C    3.3361156    0.9100884   -7.4889105  
C    2.2439823    1.8371255   -7.7346382  
O    2.0321271    2.3416476   -8.8295700  
C    1.3005621    2.2033757   -6.5448377  
O    0.3778218    2.9830422   -6.7395972  
C    1.5546718    1.6002373   -5.2388880  
H    3.9920980    0.6532723   -8.3090581  
H    0.8967556    1.8588594   -4.4203622  
H    4.8177809   -1.3738061   -3.8485623  
C    3.2798083    0.0005857   -1.4499652  
C    2.5571142    0.0005565   -2.5996556  
C    1.1637432    0.0001548   -2.2210361  
C    1.1336964   -0.0000200   -0.7459473  
N    2.4483512   -0.0001428   -0.3402723  
C    0.0000000    0.0000000    0.0000000  
C   -1.2757368   -0.0000186   -0.6964415  
O   -2.3524598   -0.0000639   -0.1142311  
C   -1.2676497   -0.0000872   -2.2584083  
O   -2.3355766   -0.0004101   -2.8557295  
C    0.0181558    0.0001758   -2.9516296  
H    0.0150788    0.0003319   -4.0331631  
H    4.3498547    0.0008612   -1.3200026  
H    2.7563626    0.0012823    0.6148059  
C    2.4951002    2.0940188    2.9809380  
C    1.9440701    1.6314916    1.8291961  
C    0.8759964    0.7350050    2.2038498  
C    0.8497377    0.7130254    3.6788474  
N    1.8560616    1.5571714    4.0882609  
C   -0.0205033   -0.0168748    4.4215661  
C   -0.9962600   -0.8356168    3.7214979  
O   -1.8224391   -1.5286685    4.3006425  
C   -0.9864710   -0.8277881    2.1595606  
O   -1.8030528   -1.5133726    1.5592035  
C    0.0000000    0.0000000    1.4700000  
H    2.2509283    1.8888011    0.8310761  
H   -0.0229599   -0.0187323    5.5027230  
H    3.3143982    2.7817323    3.1139444  
H    2.0889452    1.7545833    5.0442112  
