60

C    3.9972529    0.6823385   -7.3596265  
C    5.0816985   -0.1356130   -7.1419107  
C    5.9075840   -0.0496049   -8.3017019  
C    5.2707203    0.8436227   -9.2008543  
N    4.1124680    1.2681922   -8.5985164  
C    5.8055934    1.1669798  -10.4515101  
C    7.0053819    0.5781329  -10.8007144  
O    7.5723043    0.8591511  -12.0101104  
C    7.6558548   -0.3159357   -9.9173439  
O    8.8419852   -0.8196117  -10.4100399  
C    7.1286334   -0.6356028   -8.6834980  
H    5.2555067   -0.7229677   -6.2565865  
H    3.4567860    1.9173930   -8.9942436  
H    5.3250622    1.8469048  -11.1414329  
H    8.3926418    0.3506554  -12.0518752  
H    9.2164189   -1.4139706   -9.7526660  
H    7.6496232   -1.3239082   -8.0283003  
C    2.8494824   -0.7287744   -3.3362176  
C    3.4912459   -0.5137443   -4.5134928  
C    2.6833707    0.4134347   -5.2701381  
C    1.5099404    0.7231880   -4.4311474  
N    1.6707636   -0.0012343   -3.2725974  
C    0.5077428    1.5643732   -4.7913026  
C    0.5901973    2.2074116   -6.0921629  
O   -0.2621830    2.9813249   -6.5078621  
C    1.8239386    1.8937415   -6.9973138  
O    1.9040989    2.4289663   -8.0947514  
C    2.8403309    0.9701102   -6.4996147  
H    4.4240225   -0.9544954   -4.8172698  
H   -0.3442054    1.7780273   -4.1608687  
H    3.1383495   -1.3576899   -2.5098333  
C    1.0965514    0.0001358   -0.8010306  
C    0.0000000    0.0000000    0.0000000  
C   -1.1546565    0.0001470   -0.8669508  
C   -0.6372019    0.0003520   -2.2486278  
N    0.7342867    0.0007338   -2.1395012  
C   -1.4147744    0.0001354   -3.3608712  
C   -2.8576052   -0.0001047   -3.1854454  
O   -3.6427785   -0.0002490   -4.1244896  
C   -3.4275841   -0.0000727   -1.7311660  
O   -4.6406832    0.0000333   -1.5710049  
C   -2.4891868   -0.0001090   -0.6116739  
H   -1.0150456    0.0001617   -4.3654239  
H   -2.8919122   -0.0002919    0.3920871  
H    2.1388270    0.0000663   -0.5261650  
C    2.5528530    2.1414826    2.8079335  
C    2.0663498    1.7338582    4.0032312  
C    0.9804344    0.8229586    3.6752840  
C    0.9495562    0.7966882    2.1971295  
N    1.8690446    1.5676019    1.6831036  
C    0.0000000    0.0000000    1.4700000  
C   -0.8785127   -0.7372425    2.1869543  
O   -1.8187535   -1.5261249    1.6395491  
C   -0.8723269   -0.7321790    3.6796354  
O   -1.7010379   -1.4274584    4.2670412  
C    0.1115397    0.0933559    4.4024240  
H    2.4028853    2.0163452    4.9860947  
H   -2.2861435   -1.9184361    2.3990168  
H    0.0832434    0.0693689    5.4835595  
H    3.3664920    2.8238276    2.6198634  
