60

C   -0.5033145   -0.5427983   -9.5539951  
C   -0.8544336    0.6884806   -9.0508689  
C   -0.8202085    1.6085854  -10.1402893  
C   -0.4387149    0.8750289  -11.2928008  
N   -0.2522363   -0.4274708  -10.9012176  
C   -0.3031656    1.4639950  -12.5535677  
C   -0.5576576    2.8180908  -12.6527473  
O   -0.4406665    3.4436409  -13.8602285  
C   -0.9390775    3.5671322  -11.5142078  
O   -1.1568944    4.9040862  -11.7758405  
C   -1.0727337    2.9868140  -10.2700634  
H    0.0126482   -1.1832591  -11.5066933  
H   -0.0126016    0.9104617  -13.4358248  
H   -0.6592034    4.3724048  -13.7088891  
H   -1.4102812    5.3372842  -10.9550247  
H   -1.3662115    3.5861692   -9.4161775  
H   -0.4107224   -1.4938677   -9.0581599  
C    0.8351697   -0.7268778   -5.2248488  
C    0.5760704   -0.5103264   -6.5401621  
C   -0.5290498    0.4167164   -6.6044789  
C   -0.8951514    0.7247316   -5.2088119  
N   -0.0307352   -0.0004646   -4.4215603  
C   -1.8962323    1.5652877   -4.8441110  
C   -2.6645245    2.2094353   -5.8964112  
O   -3.5858897    2.9829009   -5.6702747  
C   -2.2943358    1.8976110   -7.3815147  
O   -2.9343337    2.4337813   -8.2760453  
C   -1.1943983    0.9745125   -7.6496164  
H    1.0992703   -0.9499842   -7.3705689  
H   -2.1484159    1.7776630   -3.8144458  
H    1.5856962   -1.3561862   -4.7747704  
C    3.2573670   -0.0002920   -1.5109380  
C    2.5379468   -0.0001709   -0.3591961  
C    1.1435043    0.0000332   -0.7338500  
C    1.1092609   -0.0000082   -2.2088477  
N    2.4227562    0.0001909   -2.6182613  
C   -0.0265532   -0.0002522   -2.9515663  
C   -1.3003035   -0.0002639   -2.2514981  
O   -2.3786784   -0.0004131   -2.8306429  
C   -1.2877725    0.0000312   -0.6895608  
O   -2.3539958    0.0003307   -0.0892036  
C    0.0000000    0.0000000    0.0000000  
H    2.9384091   -0.0000369    0.6389239  
H    4.3270394   -0.0004765   -1.6439446  
H    2.7280494   -0.0013406   -3.5742113  
C    2.5528530    2.1414826    2.8079335  
C    2.0663498    1.7338582    4.0032312  
C    0.9804344    0.8229586    3.6752840  
C    0.9495562    0.7966882    2.1971295  
N    1.8690446    1.5676019    1.6831036  
C    0.0000000    0.0000000    1.4700000  
C   -0.8785127   -0.7372425    2.1869543  
O   -1.8187535   -1.5261249    1.6395491  
C   -0.8723269   -0.7321790    3.6796354  
O   -1.7010379   -1.4274584    4.2670412  
C    0.1115397    0.0933559    4.4024240  
H    2.4028853    2.0163452    4.9860947  
H   -2.2861435   -1.9184361    2.3990168  
H    0.0832434    0.0693689    5.4835595  
H    3.3664920    2.8238276    2.6198634  
