64

C    4.9136436   -0.9103265   -7.2804645  
C    4.2614387    0.1603185   -6.7140577  
C    4.5955613    1.3094563   -7.4902304  
C    5.4619094    0.8747295   -8.5257884  
N    5.6358252   -0.4778526   -8.3680159  
C    5.9912700    1.7445036   -9.4839425  
C    5.6394095    3.0773611   -9.3952694  
O    6.1275642    3.9698052  -10.3053594  
C    4.7765897    3.5303980   -8.3690552  
O    4.5212513    4.8853887   -8.4153787  
C    4.2542054    2.6729528   -7.4233131  
H    6.1926319   -1.0646541   -8.9626688  
H    6.6521952    1.4194650  -10.2756054  
H    5.7636346    4.8317576  -10.0648228  
H    3.9312930    5.1087235   -7.6889662  
H    3.5959804    3.0490696   -6.6488752  
H    4.9219627   -1.9479954   -6.9938760  
C    4.5582355   -2.0922259   -2.8633936  
C    4.7995864   -1.5811259   -4.1175841  
C    3.7180585   -0.7032883   -4.4246651  
C    2.8401176   -0.7189697   -3.3107077  
N    3.3790679   -1.5738356   -2.3815394  
C    1.6628945    0.0339172   -3.2649299  
C    1.3667033    0.8171317   -4.3635760  
O    0.2298886    1.5725144   -4.3714924  
C    2.2299646    0.8458162   -5.4846355  
O    1.7963532    1.6742723   -6.4990247  
C    3.3913532    0.1031248   -5.5305970  
H    5.6499297   -1.8133769   -4.7356204  
H    2.9820492   -1.7789139   -1.4824842  
H    0.2153765    2.0351559   -5.2194413  
H    2.4353780    1.6358688   -7.2172005  
H    5.1331934   -2.7866336   -2.2750224  
C    1.1243410    0.0100105   -0.7919003  
C    0.7474072    0.0234665   -2.1148542  
C   -0.6787384    0.0234379   -2.1414698  
C   -1.1201748    0.0098411   -0.7935547  
N    0.0000000    0.0000000    0.0000000  
C   -2.4730818    0.0063307   -0.4408240  
C   -3.3971962    0.0170429   -1.4675058  
O   -4.7313520    0.0145490   -1.1793468  
C   -2.9763654    0.0303020   -2.8186325  
O   -4.0166484    0.0394464   -3.7247625  
C   -1.6418567    0.0334992   -3.1673480  
H   -2.8160166   -0.0041569    0.5845966  
H   -5.1938823    0.0230023   -2.0274386  
H   -3.6464680    0.0481700   -4.6127343  
H   -1.3497475    0.0435647   -4.2109234  
H    2.1062466    0.0053162   -0.3505405  
C    0.0000000    0.0000000    1.4700000  
C    1.0662921    0.0000102    2.3034270  
C    0.4961870   -0.0000064    3.6418889  
C   -0.9663858    0.0000850    3.4240247  
N   -1.2632773    0.0000084    2.1528658  
C   -1.8985362    0.0000517    4.5177257  
C   -1.3925775   -0.0004564    5.7720543  
O   -2.1456383   -0.0005410    6.8851312  
C    0.0786232   -0.0009323    6.0245000  
O    0.4683759   -0.0012588    7.1921102  
C    1.0143166   -0.0008442    4.8859032  
H    2.1107198   -0.0000632    2.0421868  
H   -2.9622183    0.0003270    4.3293377  
H   -1.5042274   -0.0009692    7.6184419  
H    2.0724152   -0.0013148    5.1109744  
