62

C    5.4706764   -3.6007338   -1.1288606  
C    6.5693257   -4.4087648   -0.9485194  
C    7.3581987   -4.3093183   -2.1327450  
C    6.6851600   -3.4184932   -3.0076024  
N    5.5418868   -3.0082248   -2.3678969  
C    7.1780332   -3.0842151   -4.2725629  
C    8.3722400   -3.6594677   -4.6613204  
O    8.8988346   -3.3673903   -5.8862287  
C    9.0584026   -4.5509270   -3.8026599  
O   10.2336974   -5.0405086   -4.3340123  
C    8.5726231   -4.8813638   -2.5547191  
H    6.7761101   -4.9983046   -0.0717767  
H    6.6697954   -2.4060520   -4.9441214  
H    9.7224689   -3.8674655   -5.9556388  
H   10.6340472   -5.6340263   -3.6913146  
H    9.1203114   -5.5673470   -1.9191539  
H    4.6411798   -3.4012865   -0.4722679  
C    4.5551378   -2.0647519   -2.9129532  
C    3.4069296   -1.6070135   -2.3506646  
C    2.8049832   -0.7012744   -3.3004708  
C    3.7030475   -0.6686463   -4.4706023  
N    4.7450051   -1.5160897   -4.1721835  
C    3.4850372    0.0719025   -5.5867395  
C    2.2859703    0.8916869   -5.6389642  
O    2.0005473    1.5939527   -6.6000353  
C    1.3208820    0.8726932   -4.4109377  
O    0.3083943    1.5590471   -4.4433024  
C    1.6628945    0.0339172   -3.2649299  
H    3.0252950   -1.8733122   -1.3811009  
H    4.1564388    0.0814618   -6.4341106  
H    5.5224748   -1.7081418   -4.7769179  
C    1.1243410    0.0100105   -0.7919003  
C    0.7474072    0.0234665   -2.1148542  
C   -0.6787384    0.0234379   -2.1414698  
C   -1.1201748    0.0098411   -0.7935547  
N    0.0000000    0.0000000    0.0000000  
C   -2.4730818    0.0063307   -0.4408240  
C   -3.3971962    0.0170429   -1.4675058  
O   -4.7313520    0.0145490   -1.1793468  
C   -2.9763654    0.0303020   -2.8186325  
O   -4.0166484    0.0394464   -3.7247625  
C   -1.6418567    0.0334992   -3.1673480  
H   -2.8160166   -0.0041569    0.5845966  
H   -5.1938823    0.0230023   -2.0274386  
H   -3.6464680    0.0481700   -4.6127343  
H   -1.3497475    0.0435647   -4.2109234  
H    2.1062466    0.0053162   -0.3505405  
C    0.0000000    0.0000000    1.4700000  
C    1.0541688    0.0001722    2.3260392  
C    0.5103138    0.0000454    3.6635956  
C   -0.9576371   -0.0002459    3.5155732  
N   -1.2018458    0.0001392    2.1615969  
C   -1.8348311   -0.0008317    4.5510609  
C   -1.2972847   -0.0009736    5.9014604  
O   -2.0050672   -0.0014265    6.9001319  
C    0.2542623   -0.0004184    6.0817573  
O    0.7184670   -0.0002256    7.2139121  
C    1.0974552   -0.0000873    4.8889129  
H    2.0940752    0.0005483    2.0517982  
H   -2.9081052   -0.0011668    4.4207061  
H    2.1707277    0.0000911    5.0223670  
H   -2.1128194   -0.0014912    1.7406791  
