60

C    5.6405125    0.7062444   -6.3007611  
C    5.4778280    0.4555967   -7.6435858  
C    6.5085108   -0.4535741   -8.0252940  
C    7.2757645   -0.7245437   -6.8634753  
N    6.7228594   -0.0028431   -5.8348544  
C    8.3782611   -1.5843476   -6.8687730  
C    8.7121205   -2.1817231   -8.0687137  
O    9.7793876   -3.0303548   -8.1301918  
C    7.9590436   -1.9236298   -9.2387913  
O    8.4176222   -2.5938595  -10.3540675  
C    6.8714468   -1.0753142   -9.2343598  
H    4.7113224    0.8771465   -8.2710872  
H    8.9672180   -1.7949107   -5.9867327  
H    9.8361780   -3.3317249   -9.0462786  
H    7.8544718   -2.3645695  -11.0996504  
H    6.3138934   -0.8968279  -10.1463667  
H    5.0709896    1.3358364   -5.6387817  
C    4.5679461   -0.0016854   -2.0086701  
C    5.6245801   -0.0018696   -1.1556757  
C    6.8197131   -0.0025284   -1.9659186  
C    6.3695110   -0.0026849   -3.3709484  
N    4.9943549   -0.0025528   -3.3281076  
C    7.1998311   -0.0028670   -4.4443876  
C    8.6325203   -0.0031378   -4.1995661  
O    9.4620769   -0.0033772   -5.0996411  
C    9.1316831   -0.0032304   -2.7194844  
O   10.3356443   -0.0037644   -2.5009918  
C    8.1403753   -0.0027354   -1.6465625  
H    5.5727016   -0.0017596   -0.0814682  
H    8.4942119   -0.0025976   -0.6245433  
H    4.3931135   -0.0010540   -4.1315711  
C    3.1301149   -0.0010311   -1.7028252  
C    2.5367768   -0.0002767   -0.4864665  
C    1.1089904    0.0001028   -0.7656183  
C    1.0177872   -0.0004148   -2.2415132  
N    2.1993578   -0.0011611   -2.7963820  
C   -0.2459209   -0.0002877   -2.9257118  
C   -1.3675319   -0.0000605   -2.1698524  
O   -2.6129313    0.0000867   -2.6748490  
C   -1.3083584    0.0000910   -0.6783232  
O   -2.3693261    0.0004206   -0.0541692  
C    0.0000000    0.0000000    0.0000000  
H    3.0096017   -0.0001007    0.4807525  
H   -0.2829630   -0.0004687   -4.0053125  
H   -3.1967441    0.0002094   -1.8949034  
C    0.8175213    0.6860729    2.3021913  
C    0.0000000    0.0000000    1.4700000  
C   -0.8887526   -0.7456559    2.3478473  
C   -0.4549825   -0.3816753    3.7138435  
N    0.5448156    0.4573574    3.6934124  
C   -1.0945674   -0.9182058    4.8835240  
C   -2.1210866   -1.7789155    4.6970523  
O   -2.8083856   -2.3554314    5.6976972  
C   -2.5824069   -2.1655116    3.3310774  
O   -3.5227682   -2.9541547    3.2362962  
C   -1.9100805   -1.6015804    2.1470656  
H   -0.7567140   -0.6349833    5.8697035  
H   -3.4728268   -2.9124471    5.2533954  
H   -2.2742832   -1.9066565    1.1752040  
H    1.6189533    1.3585343    2.0405121  
