62

C    1.7722387   -2.4121190   -7.7479490  
C    1.3359187   -1.1094843   -7.6755939  
C    1.7118690   -0.4760092   -8.8970562  
C    2.3800486   -1.4499182   -9.6825260  
N    2.4010026   -2.6135169   -8.9543663  
C    2.8902239   -1.1751468  -10.9549295  
C    2.7225581    0.1060385  -11.4434285  
O    3.2010532    0.4283955  -12.6804175  
C    2.0589802    1.0916343  -10.6746089  
O    1.9721666    2.3186337  -11.2993326  
C    1.5556645    0.8213453   -9.4191634  
H    2.8007022   -3.4823020   -9.2600370  
H    3.4005929   -1.9129617  -11.5585487  
H    2.9813656    1.3580549  -12.8244106  
H    1.5106796    2.9263069  -10.7133578  
H    1.0522129    1.5967345   -8.8536675  
H    1.6859433   -3.2131079   -7.0338559  
C    0.8798788   -0.7257936   -5.2251222  
C    0.6207792   -0.5088624   -6.5403725  
C   -0.4843409    0.4181989   -6.6044216  
C   -0.8504422    0.7258112   -5.2086653  
N    0.0139741    0.0003876   -4.4216236  
C   -1.8515231    1.5662620   -4.8437219  
C   -2.6198153    2.2107133   -5.8958360  
O   -3.5411802    2.9841135   -5.6694758  
C   -2.2496271    1.8993178   -7.3810295  
O   -2.8896250    2.4357467   -8.2754048  
C   -1.1496898    0.9762966   -7.6493977  
H   -2.1037065    1.7783400   -3.8139954  
H   -0.8995642    0.7661493   -8.6804157  
H    1.6304051   -1.3552318   -4.7752251  
C    3.2798085    0.0005853   -1.4499648  
C    2.5571144    0.0005562   -2.5996554  
C    1.1637436    0.0001546   -2.2210360  
C    1.1336965   -0.0000201   -0.7459470  
N    2.4483513   -0.0001430   -0.3402717  
C    0.0000000    0.0000000    0.0000000  
C   -1.2757367   -0.0000188   -0.6964414  
O   -2.3524597   -0.0000640   -0.1142313  
C   -1.2676494   -0.0000875   -2.2584081  
O   -2.3355762   -0.0004102   -2.8557294  
C    0.0181562    0.0001757   -2.9516296  
H    2.9547357    0.0006072   -3.5989105  
H    4.3498550    0.0008609   -1.3200021  
H    2.7563627    0.0012824    0.6148063  
C    2.5311839    2.1237619    3.0120429  
C    1.9795631    1.6616747    1.8395852  
C    0.9223175    0.7739173    2.1983588  
C    0.8753926    0.7337535    3.6154372  
N    1.8668922    1.5631002    4.0777464  
C   -0.0496243   -0.0427881    4.3197917  
C   -0.9437528   -0.7922060    3.5801400  
O   -1.8685244   -1.5680278    4.2172520  
C   -0.9124520   -0.7656372    2.1655264  
O   -1.8671164   -1.5663939    1.5732860  
C    0.0000000    0.0000000    1.4700000  
H    2.3005065    1.9304404    0.8477417  
H    2.0679347    1.7444845    5.0445261  
H   -0.0904770   -0.0778569    5.3997470  
H   -2.3849669   -2.0011402    3.5251786  
H   -1.7775064   -1.4909735    0.6183591  
H    3.3468514    2.8078103    3.1724291  
