60

C    1.9079008   -3.0278367  -10.1295657  
C    1.3356974   -2.3454207   -9.0810632  
C    1.2403724   -0.9782851   -9.4766051  
C    1.7743383   -0.8860594  -10.7874445  
N    2.1721770   -2.1480718  -11.1530504  
C    1.8406795    0.3185764  -11.4940137  
C    1.3589357    1.4506822  -10.8659720  
O    1.3992224    2.6531229  -11.5105855  
C    0.8227512    1.3789622   -9.5582345  
O    0.3845375    2.5925397   -9.0698258  
C    0.7572365    0.1909460   -8.8604861  
H    1.0261999   -2.7793901   -8.1457155  
H    2.5801525   -2.3948014  -12.0366010  
H    2.2466015    0.3955485  -12.4932662  
H    1.0194697    3.3013614  -10.9032631  
H    0.0376926    2.4560993   -8.1828730  
H    2.1497342   -4.0722660  -10.2277655  
C    2.0552330   -2.0117600   -5.3319188  
C    1.1441931   -1.6301399   -4.4067424  
C    0.2595428   -0.7123100   -5.1078001  
C    0.7977760   -0.6538171   -6.4838335  
N    1.8503502   -1.4135517   -6.6212388  
C    0.1930640    0.1584617   -7.5034476  
C   -0.8998975    0.8792303   -7.1639457  
O   -1.5649249    1.6797246   -8.0142323  
C   -1.4671326    0.8410360   -5.7837474  
O   -2.4638604    1.5229394   -5.5454999  
C   -0.8287665    0.0000939   -4.7555305  
H    1.0803198   -1.9340247   -3.3758933  
H   -2.2915646    2.0548233   -7.4846584  
H    2.8844094   -2.6899005   -5.2071571  
C    1.0672569   -0.0000698   -0.8321910  
C    0.0000000    0.0000000    0.0000000  
C   -1.1601223   -0.0000736   -0.8778472  
C   -0.5938729   -0.0000768   -2.2438435  
N    0.7113367   -0.0001553   -2.2234123  
C   -1.4286985   -0.0001877   -3.4135239  
C   -2.7683113   -0.0006798   -3.2270524  
O   -3.6653902   -0.0008302   -4.2276970  
C   -3.3702024   -0.0010610   -1.8610774  
O   -4.5974910   -0.0013779   -1.7662963  
C   -2.4926825   -0.0008943   -0.6770658  
H   -4.5324245   -0.0012258   -3.7833954  
H   -2.9677772   -0.0012974    0.2947961  
H    2.1134391   -0.0000547   -0.5705119  
C    2.5128556    2.1077716    2.9199648  
C    1.9592212    1.6432552    4.0696553  
C    0.8915788    0.7479214    3.6910360  
C    0.8684491    0.7287414    2.2159470  
N    1.8754542    1.5738793    1.8102719  
C    0.0000000    0.0000000    1.4700000  
C   -0.9772830   -0.8200135    2.1664417  
O   -1.8021297   -1.5120829    1.5842315  
C   -0.9711318   -0.8147624    3.7284083  
O   -1.7894187   -1.5009653    4.3257297  
C    0.0140216    0.0115358    4.4216297  
H    2.2638494    1.8988021    5.0689105  
H    0.0117648    0.0094386    5.5031631  
H    3.3327358    2.7953732    2.7900019  
H    2.1123206    1.7707734    0.8551938  
