62

C    7.6053867   -2.9410580   -4.6077146  
C    6.6500037   -1.9792740   -4.8415569  
C    7.3412579   -0.7527545   -5.0705070  
C    8.7281090   -1.0302727   -4.9630255  
N    8.8533397   -2.3676400   -4.6795048  
C    9.7107725   -0.0499613   -5.1308077  
C    9.2856843    1.2338287   -5.4125183  
O   10.2031206    2.2294006   -5.5861861  
C    7.9063658    1.5305102   -5.5233212  
O    7.6437112    2.8548068   -5.8072130  
C    6.9363822    0.5639631   -5.3576557  
H    5.5857385   -2.1414979   -4.8454289  
H    9.7219142   -2.8561395   -4.5573277  
H   10.7693732   -0.2549999   -5.0500270  
H    9.7012937    3.0339623   -5.7708878  
H    6.6903289    2.9701326   -5.8652259  
H    7.4953114   -3.9904201   -4.3939824  
C    3.4106844   -0.7032174   -3.0670123  
C    2.4521483    0.0014840   -3.7217481  
C    3.1158562    0.7444933   -4.7668629  
C    4.5499140    0.4124939   -4.6666318  
N    4.6621248   -0.4692177   -3.6164497  
C    5.5136830    0.9128418   -5.4805768  
C    5.1117788    1.8404161   -6.5249017  
O    5.9049350    2.3456315   -7.3084583  
C    3.5983555    2.2063420   -6.6492183  
O    3.2480952    2.9864551   -7.5244335  
C    2.6531316    1.6023760   -5.7134677  
H    1.6070344    1.8607780   -5.8063812  
H    3.3081788   -1.3736416   -2.2292093  
H    5.5205794   -0.8810217   -3.2994003  
C    0.0000000    0.0000000    0.0000000  
C    1.0662923   -0.0000101   -0.8334270  
C    0.4961873    0.0000065   -2.1718887  
C   -0.9663854   -0.0000848   -1.9540250  
N   -1.2632773   -0.0000083   -0.6828660  
C   -1.8985359   -0.0000514   -3.0477261  
C   -1.3925770    0.0004566   -4.3020547  
O   -2.1456378    0.0005414   -5.4151314  
C    0.0786240    0.0009326   -4.5545000  
O    0.4683767    0.0012591   -5.7221100  
C    1.0143171    0.0008444   -3.4159031  
H    2.1107200    0.0000633   -0.5721865  
H   -2.9622181   -0.0003268   -2.8593381  
H   -1.5042265    0.0009697   -6.1484419  
C    3.3041272   -0.0001177    3.0120429  
C    2.5845372    0.0004780    1.8395852  
C    1.2040006    0.0000008    2.1983588  
C    1.1422373   -0.0006037    3.6154372  
N    2.4348639   -0.0026109    4.0777464  
C   -0.0655181   -0.0008797    4.3197917  
C   -1.2321768   -0.0002324    3.5801400  
O   -2.4392816   -0.0001146    4.2172520  
C   -1.1911209    0.0000007    2.1655264  
O   -2.4371527    0.0002320    1.5732860  
C    0.0000000    0.0000000    1.4700000  
H    3.0031534    0.0000661    0.8477417  
H    2.7054629    0.0071099    5.0445261  
H   -0.1193549   -0.0014844    5.3997470  
H   -3.1132988    0.0000648    3.5251786  
H   -2.3200282    0.0004071    0.6183591  
H    4.3686625   -0.0004071    3.1724291  
