62

C    9.8748302   -0.7070011   -2.2978977  
C   11.2272217   -0.4563823   -2.2715377  
C   11.5027636    0.4539763   -3.3345162  
C   10.2693227    0.7256669   -3.9800664  
N    9.3018774    0.0032361   -3.3267985  
C   10.1631215    1.5866956   -5.0764875  
C   11.3231575    2.1845777   -5.5292916  
O   11.2764102    3.0344016   -6.5963566  
C   12.5633820    1.9257803   -4.8986677  
O   13.6265768    2.5966451   -5.4669101  
C   12.6689375    1.0762563   -3.8171441  
H   11.9290072   -0.8787125   -1.5728765  
H    9.2260532    1.7978136   -5.5730092  
H   12.1820612    3.3359385   -6.7451427  
H   14.4252776    2.3668137   -4.9822869  
H   13.6326440    0.8972535   -3.3548591  
H    9.2738273   -1.3373002   -1.6650658  
C    5.7131791   -0.0007489   -0.7960729  
C    4.7577216    0.0005129   -1.7610467  
C    5.4429748    0.0025913   -3.0319755  
C    6.8863233    0.0024065   -2.7261403  
N    6.9827412    0.0007416   -1.3537008  
C    7.8703099    0.0036325   -3.6607386  
C    7.4818862    0.0054677   -5.0613311  
O    8.2934747    0.0067304   -5.9776414  
C    5.9589196    0.0059474   -5.4082873  
O    5.6198165    0.0077946   -6.5839856  
C    4.9917255    0.0042296   -4.3135797  
H    3.9391679    0.0043694   -4.5622684  
H    5.5966614   -0.0024254    0.2755196  
H    7.8428782   -0.0013344   -0.8367791  
C    3.3041270    0.0001177   -1.5420435  
C    2.5845370   -0.0004780   -0.3695856  
C    1.2040004   -0.0000007   -0.7283590  
C    1.1422370    0.0006038   -2.1454373  
N    2.4348634    0.0026110   -2.6077469  
C   -0.0655187    0.0008799   -2.8497918  
C   -1.2321769    0.0002326   -2.1101398  
O   -2.4392822    0.0001149   -2.7472517  
C   -1.1911211   -0.0000007   -0.6955263  
O   -2.4371526   -0.0002319   -0.1032858  
C    0.0000000    0.0000000    0.0000000  
H    3.0031534   -0.0000661    0.6222578  
H    2.7054623   -0.0071098   -3.5745266  
H   -0.1193555    0.0014846   -3.9297472  
H   -3.1132992   -0.0000646   -2.0551783  
H   -2.3200279   -0.0004070    0.8516411  
C    0.8400945    0.7047457    2.2710304  
C    0.0000000    0.0000000    1.4700000  
C   -0.8844236   -0.7423113    2.3369512  
C   -0.4878984   -0.4098547    3.7186280  
N    0.5629682    0.4714286    3.6095011  
C   -1.0836927   -0.9095027    4.8308716  
C   -2.1891196   -1.8367527    4.6554461  
O   -2.7906899   -2.3413415    5.5944904  
C   -2.6257283   -2.2031529    3.2011665  
O   -3.5549479   -2.9829990    3.0410059  
C   -1.9068976   -1.5999348    2.0816745  
H   -0.7774656   -0.6525820    5.8354244  
H   -2.2155208   -1.8586617    1.0779135  
H    1.6384792    1.3747609    1.9961646  
H    1.0518368    0.8833920    4.3830260  
