62

C    8.0200388    0.0000708   -6.2644038  
C    6.8592899   -0.0007517   -5.5260759  
C    5.7757661   -0.0006968   -6.4537485  
C    6.3414853   -0.0001045   -7.7544749  
N    7.7059500    0.0023021   -7.6033181  
C    5.5647533   -0.0001959   -8.9170045  
C    4.1919226   -0.0012053   -8.7636657  
O    3.3862974   -0.0016907   -9.8654747  
C    3.6086723   -0.0014327   -7.4742337  
O    2.2291262   -0.0020496   -7.4881830  
C    4.3743234   -0.0010694   -6.3269305  
H    8.3729885   -0.0073308   -8.3536167  
H    5.9898060    0.0003974   -9.9112542  
H    2.4771038   -0.0020807   -9.5389308  
H    1.9157666   -0.0021934   -6.5785623  
H    3.8992270   -0.0010748   -5.3528868  
H    9.0471388    0.0006881   -5.9418761  
C    6.7793191   -0.0000202   -4.0582530  
C    7.7853572    0.0004711   -3.1461329  
C    7.1695419    0.0010651   -1.8401443  
C    5.7118175    0.0008489   -2.0678064  
N    5.5416291    0.0005850   -3.4330631  
C    4.7795901    0.0008674   -1.0815733  
C    5.2428764    0.0013430    0.2960700  
O    4.4818126    0.0014588    1.2547579  
C    6.7823176    0.0018306    0.5605065  
O    7.1842432    0.0025397    1.7162382  
C    7.6891544    0.0014826   -0.5847003  
H    8.8386427    0.0006053   -3.3633956  
H    8.7535769    0.0016186   -0.3930558  
H    4.6549030   -0.0011624   -3.9029151  
C    3.3321168    0.0004716   -1.3379341  
C    2.6974177    0.0000118   -2.5332316  
C    1.2800432   -0.0002116   -2.2052842  
C    1.2395033    0.0000644   -0.7271298  
N    2.4394059    0.0005460   -0.2131041  
C    0.0000000    0.0000000    0.0000000  
C   -1.1468704    0.0000635   -0.7169542  
O   -2.3742206    0.0000074   -0.1695488  
C   -1.1388774    0.0001608   -2.2096352  
O   -2.2206238    0.0000906   -2.7970409  
C    0.1454514    0.0001818   -2.9324241  
H    3.1367978   -0.0000649   -3.5160956  
H   -2.9844350    0.0001027   -0.9290164  
H    0.1083567    0.0003684   -4.0135594  
C    0.8676693    0.7151171    2.2619005  
C    0.5875920    0.4624972    3.5848544  
C   -0.5048400   -0.4542819    3.6114698  
C   -0.8517165   -0.7276451    2.2635546  
N    0.0000000    0.0000000    1.4700000  
C   -1.8902865   -1.5946756    1.9108239  
C   -2.5912627   -2.1969500    2.9375057  
O   -3.6148162   -3.0527051    2.6493466  
C   -2.2603868   -1.9365747    4.2886322  
O   -3.0513550   -2.6123276    5.1947621  
C   -1.2361111   -1.0811317    4.6373480  
H    1.1060808    0.8876438    4.4271209  
H   -2.1597133   -1.8070987    0.8854031  
H   -3.9636755   -3.3565188    3.4974381  
H   -2.7621927   -2.3810384    6.0827341  
H   -1.0058879   -0.9010589    5.6809233  
H    1.6167816    1.3499334    1.8205408  
