62

C    6.7222860   -0.0051545    2.7355311  
C    7.7994295   -0.0046053    3.5912351  
C    7.2768237   -0.0064649    4.9184425  
C    5.8626370   -0.0084002    4.8088966  
N    5.5595481   -0.0055925    3.4699622  
C    5.0178042   -0.0108472    5.9229169  
C    5.6113971   -0.0116567    7.1702430  
O    4.8333951   -0.0143800    8.2917240  
C    7.0206389   -0.0093802    7.3000484  
O    7.4583259   -0.0101283    8.6083960  
C    7.8547023   -0.0066923    6.2014777  
H    8.8345063   -0.0019499    3.2952609  
H    4.6324668   -0.0166578    3.0847627  
H    3.9392366   -0.0121866    5.8461506  
H    5.4391541   -0.0141930    9.0442689  
H    8.4204068   -0.0084982    8.6072629  
H    8.9305285   -0.0048086    6.3321441  
C    6.6801382   -0.0033361    1.2661369  
C    7.7093297   -0.0019931    0.3802254  
C    7.1273478   -0.0004472   -0.9411867  
C    5.6642445   -0.0009742   -0.7511369  
N    5.4589574   -0.0031399    0.6092830  
C    4.7577216    0.0005129   -1.7610467  
C    5.2563286    0.0025579   -3.1263021  
O    4.5202032    0.0039399   -4.1042685  
C    6.8020686    0.0028972   -3.3510102  
O    7.2336210    0.0043058   -4.4960086  
C    7.6791156    0.0014554   -2.1828331  
H    8.7566715   -0.0022585    0.6245376  
H    8.7481210    0.0019066   -2.3470049  
H    4.5604262   -0.0024245    1.0561484  
C    3.3041270    0.0001177   -1.5420435  
C    2.5845370   -0.0004780   -0.3695856  
C    1.2040004   -0.0000007   -0.7283590  
C    1.1422370    0.0006038   -2.1454373  
N    2.4348634    0.0026110   -2.6077469  
C   -0.0655187    0.0008799   -2.8497918  
C   -1.2321769    0.0002326   -2.1101398  
O   -2.4392822    0.0001149   -2.7472517  
C   -1.1911211   -0.0000007   -0.6955263  
O   -2.4371526   -0.0002319   -0.1032858  
C    0.0000000    0.0000000    0.0000000  
H    3.0031534   -0.0000661    0.6222578  
H    2.7054623   -0.0071098   -3.5745266  
H   -0.1193555    0.0014846   -3.9297472  
H   -3.1132992   -0.0000646   -2.0551783  
H   -2.3200279   -0.0004070    0.8516411  
C    0.0000000    0.0000000    1.4700000  
C    1.0662921    0.0000102    2.3034270  
C    0.4961870   -0.0000064    3.6418889  
C   -0.9663858    0.0000850    3.4240247  
N   -1.2632773    0.0000084    2.1528658  
C   -1.8985362    0.0000517    4.5177257  
C   -1.3925775   -0.0004564    5.7720543  
O   -2.1456383   -0.0005410    6.8851312  
C    0.0786232   -0.0009323    6.0245000  
O    0.4683759   -0.0012588    7.1921102  
C    1.0143166   -0.0008442    4.8859032  
H    2.1107198   -0.0000632    2.0421868  
H   -2.9622183    0.0003270    4.3293377  
H   -1.5042274   -0.0009692    7.6184419  
H    2.0724152   -0.0013148    5.1109744  
