60

C    0.6013334   -0.5413361   -9.6660953  
C    0.0879422    0.6898272   -9.3297410  
C    0.5252350    1.6101192  -10.3279589  
C    1.3085527    0.8767905  -11.2556266  
N    1.3359960   -0.4257594  -10.8229280  
C    1.9037338    1.4659814  -12.3751807  
C    1.7042803    2.8200718  -12.5618227  
O    2.2623911    3.4458361  -13.6388289  
C    0.9262315    3.5688878  -11.6470928  
O    0.8213094    4.9058675  -11.9708513  
C    0.3389955    2.9883479  -10.5422599  
H    1.8073974   -1.1814224  -11.2863227  
H    2.5020023    0.9126222  -13.0858654  
H    2.0030834    4.3745557  -13.5796323  
H    0.2804403    5.3389048  -11.3033610  
H   -0.2514194    3.5875334   -9.8589854  
H    0.5027718   -1.4924815   -9.1715578  
C    0.2315719   -0.7260317   -5.1498914  
C    0.4808493   -0.5092803   -6.4670685  
C   -0.5209816    0.4176777   -6.9381513  
C   -1.3804957    0.7254254   -5.7791358  
N   -0.8712826    0.0001710   -4.7267111  
C   -2.4455074    1.5658335   -5.8133232  
C   -2.7668031    2.2100925   -7.0759531  
O   -3.7062259    2.9834403   -7.2090655  
C   -1.8701922    1.8985510   -8.3164520  
O   -2.1311518    2.4348172   -9.3848993  
C   -0.7493913    0.9755929   -8.1558119  
H    1.2757007   -0.9487527   -7.0429923  
H   -3.0629963    1.7780129   -4.9515821  
H    0.7606229   -1.3553513   -4.4527891  
C    1.0965514    0.0001359   -0.8010305  
C    0.0000000    0.0000000    0.0000000  
C   -1.1546563    0.0001470   -0.8669513  
C   -0.6372014    0.0003519   -2.2486282  
N    0.7342871    0.0007337   -2.1395014  
C   -1.4147739    0.0001352   -3.3608717  
C   -2.8576049   -0.0001048   -3.1854462  
O   -3.6427779   -0.0002494   -4.1244907  
C   -3.4275840   -0.0000725   -1.7311666  
O   -4.6406831    0.0000333   -1.5710060  
C   -2.4891867   -0.0001091   -0.6116744  
H   -2.8919122   -0.0002918    0.3920866  
H    2.1388272    0.0000663   -0.5261648  
H    1.3735872   -0.0006099   -2.9130262  
C    2.3971438    2.0127888    3.1728260  
C    1.9431056    1.6308205    1.9564670  
C    0.8496017    0.7127664    2.2356185  
C    0.7794028    0.6545384    3.7115134  
N    1.6840587    1.4146091    4.2663826  
C   -0.1885723   -0.1578550    4.3957118  
C   -1.0476298   -0.8789867    3.6398520  
O   -2.0015663   -1.6796266    4.1448486  
C   -1.0022026   -0.8410666    2.1483229  
O   -1.8147390   -1.5232959    1.5241687  
C    0.0000000    0.0000000    1.4700000  
H    2.3054237    1.9346118    0.9892483  
H   -0.2170646   -0.1815267    5.4753125  
H   -2.4487139   -2.0549881    3.3649027  
H    3.2048689    2.6911772    3.3971983  
