64

C    8.4080202    0.7327830   -3.6646358  
C    8.1842024    0.0123725   -2.5142526  
C    9.3858265   -0.7015638   -2.2296595  
C   10.3158226   -0.3743565   -3.2494475  
N    9.6892573    0.4971078   -4.1053582  
C   11.6113770   -0.8986072   -3.2880824  
C   11.9748231   -1.7687911   -2.2786945  
O   13.2279803   -2.3096175   -2.2678321  
C   11.0609059   -2.1077361   -1.2526881  
O   11.5726234   -2.9867259   -0.3205579  
C    9.7825611   -1.5911407   -1.2140915  
H   10.1056552    0.9106532   -4.9199592  
H   12.3248697   -0.6533022   -4.0626500  
H   13.2722722   -2.8804545   -1.4897271  
H   10.8923971   -3.1633374    0.3364845  
H    9.1046196   -1.8692989   -0.4156550  
H    7.7546229    1.3949673   -4.2064317  
C    5.6685262    0.0007275   -2.2869310  
C    4.7390840    0.0009613   -1.2727298  
C    5.4635794   -0.0000956   -0.0440289  
C    6.8430309   -0.0006642   -0.3742393  
N    6.9321467   -0.0020936   -1.7441565  
C    7.8522877   -0.0014301    0.5933289  
C    7.4618845   -0.0013184    1.9183810  
O    8.4063109   -0.0016932    2.9038106  
C    6.0904957   -0.0011301    2.2678231  
O    5.8636451   -0.0014621    3.6286619  
C    5.0942998   -0.0006477    1.3138209  
H    8.9054288   -0.0020102    0.3481820  
H    7.9262133   -0.0018351    3.7421245  
H    4.9133160   -0.0012785    3.7785862  
H    4.0523279   -0.0006954    1.6117688  
H    5.5300621    0.0009044   -3.3545393  
C    3.2798077    0.0005856   -1.4499661  
C    2.5571132    0.0005565   -2.5996564  
C    1.1637425    0.0001547   -2.2210366  
C    1.1336959   -0.0000200   -0.7459475  
N    2.4483509   -0.0001429   -0.3402730  
C    0.0000000    0.0000000    0.0000000  
C   -1.2757370   -0.0000187   -0.6964411  
O   -2.3524597   -0.0000640   -0.1142306  
C   -1.2676502   -0.0000874   -2.2584078  
O   -2.3355774   -0.0004102   -2.8557287  
C    0.0181551    0.0001758   -2.9516297  
H    2.9547342    0.0006074   -3.5989118  
H    0.0150776    0.0003317   -4.0331632  
H    2.7563626    0.0012823    0.6148051  
C    2.5311839    2.1237619    3.0120429  
C    1.9795631    1.6616747    1.8395852  
C    0.9223175    0.7739173    2.1983588  
C    0.8753926    0.7337535    3.6154372  
N    1.8668922    1.5631002    4.0777464  
C   -0.0496243   -0.0427881    4.3197917  
C   -0.9437528   -0.7922060    3.5801400  
O   -1.8685244   -1.5680278    4.2172520  
C   -0.9124520   -0.7656372    2.1655264  
O   -1.8671164   -1.5663939    1.5732860  
C    0.0000000    0.0000000    1.4700000  
H    2.3005065    1.9304404    0.8477417  
H    2.0679347    1.7444845    5.0445261  
H   -0.0904770   -0.0778569    5.3997470  
H   -2.3849669   -2.0011402    3.5251786  
H   -1.7775064   -1.4909735    0.6183591  
H    3.3468514    2.8078103    3.1724291  
