62

C    7.9541845   -5.3081591   -6.8867546  
C    8.6065722   -4.7845838   -7.9788734  
C    8.2982532   -3.3925222   -8.0201412  
C    7.4467338   -3.1219886   -6.9184830  
N    7.2564295   -4.3071640   -6.2523288  
C    6.9437607   -1.8460484   -6.6468525  
C    7.3072539   -0.8245433   -7.5027597  
O    6.8448238    0.4408415   -7.2837307  
C    8.1556011   -1.0747010   -8.6075425  
O    8.4252907    0.0456203   -9.3661537  
C    8.6519504   -2.3332501   -8.8762751  
H    9.2273354   -5.3381345   -8.6624152  
H    6.7047773   -4.4239162   -5.4216481  
H    7.2128876    0.9915858   -7.9869190  
H    9.0040347   -0.2099502  -10.0909594  
H    9.2995942   -2.4944280   -9.7301239  
H    7.9302294   -6.3167095   -6.5109759  
C    6.1923726   -2.0934461   -4.2359240  
C    5.2191581   -1.6310079   -3.4094380  
C    4.3967567   -0.7348790   -4.1875410  
C    4.9747504   -0.7130128   -5.5448307  
N    6.0607561   -1.5568759   -5.5077372  
C    4.4832125    0.0165646   -6.5781807  
C    3.3064978    0.8350542   -6.3374477  
O    2.7884372    1.5278082   -7.2034758  
C    2.6779834    0.8273398   -4.9075121  
O    1.6873116    1.5127139   -4.6928203  
C    3.2973506   -0.0000934   -3.8752374  
H    5.0920136   -1.8881512   -2.3729410  
H    4.9222075    0.0183442   -7.5662032  
H    6.9947907   -2.7809153   -4.0228480  
C    3.3321174    0.0004714   -1.3379332  
C    2.6974186    0.0000115   -2.5332308  
C    1.2800441   -0.0002119   -2.2052838  
C    1.2395035    0.0000643   -0.7271293  
N    2.4394063    0.0005458   -0.2131034  
C    0.0000000    0.0000000    0.0000000  
C   -1.1468701    0.0000634   -0.7169542  
O   -2.3742201    0.0000072   -0.1695492  
C   -1.1388767    0.0001606   -2.2096354  
O   -2.2206229    0.0000903   -2.7970413  
C    0.1454526    0.0001815   -2.9324239  
H   -2.9844344    0.0001023   -0.9290168  
H    0.1083580    0.0003680   -4.0135594  
H    4.3940040    0.0007617   -1.1498630  
C    0.8676693    0.7151171    2.2619005  
C    0.5875920    0.4624972    3.5848544  
C   -0.5048400   -0.4542819    3.6114698  
C   -0.8517165   -0.7276451    2.2635546  
N    0.0000000    0.0000000    1.4700000  
C   -1.8902865   -1.5946756    1.9108239  
C   -2.5912627   -2.1969500    2.9375057  
O   -3.6148162   -3.0527051    2.6493466  
C   -2.2603868   -1.9365747    4.2886322  
O   -3.0513550   -2.6123276    5.1947621  
C   -1.2361111   -1.0811317    4.6373480  
H    1.1060808    0.8876438    4.4271209  
H   -2.1597133   -1.8070987    0.8854031  
H   -3.9636755   -3.3565188    3.4974381  
H   -2.7621927   -2.3810384    6.0827341  
H   -1.0058879   -0.9010589    5.6809233  
H    1.6167816    1.3499334    1.8205408  
