62

C    3.9406630   -3.5906626   -5.6210734  
C    3.1304806   -2.9389012   -6.5217836  
C    3.5551250   -3.3333827   -7.8251109  
C    4.6369985   -4.2348441   -7.6552809  
N    4.8463327   -4.3674107   -6.3050134  
C    5.3045378   -4.8265167   -8.7318990  
C    4.8718553   -4.5024966  -10.0031078  
O    5.4880749   -5.0519513  -11.0900246  
C    3.7943734   -3.6048326  -10.1929713  
O    3.4825053   -3.3832155  -11.5184772  
C    3.1355421   -3.0205495   -9.1313302  
H    5.5434244   -4.9520317   -5.8804395  
H    6.1298725   -5.5142357   -8.6091483  
H    5.0374443   -4.6975069  -11.8675635  
H    2.7452849   -2.7663591  -11.5584496  
H    2.3136679   -2.3365501   -9.3078127  
H    3.9450785   -3.5618099   -4.5449199  
C    2.0407262   -2.0139650   -6.1785234  
C    1.6287193   -1.6317255   -4.9473766  
C    0.5264174   -0.7135553   -5.1890257  
C    0.4056591   -0.6555643   -6.6616555  
N    1.2906474   -1.4158625   -7.2470881  
C   -0.5850920    0.1568584   -7.3123990  
C   -1.4176225    0.8782446   -6.5276509  
O   -2.3882003    1.6789419   -6.9997775  
C   -1.3210821    0.8405677   -5.0385502  
O   -2.1116404    1.5230224   -4.3870184  
C   -0.2963293   -0.0005341   -4.3948471  
H    2.0239475   -1.9354085   -3.9930984  
H   -0.6505845    0.1803534   -8.3903915  
H   -2.8082865    2.0545008   -6.2050221  
C    3.1301146   -0.0010313   -1.7028256  
C    2.5367765   -0.0002766   -0.4864669  
C    1.1089901    0.0001027   -0.7656184  
C    1.0177865   -0.0004150   -2.2415133  
N    2.1993571   -0.0011612   -2.7963824  
C   -0.2459219   -0.0002879   -2.9257116  
C   -1.3675326   -0.0000606   -2.1698520  
O   -2.6129318    0.0000865   -2.6748483  
C   -1.3083588    0.0000910   -0.6783229  
O   -2.3693264    0.0004206   -0.0541685  
C    0.0000000    0.0000000    0.0000000  
H    3.0096016   -0.0001007    0.4807518  
H   -3.1967444    0.0002093   -1.8949026  
H    4.1849275   -0.0015114   -1.9271979  
C    2.5311839    2.1237619    3.0120429  
C    1.9795631    1.6616747    1.8395852  
C    0.9223175    0.7739173    2.1983588  
C    0.8753926    0.7337535    3.6154372  
N    1.8668922    1.5631002    4.0777464  
C   -0.0496243   -0.0427881    4.3197917  
C   -0.9437528   -0.7922060    3.5801400  
O   -1.8685244   -1.5680278    4.2172520  
C   -0.9124520   -0.7656372    2.1655264  
O   -1.8671164   -1.5663939    1.5732860  
C    0.0000000    0.0000000    1.4700000  
H    2.3005065    1.9304404    0.8477417  
H    2.0679347    1.7444845    5.0445261  
H   -0.0904770   -0.0778569    5.3997470  
H   -2.3849669   -2.0011402    3.5251786  
H   -1.7775064   -1.4909735    0.6183591  
H    3.3468514    2.8078103    3.1724291  
