62

C   -4.0061455    2.1257326    1.7104660  
C   -4.5720251    1.6276918    2.8612059  
C   -5.6254040    0.7525965    2.4622058  
C   -5.6550145    0.7564136    1.0440964  
N   -4.6600969    1.6018912    0.6199220  
C   -6.5714812    0.0025835    0.3047596  
C   -7.4743074   -0.7693936    1.0098358  
O   -8.3908811   -1.5251486    0.3377179  
C   -7.4607683   -0.7861464    2.4248814  
O   -8.4227890   -1.6042909    2.9803072  
C   -6.5571113   -0.0425164    3.1549118  
H   -4.2642458    1.8666706    3.8647766  
H   -4.4341948    1.7975192   -0.3385554  
H   -8.9159796   -1.9790315    1.0096751  
H   -8.3451391   -1.5582092    3.9381440  
H   -6.5709504   -0.0754076    4.2380574  
H   -3.1887246    2.8142881    1.5813451  
C   -3.3460096   -0.0004265   -2.7913646  
C   -4.0351699    0.0002919   -1.6007661  
C   -5.4244872    0.0000938   -1.9238719  
C   -5.5227199   -0.0010493   -3.3388900  
N   -4.2424270    0.0006120   -3.8343331  
C   -6.7482122   -0.0018428   -4.0119103  
C   -7.8954376   -0.0017826   -3.2424620  
O   -9.1185479   -0.0028873   -3.8482786  
C   -7.8179688   -0.0002749   -1.8293755  
O   -9.0483374    0.0000073   -1.2052459  
C   -6.6093335    0.0007818   -1.1647519  
H   -3.5911529    0.0019911   -0.6200322  
H   -3.9968105   -0.0102476   -4.8077477  
H   -6.8298404   -0.0025710   -5.0901211  
H   -9.7745212   -0.0023340   -3.1390794  
H   -8.9066623    0.0010224   -0.2536522  
C    0.0000000    0.0000000    0.0000000  
C    1.0662919   -0.0000103   -0.8334269  
C    0.4961869    0.0000064   -2.1718889  
C   -0.9663859   -0.0000850   -1.9540246  
N   -1.2632774   -0.0000084   -0.6828657  
C   -1.8985363   -0.0000518   -3.0477257  
C   -1.3925778    0.0004564   -4.3020545  
O   -2.1456384    0.0005409   -5.4151311  
C    0.0786230    0.0009323   -4.5544998  
O    0.4683758    0.0012588   -5.7221098  
C    1.0143164    0.0008442   -3.4159030  
H    2.1107195    0.0000633   -0.5721867  
H   -1.5042275    0.0009691   -6.1484418  
H    2.0724152    0.0013148   -3.6409744  
C    3.1301144    0.0010313    3.1728260  
C    2.5367765    0.0002768    1.9564670  
C    1.1089900   -0.0001027    2.2356185  
C    1.0177864    0.0004150    3.7115134  
N    2.1993570    0.0011613    4.2663826  
C   -0.2459220    0.0002880    4.3957118  
C   -1.3675327    0.0000606    3.6398520  
O   -2.6129319   -0.0000866    4.1448486  
C   -1.3083589   -0.0000910    2.1483229  
O   -2.3693264   -0.0004206    1.5241687  
C    0.0000000    0.0000000    1.4700000  
H    3.0096015    0.0001008    0.9892483  
H   -0.2829642    0.0004689    5.4753125  
H   -3.1967446   -0.0002093    3.3649027  
H    4.1849273    0.0015113    3.3971983  
