64

C    4.2446325   -0.3851708   -8.9923150  
C    4.9266590   -0.2390267  -10.1780425  
C    4.8283346    1.1349589  -10.5483068  
C    4.0684818    1.7839442   -9.5416455  
N    3.7283424    0.8317723   -8.6130481  
C    3.7721643    3.1497761   -9.5802299  
C    4.2519065    3.8737073  -10.6544495  
O    3.9921096    5.2108360  -10.7416606  
C    5.0115503    3.2440367  -11.6689798  
O    5.4169936    4.1000652  -12.6720628  
C    5.3040279    1.8965970  -11.6317032  
H    5.4318529   -1.0261428  -10.7111665  
H    3.1934274    3.6503365   -8.8162243  
H    4.4117739    5.5179930  -11.5557857  
H    5.9236233    3.5957665  -13.3159684  
H    5.8880137    1.4420493  -12.4234260  
H    4.0843943   -1.2614779   -8.3878580  
C    4.1131879   -0.7163736   -4.4363519  
C    4.3031384   -0.4649737   -5.7754499  
C    3.2858505    0.4513937   -6.1754452  
C    2.4982914    0.7257746   -5.0281035  
N    3.0267438   -0.0008951   -3.9901699  
C    1.4016874    1.5927337   -5.0532021  
C    1.0947081    2.1938891   -6.2584217  
O    0.0343286    3.0495236   -6.3390334  
C    1.8683334    1.9324878   -7.4142717  
O    1.4355138    2.6071913   -8.5371189  
C    2.9501322    1.0771144   -7.3903077  
H    5.0787574   -0.8906486   -6.3888093  
H    0.7973483    1.8059292   -4.1822694  
H   -0.0029822    3.3524952   -7.2555926  
H    2.0113206    2.3752539   -9.2721391  
H    4.6658612   -1.3505491   -3.7645387  
C    3.3003547    0.0005277   -1.4738986  
C    2.5232816    0.0003497   -2.6090746  
C    1.1623203   -0.0001319   -2.1820102  
C    1.1711884    0.0000584   -0.7636141  
N    2.4852301   -0.0014919   -0.3662359  
C    0.0000000    0.0000000    0.0000000  
C   -1.2020383    0.0000520   -0.6806479  
O   -2.3759248    0.0003493    0.0157745  
C   -1.2314655   -0.0005115   -2.0955511  
O   -2.5054388   -0.0008040   -2.6250184  
C   -0.0764513   -0.0007274   -2.8495195  
H    2.8036266    0.0088183    0.5858662  
H   -3.0835639    0.0000346   -0.6418822  
H   -2.4360043   -0.0011529   -3.5845924  
H   -0.1304091   -0.0013423   -3.9319089  
H    4.3715553    0.0004897   -1.3667133  
C    2.3971438    2.0127888    3.1728260  
C    1.9431056    1.6308205    1.9564670  
C    0.8496017    0.7127664    2.2356185  
C    0.7794028    0.6545384    3.7115134  
N    1.6840587    1.4146091    4.2663826  
C   -0.1885723   -0.1578550    4.3957118  
C   -1.0476298   -0.8789867    3.6398520  
O   -2.0015663   -1.6796266    4.1448486  
C   -1.0022026   -0.8410666    2.1483229  
O   -1.8147390   -1.5232959    1.5241687  
C    0.0000000    0.0000000    1.4700000  
H    2.3054237    1.9346118    0.9892483  
H   -0.2170646   -0.1815267    5.4753125  
H   -2.4487139   -2.0549881    3.3649027  
H    3.2048689    2.6911772    3.3971983  
