60

C    3.4455400   -0.7080382   -7.3496443  
C    4.7077071   -0.4579812   -7.8363411  
C    4.5612371    0.4502680   -8.9264007  
C    3.1752753    0.7213101   -9.0589637  
N    2.5263060    0.0005363   -8.0873975  
C    2.6627064    1.5803394  -10.0357597  
C    3.5657358    2.1768522  -10.8941823  
O    3.1193076    3.0247044  -11.8662226  
C    4.9523388    1.9186719  -10.7780262  
O    5.7220879    2.5879955  -11.7069148  
C    5.4586825    1.0711202   -9.8148033  
H    5.6214643   -0.8793237   -7.4535731  
H    1.6074659    1.7909538  -10.1421142  
H    3.9016562    3.3255543  -12.3465190  
H    6.6447152    2.3587084  -11.5592983  
H    6.5256520    0.8925452   -9.7502701  
H    3.1281464   -1.3368842   -6.5355362  
C    0.0950448    0.0004350   -4.4015596  
C    1.1192393    0.0002600   -5.2932436  
C    0.5298386    0.0006955   -6.6113640  
C   -0.9321731    0.0011709   -6.4130916  
N   -1.1298097    0.0005870   -5.0515376  
C   -1.8443588    0.0020607   -7.4178909  
C   -1.3534348    0.0023591   -8.7859296  
O   -2.0950461    0.0030854   -9.7597423  
C    0.1910171    0.0016134   -9.0193235  
O    0.6161265    0.0015496  -10.1667301  
C    1.0746176    0.0009559   -7.8560944  
H    2.1679381   -0.0003120   -5.0548232  
H   -2.9125319    0.0025267   -7.2508092  
H   -2.0258137    0.0022747   -4.5996293  
C    3.3321173    0.0004714   -1.3379336  
C    2.6974184    0.0000115   -2.5332313  
C    1.2800437   -0.0002119   -2.2052840  
C    1.2395034    0.0000643   -0.7271298  
N    2.4394063    0.0005459   -0.2131037  
C    0.0000000    0.0000000    0.0000000  
C   -1.1468702    0.0000634   -0.7169544  
O   -2.3742202    0.0000072   -0.1695489  
C   -1.1388770    0.0001606   -2.2096356  
O   -2.2206231    0.0000903   -2.7970412  
C    0.1454523    0.0001814   -2.9324241  
H    3.1367986   -0.0000653   -3.5160949  
H   -2.9844345    0.0001025   -0.9290168  
H    4.3940040    0.0007618   -1.1498638  
C    2.4951002    2.0940188    2.9809380  
C    1.9440701    1.6314916    1.8291961  
C    0.8759964    0.7350050    2.2038498  
C    0.8497377    0.7130254    3.6788474  
N    1.8560616    1.5571714    4.0882609  
C   -0.0205033   -0.0168748    4.4215661  
C   -0.9962600   -0.8356168    3.7214979  
O   -1.8224391   -1.5286685    4.3006425  
C   -0.9864710   -0.8277881    2.1595606  
O   -1.8030528   -1.5133726    1.5592035  
C    0.0000000    0.0000000    1.4700000  
H    2.2509283    1.8888011    0.8310761  
H   -0.0229599   -0.0187323    5.5027230  
H    3.3143982    2.7817323    3.1139444  
H    2.0889452    1.7545833    5.0442112  
