60

C    9.8214428   -2.1200119    3.7157407  
C   11.0703044   -1.6214382    3.4255050  
C   10.9204771   -0.7479330    2.3078552  
C    9.5462002   -0.7532249    1.9567669  
N    8.9076545   -1.5980142    2.8303841  
C    9.0339157   -0.0011769    0.8952693  
C    9.9251414    0.7705014    0.1752647  
O    9.4783406    1.5245420   -0.8710649  
C   11.3000766    0.7887074    0.5099884  
O   12.0589852    1.6063342   -0.3017298  
C   11.8062024    0.0468357    1.5568840  
H   11.9778535   -1.8590509    3.9536046  
H    7.9230615   -1.7943622    2.8328270  
H   10.2517101    1.9785173   -1.2303283  
H   12.9741503    1.5613133   -0.0083876  
H   12.8641300    0.0808120    1.7895020  
H    9.5104512   -2.8077793    4.4833457  
C    6.5597224   -0.0008210    1.3835014  
C    7.6114515   -0.0009111    0.5244666  
C    7.0637934   -0.0009868   -0.8115372  
C    5.5962696   -0.0009035   -0.6593386  
N    5.3559137   -0.0012035    0.6953271  
C    4.7161325   -0.0005435   -1.6923264  
C    5.2498348   -0.0004420   -3.0442500  
O    4.5392134   -0.0001857   -4.0409037  
C    6.8008623   -0.0007794   -3.2289604  
O    7.2618442   -0.0010041   -4.3624314  
C    7.6474457   -0.0008759   -2.0385199  
H    8.7203338   -0.0009043   -2.1750270  
H    6.5627896   -0.0007238    2.4614069  
H    4.4461411    0.0003272    1.1188348  
C    3.2573665   -0.0002920   -1.5109385  
C    2.5379463   -0.0001709   -0.3591964  
C    1.1435038    0.0000331   -0.7338500  
C    1.1092599   -0.0000083   -2.2088477  
N    2.4227553    0.0001909   -2.6182613  
C   -0.0265539   -0.0002524   -2.9515660  
C   -1.3003040   -0.0002640   -2.2514977  
O   -2.3786790   -0.0004133   -2.8306421  
C   -1.2877727    0.0000311   -0.6895603  
O   -2.3539959    0.0003306   -0.0892030  
C    0.0000000    0.0000000    0.0000000  
H    2.9384091   -0.0000367    0.6389234  
H   -0.0296303   -0.0004086   -4.0327229  
H    2.7280482   -0.0013407   -3.5742119  
C    0.8400945    0.7047457    2.2710304  
C    0.0000000    0.0000000    1.4700000  
C   -0.8844236   -0.7423113    2.3369512  
C   -0.4878984   -0.4098547    3.7186280  
N    0.5629682    0.4714286    3.6095011  
C   -1.0836927   -0.9095027    4.8308716  
C   -2.1891196   -1.8367527    4.6554461  
O   -2.7906899   -2.3413415    5.5944904  
C   -2.6257283   -2.2031529    3.2011665  
O   -3.5549479   -2.9829990    3.0410059  
C   -1.9068976   -1.5999348    2.0816745  
H   -0.7774656   -0.6525820    5.8354244  
H   -2.2155208   -1.8586617    1.0779135  
H    1.6384792    1.3747609    1.9961646  
H    1.0518368    0.8833920    4.3830260  
