60

C    1.0343283   -0.0598044   -8.7440205  
C    2.1248517   -0.7158457   -9.2663583  
C    2.2285391   -0.3270083  -10.6348075  
C    1.1651811    0.5755796  -10.8927444  
N    0.4583587    0.7142167   -9.7240710  
C    0.9584074    1.1626982  -12.1446738  
C    1.8413477    0.8328827  -13.1545333  
O    1.6858684    1.3777202  -14.3963021  
C    2.9082690   -0.0659954  -12.9168072  
O    3.7003267   -0.2936081  -14.0232344  
C    3.1127005   -0.6457887  -11.6820712  
H    2.7660157   -1.3923871   -8.7276622  
H   -0.3466389    1.3009629   -9.5988188  
H    0.1497876    1.8512464  -12.3477455  
H    2.3976129    1.0196667  -14.9426385  
H    4.3961166   -0.9108956  -13.7773968  
H    3.9385606   -1.3308547  -11.5300249  
C    2.0485057   -2.1404841   -4.9352597  
C    2.0920575   -1.7327544   -6.2250030  
C    0.9665701   -0.8221932   -6.3687264  
C    0.3351124   -0.7962138   -5.0318758  
N    0.9649966   -1.5669927   -4.1874018  
C   -0.8287665    0.0000939   -4.7555305  
C   -1.3384137    0.7372507   -5.7685430  
O   -2.4204377    1.5257894   -5.6524722  
C   -0.7235766    0.7324748   -7.1287316  
O   -1.2406167    1.4276566   -8.0031531  
C    0.4698625   -0.0926717   -7.3871127  
H    2.8005017   -2.0149674   -6.9849629  
H   -2.5373015    1.9181276   -6.5365349  
H    2.7147576   -2.8226586   -4.4315535  
C    1.0672569   -0.0000698   -0.8321910  
C    0.0000000    0.0000000    0.0000000  
C   -1.1601223   -0.0000736   -0.8778472  
C   -0.5938729   -0.0000768   -2.2438435  
N    0.7113367   -0.0001553   -2.2234123  
C   -1.4286985   -0.0001877   -3.4135239  
C   -2.7683113   -0.0006798   -3.2270524  
O   -3.6653902   -0.0008302   -4.2276970  
C   -3.3702024   -0.0010610   -1.8610774  
O   -4.5974910   -0.0013779   -1.7662963  
C   -2.4926825   -0.0008943   -0.6770658  
H   -4.5324245   -0.0012258   -3.7833954  
H   -2.9677772   -0.0012974    0.2947961  
H    2.1134391   -0.0000547   -0.5705119  
C    2.4951002    2.0940188    2.9809380  
C    1.9440701    1.6314916    1.8291961  
C    0.8759964    0.7350050    2.2038498  
C    0.8497377    0.7130254    3.6788474  
N    1.8560616    1.5571714    4.0882609  
C   -0.0205033   -0.0168748    4.4215661  
C   -0.9962600   -0.8356168    3.7214979  
O   -1.8224391   -1.5286685    4.3006425  
C   -0.9864710   -0.8277881    2.1595606  
O   -1.8030528   -1.5133726    1.5592035  
C    0.0000000    0.0000000    1.4700000  
H    2.2509283    1.8888011    0.8310761  
H   -0.0229599   -0.0187323    5.5027230  
H    3.3143982    2.7817323    3.1139444  
H    2.0889452    1.7545833    5.0442112  
