62

C    2.3028659   -2.1229295   -5.9144804  
C    1.6515867   -1.6243323   -7.0188822  
C    0.6310826   -0.7498526   -6.5409108  
C    0.7086122   -0.7546012   -5.1246156  
N    1.7329559   -1.6000178   -4.7773286  
C   -0.1496426   -0.0015617   -4.3176960  
C   -1.1033424    0.7705682   -4.9520852  
O   -1.9667793    1.5255763   -4.2121832  
C   -1.1966698    0.7882450   -6.3641032  
O   -2.1981108    1.6064249   -6.8447691  
C   -0.3504881    0.0453951   -7.1607690  
H    1.8827960   -1.8625549   -8.0429840  
H    2.0306265   -1.7961922   -3.8387715  
H   -2.5412366    1.9797182   -4.8422768  
H   -2.1929774    1.5609919   -7.8057654  
H   -0.4460651    0.0789854   -8.2397568  
H    3.1279002   -2.8112923   -5.8478996  
C    3.3003539    0.0005272   -1.4738994  
C    2.5232807    0.0003493   -2.6090753  
C    1.1623195   -0.0001323   -2.1820106  
C    1.1711880    0.0000582   -0.7636143  
N    2.4852298   -0.0014922   -0.3662365  
C    0.0000000    0.0000000    0.0000000  
C   -1.2020387    0.0000519   -0.6806475  
O   -2.3759248    0.0003494    0.0157747  
C   -1.2314661   -0.0005114   -2.0955507  
O   -2.5054400   -0.0008040   -2.6250174  
C   -0.0764524   -0.0007276   -2.8495195  
H    2.8919944   -0.0005625   -3.6205309  
H    2.8036264    0.0088180    0.5858657  
H   -3.0835644    0.0000351   -0.6418811  
H   -2.4360058   -0.0011530   -3.5845915  
C    5.6726949   -0.0000691   -2.3740998  
C    6.9488224   -0.0023549   -1.9098062  
C    6.8722127   -0.0037711   -0.4679447  
C    5.4365528   -0.0021405   -0.1278427  
N    4.7630501    0.0004753   -1.3275413  
C    4.9461563   -0.0031934    1.1375485  
C    5.8957035   -0.0059025    2.2379521  
O    5.5533686   -0.0069669    3.4131571  
C    7.4209172   -0.0074131    1.9010167  
O    8.2297938   -0.0093882    2.8191536  
C    7.8277292   -0.0063490    0.4980359  
H    7.8418969   -0.0027954   -2.5089990  
H    3.8892555   -0.0020915    1.3652963  
H    8.8856423   -0.0076122    0.2732176  
H    5.3202440    0.0014804   -3.3927585  
C    2.3971438    2.0127888    3.1728260  
C    1.9431056    1.6308205    1.9564670  
C    0.8496017    0.7127664    2.2356185  
C    0.7794028    0.6545384    3.7115134  
N    1.6840587    1.4146091    4.2663826  
C   -0.1885723   -0.1578550    4.3957118  
C   -1.0476298   -0.8789867    3.6398520  
O   -2.0015663   -1.6796266    4.1448486  
C   -1.0022026   -0.8410666    2.1483229  
O   -1.8147390   -1.5232959    1.5241687  
C    0.0000000    0.0000000    1.4700000  
H    2.3054237    1.9346118    0.9892483  
H   -0.2170646   -0.1815267    5.4753125  
H   -2.4487139   -2.0549881    3.3649027  
H    3.2048689    2.6911772    3.3971983  
