60

C    0.4609679    0.7087223   -7.2702517  
C   -0.7199005    0.4581736   -7.9299817  
C   -0.4210263   -0.4505842   -8.9880143  
C    0.9698118   -0.7214156   -8.9236234  
N    1.4751621   -0.0000331   -7.8706057  
C    1.6151424   -1.5808250   -9.8179128  
C    0.8422975   -2.1779407  -10.7948159  
O    1.4214758   -3.0261839  -11.6937312  
C   -0.5468599   -1.9199796  -10.8755342  
O   -1.1778092   -2.5899149  -11.9033626  
C   -1.1841116   -1.0720531   -9.9937980  
H   -1.6785654    0.8795230   -7.6801428  
H    2.6748607   -1.7912809   -9.7742520  
H    0.7147332   -3.3274265  -12.2794203  
H   -2.1120632   -2.3607388  -11.8874773  
H   -2.2495399   -0.8936592  -10.0804977  
H    0.6602786    1.3380332   -6.4198389  
C    3.2973507   -0.0000930   -3.8752373  
C    4.6090968    0.0000004   -4.2265165  
C    4.6584750   -0.0001366   -5.6695683  
C    3.2579285   -0.0002894   -6.1335298  
N    2.4824025   -0.0006537   -4.9971105  
C    2.8797120   -0.0000493   -7.4368546  
C    3.9215751    0.0001631   -8.4502930  
O    3.6829943    0.0003255   -9.6508680  
C    5.4116105    0.0000756   -7.9816786  
O    6.2974484   -0.0000538   -8.8258060  
C    5.6945666    0.0000909   -6.5485740  
H    5.4465358   -0.0000338   -3.5517507  
H    6.7288538    0.0002355   -6.2323876  
H    1.4789637    0.0007244   -4.9846260  
C    3.3321175    0.0004715   -1.3379331  
C    2.6974186    0.0000117   -2.5332308  
C    1.2800441   -0.0002117   -2.2052838  
C    1.2395036    0.0000644   -0.7271292  
N    2.4394065    0.0005460   -0.2131033  
C    0.0000000    0.0000000    0.0000000  
C   -1.1468701    0.0000635   -0.7169542  
O   -2.3742199    0.0000073   -0.1695491  
C   -1.1388766    0.0001607   -2.2096354  
O   -2.2206227    0.0000905   -2.7970412  
C    0.1454526    0.0001817   -2.9324239  
H   -2.9844344    0.0001026   -0.9290168  
H    0.1083579    0.0003683   -4.0135594  
H    4.3940038    0.0007619   -1.1498630  
C    0.0000000    0.0000000    1.4700000  
C    1.0662921    0.0000102    2.3034270  
C    0.4961870   -0.0000064    3.6418889  
C   -0.9663858    0.0000850    3.4240247  
N   -1.2632773    0.0000084    2.1528658  
C   -1.8985362    0.0000517    4.5177257  
C   -1.3925775   -0.0004564    5.7720543  
O   -2.1456383   -0.0005410    6.8851312  
C    0.0786232   -0.0009323    6.0245000  
O    0.4683759   -0.0012588    7.1921102  
C    1.0143166   -0.0008442    4.8859032  
H    2.1107198   -0.0000632    2.0421868  
H   -2.9622183    0.0003270    4.3293377  
H   -1.5042274   -0.0009692    7.6184419  
H    2.0724152   -0.0013148    5.1109744  
