62

C   -0.6141450    0.6530451   -9.3088764  
C    0.4651150   -0.1853907   -9.4660073  
C    0.8230257   -0.1491429  -10.8462920  
C   -0.0807792    0.7362388  -11.4875113  
N   -0.9412811    1.2042024  -10.5256578  
C   -0.0238382    1.0144964  -12.8564960  
C    0.9636639    0.3877803  -13.5915085  
O    1.0646986    0.6239907  -14.9320348  
C    1.8745260   -0.4991762  -12.9698527  
O    2.7991602   -1.0440902  -13.8367227  
C    1.8187732   -0.7743611  -11.6194121  
H    0.9357653   -0.7541126   -8.6824023  
H   -1.6860887    1.8589750  -10.6822331  
H   -0.7098074    1.6882058  -13.3512342  
H    1.8088406    0.0946793  -15.2472295  
H    3.3755956   -1.6305187  -13.3372954  
H    2.5299975   -1.4583181  -11.1712589  
C   -0.2208273   -0.6524176   -5.1346207  
C   -1.2456329    0.0471727   -4.5828766  
C   -1.8635339    0.7999333   -5.6488903  
C   -1.1093175    0.4792270   -6.8757135  
N   -0.1268905   -0.4059225   -6.4959280  
C   -1.3831922    0.9908180   -8.1024866  
C   -2.4948515    1.9194406   -8.2225246  
O   -2.8209717    2.4343802   -9.2840254  
C   -3.3072320    2.2735255   -6.9362639  
O   -4.2451134    3.0544074   -7.0249356  
C   -2.9168440    1.6579630   -5.6703519  
H   -3.4845596    1.9082094   -4.7844627  
H    0.4738208   -1.3271520   -4.6612425  
H    0.5523183   -0.8120321   -7.1130151  
C    1.1243410    0.0099923   -0.7919003  
C    0.7474076    0.0234544   -2.1148543  
C   -0.6787381    0.0234490   -2.1414700  
C   -1.1201745    0.0098592   -0.7935546  
N    0.0000000    0.0000000    0.0000000  
C   -2.4730816    0.0063709   -0.4408240  
C   -3.3971958    0.0170982   -1.4675058  
O   -4.7313517    0.0146259   -1.1793471  
C   -2.9763648    0.0303504   -2.8186324  
O   -4.0166480    0.0395118   -3.7247624  
C   -1.6418562    0.0335260   -3.1673481  
H    1.4178717    0.0310972   -2.9571209  
H   -2.8160166   -0.0041111    0.5845966  
H   -5.1938818    0.0230867   -2.0274384  
H   -3.6464675    0.0482293   -4.6127343  
H    2.1062467    0.0052819   -0.3505407  
C    2.3971438    2.0127888    3.1728260  
C    1.9431056    1.6308205    1.9564670  
C    0.8496017    0.7127664    2.2356185  
C    0.7794028    0.6545384    3.7115134  
N    1.6840587    1.4146091    4.2663826  
C   -0.1885723   -0.1578550    4.3957118  
C   -1.0476298   -0.8789867    3.6398520  
O   -2.0015663   -1.6796266    4.1448486  
C   -1.0022026   -0.8410666    2.1483229  
O   -1.8147390   -1.5232959    1.5241687  
C    0.0000000    0.0000000    1.4700000  
H    2.3054237    1.9346118    0.9892483  
H   -0.2170646   -0.1815267    5.4753125  
H   -2.4487139   -2.0549881    3.3649027  
H    3.2048689    2.6911772    3.3971983  
