62

C   -0.0323591   -0.0097878   -8.8431965  
C    0.7693297   -0.6844353   -9.7346065  
C    0.3330964   -0.3223685  -11.0435026  
C   -0.7467677    0.5838163  -10.8865033  
N   -0.9438115    0.7502510   -9.5381382  
C   -1.4237405    1.1488513  -11.9715069  
C   -1.0027335    0.7928436  -13.2380735  
O   -1.6285021    1.3153805  -14.3327801  
C    0.0725598   -0.1100428  -13.4151515  
O    0.3723152   -0.3649529  -14.7374650  
C    0.7406935   -0.6680596  -12.3452271  
H    1.5693399   -1.3558811   -9.4735760  
H   -1.6367545    1.3457939   -9.1220380  
H   -2.2476039    1.8400034  -11.8585447  
H   -1.1850943    0.9412889  -15.1052500  
H    1.1088504   -0.9831330  -14.7686574  
H    1.5606118   -1.3568342  -12.5119649  
C    2.4782024   -2.1081880   -5.8783640  
C    1.9212515   -1.6438944   -7.0265418  
C    0.8545986   -0.7486155   -6.6450159  
C    0.8356633   -0.7292246   -5.1698698  
N    1.8439056   -1.5742007   -4.7669390  
C   -0.0307352   -0.0004646   -4.4215603  
C   -1.0100799    0.8193479   -5.1153371  
O   -1.8333384    1.5114170   -4.5308826  
C   -1.0083719    0.8138718   -6.6773144  
O   -1.8284253    1.4999043   -7.2724040  
C   -0.0251095   -0.0124255   -7.3732162  
H    2.2230620   -1.8995544   -8.0266228  
H    3.2985202   -2.7956869   -5.7506349  
H    2.0835085   -1.7709326   -3.8125105  
C    3.2573670   -0.0002920   -1.5109380  
C    2.5379468   -0.0001709   -0.3591961  
C    1.1435043    0.0000332   -0.7338500  
C    1.1092609   -0.0000082   -2.2088477  
N    2.4227562    0.0001909   -2.6182613  
C   -0.0265532   -0.0002522   -2.9515663  
C   -1.3003035   -0.0002639   -2.2514981  
O   -2.3786784   -0.0004131   -2.8306429  
C   -1.2877725    0.0000312   -0.6895608  
O   -2.3539958    0.0003307   -0.0892036  
C    0.0000000    0.0000000    0.0000000  
H    2.9384091   -0.0000369    0.6389239  
H    4.3270394   -0.0004765   -1.6439446  
H    2.7280494   -0.0013406   -3.5742113  
C    0.0000000    0.0000000    1.4700000  
C    1.0521667    0.0011902    2.3562342  
C    0.4917218    0.0011957    3.6679131  
C   -0.9187428   -0.0003148    3.5178682  
N   -1.1833171    0.0009411    2.1707914  
C   -1.7951701   -0.0010350    4.6072090  
C   -1.2375837   -0.0005224    5.8710424  
O   -2.0474215   -0.0015360    6.9697579  
C    0.1673580    0.0013566    6.0411963  
O    0.5673524    0.0020687    7.3615553  
C    1.0325770    0.0023412    4.9669890  
H    2.0953057    0.0030649    2.0900562  
H   -2.0989778   -0.0102372    1.7591824  
H   -2.8710934   -0.0020419    4.4995513  
H   -1.4634884   -0.0006497    7.7393593  
H    1.5290710    0.0033153    7.3880045  
H    2.1042148    0.0039609    5.1284455  
