62

C    2.6170209   -1.9850034   -7.6103051  
C    3.7054689   -2.8236556   -7.6767162  
C    4.1677554   -2.7998041   -9.0259094  
C    3.3152145   -1.9214124   -9.7425182  
N    2.3835645   -1.4455135   -8.8536058  
C    3.4764493   -1.6557922  -11.1056902  
C    4.5174653   -2.2881928  -11.7572534  
O    4.7205079   -2.0643052  -13.0882903  
C    5.3785367   -3.1683323  -11.0595950  
O    6.3669072   -3.7202266  -11.8481888  
C    5.2199023   -3.4310504   -9.7148508  
H    4.1151168   -3.3845647   -6.8541818  
H    1.6526293   -0.7930514   -9.0727130  
H    2.8300043   -0.9874633  -11.6576394  
H    5.4867661   -2.5956852  -13.3407761  
H    6.9037455   -4.3013577  -11.3007445  
H    5.8950920   -4.1100308   -9.2073239  
C    1.8844583   -2.1024763   -5.2000027  
C    1.7579316   -1.6369210   -6.4693819  
C    0.6249274   -0.7419055   -6.4785612  
C    0.0979867   -0.7240443   -5.1005903  
N    0.9053926   -1.5695642   -4.3752752  
C   -0.9736297    0.0040464   -4.6965763  
C   -1.6535190    0.8247014   -5.6849139  
O   -2.6280813    1.5162659   -5.4198317  
C   -1.1127789    0.8208472   -7.1503119  
O   -1.6771969    1.5075996   -7.9911826  
C    0.0504536   -0.0048497   -7.4649009  
H    0.4187481   -0.0017853   -8.4817951  
H    2.6104398   -2.7902093   -4.7976810  
H    0.8008847   -1.7673169   -3.3970017  
C    1.1188642    0.0008222   -0.8003808  
C    0.0000000    0.0000000    0.0000000  
C   -1.1323862    0.0008899   -0.8673528  
C   -0.6382663    0.0019679   -2.1969280  
N    0.7324016    0.0038481   -2.1202242  
C   -1.4770914    0.0027318   -3.3154808  
C   -2.8395473    0.0020945   -3.0876857  
O   -3.7039201    0.0024425   -4.1440349  
C   -3.3517868    0.0013931   -1.7684331  
O   -4.7300497    0.0012366   -1.7073121  
C   -2.5248543    0.0009123   -0.6644817  
H    1.3576314   -0.0056167   -2.9057046  
H   -4.5940032    0.0021826   -3.7685128  
H   -4.9934602    0.0007259   -0.7819913  
H   -2.9462577    0.0005603    0.3339659  
H    2.1619895    0.0009355   -0.5342068  
C    0.8400945    0.7047457    2.2710304  
C    0.0000000    0.0000000    1.4700000  
C   -0.8844236   -0.7423113    2.3369512  
C   -0.4878984   -0.4098547    3.7186280  
N    0.5629682    0.4714286    3.6095011  
C   -1.0836927   -0.9095027    4.8308716  
C   -2.1891196   -1.8367527    4.6554461  
O   -2.7906899   -2.3413415    5.5944904  
C   -2.6257283   -2.2031529    3.2011665  
O   -3.5549479   -2.9829990    3.0410059  
C   -1.9068976   -1.5999348    2.0816745  
H   -0.7774656   -0.6525820    5.8354244  
H   -2.2155208   -1.8586617    1.0779135  
H    1.6384792    1.3747609    1.9961646  
H    1.0518368    0.8833920    4.3830260  
