62

C    2.3028659   -2.1229295   -5.9144804  
C    1.6515867   -1.6243323   -7.0188822  
C    0.6310826   -0.7498526   -6.5409108  
C    0.7086122   -0.7546012   -5.1246156  
N    1.7329559   -1.6000178   -4.7773286  
C   -0.1496426   -0.0015617   -4.3176960  
C   -1.1033424    0.7705682   -4.9520852  
O   -1.9667793    1.5255763   -4.2121832  
C   -1.1966698    0.7882450   -6.3641032  
O   -2.1981108    1.6064249   -6.8447691  
C   -0.3504881    0.0453951   -7.1607690  
H    1.8827960   -1.8625549   -8.0429840  
H    2.0306265   -1.7961922   -3.8387715  
H   -2.5412366    1.9797182   -4.8422768  
H   -2.1929774    1.5609919   -7.8057654  
H   -0.4460651    0.0789854   -8.2397568  
H    3.1279002   -2.8112923   -5.8478996  
C    3.3003539    0.0005272   -1.4738994  
C    2.5232807    0.0003493   -2.6090753  
C    1.1623195   -0.0001323   -2.1820106  
C    1.1711880    0.0000582   -0.7636143  
N    2.4852298   -0.0014922   -0.3662365  
C    0.0000000    0.0000000    0.0000000  
C   -1.2020387    0.0000519   -0.6806475  
O   -2.3759248    0.0003494    0.0157747  
C   -1.2314661   -0.0005114   -2.0955507  
O   -2.5054400   -0.0008040   -2.6250174  
C   -0.0764524   -0.0007276   -2.8495195  
H    2.8919944   -0.0005625   -3.6205309  
H    2.8036264    0.0088180    0.5858657  
H   -3.0835644    0.0000351   -0.6418811  
H   -2.4360058   -0.0011530   -3.5845915  
C    6.5323586    0.0028791   -4.4466891  
C    7.6043829    0.0021976   -3.6131194  
C    7.0889164    0.0013210   -2.2643684  
C    5.6181651    0.0015200   -2.3813353  
N    5.3453968    0.0028759   -3.7298476  
C    4.7630501    0.0004753   -1.3275413  
C    5.3290148   -0.0007135    0.0111961  
O    4.6424950   -0.0016458    1.0246018  
C    6.8840253   -0.0006924    0.1586634  
O    7.3720526   -0.0013809    1.2807551  
C    7.7018215    0.0002119   -1.0517335  
H    8.6382615    0.0024800   -3.9092756  
H    8.7776747    0.0000150   -0.9409910  
H    6.5095788    0.0036003   -5.5243580  
H    4.4257312    0.0017700   -4.1314206  
C    0.8681109    0.7263879    2.2709268  
C    0.6127770    0.5096195    3.5869401  
C   -0.4920590   -0.4175482    3.6542670  
C   -0.8620974   -0.7254003    2.2596025  
N    0.0000000    0.0000000    1.4700000  
C   -1.8641242   -1.5660088    1.8976294  
C   -2.6293522   -2.2103885    2.9520183  
O   -3.5512764   -2.9839180    2.7283916  
C   -2.2549728   -1.8987399    4.4361073  
O   -2.8923672   -2.4351063    5.3323774  
C   -1.1543735   -0.9755647    4.7012123  
H    1.1382914    0.9492124    4.4159191  
H   -2.1192137   -1.7782617    0.8686553  
H   -0.9013378   -0.7652422    5.7314848  
H    1.6172880    1.3558399    1.8188057  
