60

C    0.4748703   -3.2575410  -10.3898422  
C    0.3913849   -2.5515943   -9.2120746  
C    0.1379387   -1.1914408   -9.5589869  
C    0.0762102   -1.1275287  -10.9746247  
N    0.2868954   -2.3989555  -11.4475968  
C   -0.1598591    0.0631946  -11.6683372  
C   -0.3371400    1.2102419  -10.9193177  
O   -0.5710374    2.4001138  -11.5458245  
C   -0.2787487    1.1667888   -9.5059818  
O   -0.4748305    2.3923726   -8.9036195  
C   -0.0456301   -0.0074888   -8.8209595  
H    0.5009064   -2.9657975   -8.2244341  
H    0.2893749   -2.6650501  -12.4156719  
H   -0.2079417    0.1185902  -12.7471434  
H   -0.6636362    3.0622756  -10.8485205  
H   -0.4198316    2.2750016   -7.9503085  
H    0.6550525   -4.3053211  -10.5591086  
C    2.5563879   -2.1074457   -5.9371924  
C    1.9637245   -1.6426518   -7.0671445  
C    0.9098266   -0.7472305   -6.6519876  
C    0.9372954   -0.7283018   -5.1769697  
N    1.9574933   -1.5736536   -4.8062060  
C    0.0950446    0.0004351   -4.4015596  
C   -0.9054232    0.8207085   -5.0639425  
O   -1.7097172    1.5127954   -4.4536737  
C   -0.9528376    0.8157261   -6.6252021  
O   -1.7910236    1.5021490   -7.1939971  
C    0.0078423   -0.0105934   -7.3519361  
H    2.2338703   -1.8980699   -8.0763008  
H    3.3801404   -2.7951869   -5.8355360  
H    2.2269418   -1.7707467   -3.8598449  
C    3.3321173    0.0004713   -1.3379338  
C    2.6974181    0.0000116   -2.5332314  
C    1.2800438   -0.0002119   -2.2052841  
C    1.2395034    0.0000643   -0.7271299  
N    2.4394062    0.0005460   -0.2131038  
C    0.0000000    0.0000000    0.0000000  
C   -1.1468702    0.0000634   -0.7169543  
O   -2.3742203    0.0000074   -0.1695487  
C   -1.1388770    0.0001607   -2.2096355  
O   -2.2206234    0.0000905   -2.7970411  
C    0.1454522    0.0001815   -2.9324241  
H    3.1367984   -0.0000653   -3.5160950  
H   -2.9844346    0.0001026   -0.9290167  
H    4.3940038    0.0007618   -1.1498640  
C    0.0000000    0.0000000    1.4700000  
C    1.0541688    0.0001722    2.3260392  
C    0.5103138    0.0000454    3.6635956  
C   -0.9576371   -0.0002459    3.5155732  
N   -1.2018458    0.0001392    2.1615969  
C   -1.8348311   -0.0008317    4.5510609  
C   -1.2972847   -0.0009736    5.9014604  
O   -2.0050672   -0.0014265    6.9001319  
C    0.2542623   -0.0004184    6.0817573  
O    0.7184670   -0.0002256    7.2139121  
C    1.0974552   -0.0000873    4.8889129  
H    2.0940752    0.0005483    2.0517982  
H   -2.9081052   -0.0011668    4.4207061  
H    2.1707277    0.0000911    5.0223670  
H   -2.1128194   -0.0014912    1.7406791  
