62

C    1.4072400   -2.3782126   -7.7243045  
C    1.9860103   -2.5904039   -8.9541281  
C    1.8986712   -1.3615034   -9.6729986  
C    1.2516371   -0.4276308   -8.8237908  
N    0.9651107   -1.0781175   -7.6493175  
C    0.9962514    0.8925096   -9.2069310  
C    1.4016961    1.2769992  -10.4702445  
O    1.1774650    2.5545850  -10.8951046  
C    2.0484352    0.3596280  -11.3322039  
O    2.3903617    0.8942125  -12.5572143  
C    2.3004615   -0.9429535  -10.9549915  
H    2.4170313   -3.5172556   -9.2920059  
H    0.5033996    1.6090946   -8.5644321  
H    1.5329654    2.6105481  -11.7916283  
H    2.8219262    0.2099324  -13.0779024  
H    2.7975380   -1.6229275  -11.6369216  
H    1.2735482   -3.0517905   -6.8952212  
C    0.6496545   -0.7066350   -5.1591666  
C   -0.1496415   -0.0015615   -4.3176961  
C   -1.0762655    0.7401247   -5.1399522  
C   -0.7489652    0.4069440   -6.5394717  
N    0.3061889   -0.4741189   -6.4823094  
C   -1.3994874    0.9058710   -7.6209511  
C   -2.4949748    1.8330541   -7.3912234  
O   -3.1426433    2.3370192   -8.2994331  
C   -2.8587001    2.2002135   -5.9172144  
O   -3.7789323    2.9800102   -5.7114232  
C   -2.0849148    1.5977389   -4.8345636  
H   -1.1436101    0.6484266   -8.6393609  
H   -2.3432252    1.8569887   -3.8168260  
H    1.4608539   -1.3763737   -4.9240181  
C    3.3003543    0.0005276   -1.4738987  
C    2.5232814    0.0003497   -2.6090747  
C    1.1623200   -0.0001320   -2.1820103  
C    1.1711883    0.0000582   -0.7636140  
N    2.4852300   -0.0014919   -0.3662360  
C    0.0000000    0.0000000    0.0000000  
C   -1.2020384    0.0000519   -0.6806477  
O   -2.3759249    0.0003493    0.0157743  
C   -1.2314656   -0.0005115   -2.0955510  
O   -2.5054392   -0.0008039   -2.6250180  
C   -0.0764516   -0.0007274   -2.8495195  
H    2.8919955   -0.0005620   -3.6205304  
H    2.8036267    0.0088183    0.5858662  
H   -3.0835638    0.0000347   -0.6418818  
H   -2.4360047   -0.0011529   -3.5845921  
H    4.3715549    0.0004895   -1.3667136  
C    2.5128556    2.1077716    2.9199648  
C    1.9592212    1.6432552    4.0696553  
C    0.8915788    0.7479214    3.6910360  
C    0.8684491    0.7287414    2.2159470  
N    1.8754542    1.5738793    1.8102719  
C    0.0000000    0.0000000    1.4700000  
C   -0.9772830   -0.8200135    2.1664417  
O   -1.8021297   -1.5120829    1.5842315  
C   -0.9711318   -0.8147624    3.7284083  
O   -1.7894187   -1.5009653    4.3257297  
C    0.0140216    0.0115358    4.4216297  
H    2.2638494    1.8988021    5.0689105  
H    0.0117648    0.0094386    5.5031631  
H    3.3327358    2.7953732    2.7900019  
H    2.1123206    1.7707734    0.8551938  
