60

C   -3.3399628    0.0000191   -7.2034580  
C   -4.0257337    0.0005005   -6.0109036  
C   -5.4159643    0.0002030   -6.3300562  
C   -5.5182222   -0.0007533   -7.7447887  
N   -4.2393440    0.0011097   -8.2438721  
C   -6.7456243   -0.0015803   -8.4143210  
C   -7.8906560   -0.0017463   -7.6416111  
O   -9.1154851   -0.0028937   -8.2439461  
C   -7.8091675   -0.0004272   -6.2287511  
O   -9.0377560   -0.0003597   -5.6011236  
C   -6.5986464    0.0006624   -5.5675679  
H   -3.5789282    0.0021092   -5.0314367  
H   -3.9964963   -0.0095889   -9.2179829  
H   -6.8303192   -0.0021670   -9.4922954  
H   -9.7694374   -0.0025068   -7.5328828  
H   -8.8933745    0.0005379   -4.6499364  
H   -6.5676586    0.0018429   -4.4842784  
C    0.0139742    0.0003878   -4.4216236  
C    1.0778908    0.0006076   -5.2580807  
C    0.5039802    0.0007585   -6.5949153  
C   -0.9579668    0.0004850   -6.3728908  
N   -1.2512408    0.0003478   -5.1008926  
C   -1.8932250    0.0005799   -7.4639358  
C   -1.3908370    0.0013211   -8.7196988  
O   -2.1470611    0.0014885   -9.8306281  
C    0.0796396    0.0019849   -8.9763283  
O    0.4660691    0.0025199  -10.1450425  
C    1.0185685    0.0018290   -7.8403984  
H    2.1230574    0.0007511   -4.9998126  
H   -1.5077391    0.0020885  -10.5657605  
H    2.0760226    0.0024411   -8.0684786  
C    3.2798085    0.0005856   -1.4499646  
C    2.5571146    0.0005565   -2.5996553  
C    1.1637435    0.0001548   -2.2210360  
C    1.1336964   -0.0000200   -0.7459470  
N    2.4483515   -0.0001429   -0.3402716  
C    0.0000000    0.0000000    0.0000000  
C   -1.2757368   -0.0000187   -0.6964415  
O   -2.3524594   -0.0000640   -0.1142314  
C   -1.2676495   -0.0000873   -2.2584081  
O   -2.3355761   -0.0004101   -2.8557295  
C    0.0181563    0.0001759   -2.9516296  
H    2.9547358    0.0006075   -3.5989104  
H    4.3498547    0.0008611   -1.3200019  
H    2.7563628    0.0012823    0.6148064  
C    2.5128556    2.1077716    2.9199648  
C    1.9592212    1.6432552    4.0696553  
C    0.8915788    0.7479214    3.6910360  
C    0.8684491    0.7287414    2.2159470  
N    1.8754542    1.5738793    1.8102719  
C    0.0000000    0.0000000    1.4700000  
C   -0.9772830   -0.8200135    2.1664417  
O   -1.8021297   -1.5120829    1.5842315  
C   -0.9711318   -0.8147624    3.7284083  
O   -1.7894187   -1.5009653    4.3257297  
C    0.0140216    0.0115358    4.4216297  
H    2.2638494    1.8988021    5.0689105  
H    0.0117648    0.0094386    5.5031631  
H    3.3327358    2.7953732    2.7900019  
H    2.1123206    1.7707734    0.8551938  
