64

C    1.5397912   -1.0425190   -7.2812474  
C    2.5321990   -1.9270494   -6.9274103  
C    3.3174969   -2.1606064   -8.0950397  
C    2.7518946   -1.3847242   -9.1390831  
N    1.6730723   -0.7196498   -8.6114131  
C    3.2716572   -1.3696581  -10.4369305  
C    4.3828127   -2.1518590  -10.6852721  
O    4.9311826   -2.1740483  -11.9349971  
C    4.9612263   -2.9331607   -9.6567669  
O    6.0629697   -3.6578891  -10.0620757  
C    4.4488348   -2.9487188   -8.3762445  
H    2.6721630   -2.3525522   -5.9484564  
H    1.0804348   -0.0840961   -9.1142381  
H    2.8451307   -0.7805989  -11.2371095  
H    5.6864734   -2.7747778  -11.8911256  
H    6.3926011   -4.1571384   -9.3086188  
H    4.9132521   -3.5573129   -7.6091680  
C    0.2278214   -0.7147623   -5.1416686  
C    0.4566679   -0.4621634   -6.4744438  
C   -0.5486864    0.4544090   -6.9031137  
C   -1.3693886    0.7276736   -5.7789694  
N   -0.8712826    0.0001710   -4.7267111  
C   -2.4649412    1.5944984   -5.8352558  
C   -2.7367724    2.1966648   -7.0483844  
O   -3.7944971    3.0522187   -7.1591144  
C   -1.9297523    1.9363850   -8.1814286  
O   -2.3297834    2.6120097   -9.3158228  
C   -0.8489678    1.0811449   -8.1266972  
H   -3.0944368    1.8068453   -4.9821170  
H   -3.8051349    3.3559867   -8.0761081  
H   -1.7327643    2.3807971  -10.0339552  
H   -0.2491914    0.9011411   -9.0112001  
H    0.7607905   -1.3494470   -4.4545893  
C    1.0965514    0.0001359   -0.8010305  
C    0.0000000    0.0000000    0.0000000  
C   -1.1546563    0.0001470   -0.8669513  
C   -0.6372014    0.0003519   -2.2486282  
N    0.7342871    0.0007337   -2.1395014  
C   -1.4147739    0.0001352   -3.3608717  
C   -2.8576049   -0.0001048   -3.1854462  
O   -3.6427779   -0.0002494   -4.1244907  
C   -3.4275840   -0.0000725   -1.7311666  
O   -4.6406831    0.0000333   -1.5710060  
C   -2.4891867   -0.0001091   -0.6116744  
H   -2.8919122   -0.0002918    0.3920866  
H    2.1388272    0.0000663   -0.5261648  
H    1.3735872   -0.0006099   -2.9130262  
C    2.5285572    2.1210227    2.9438989  
C    1.9331703    1.6216660    4.0790748  
C    0.8903039    0.7472258    3.6520102  
C    0.8972198    0.7527806    2.2336141  
N    1.9028376    1.5986179    1.8362361  
C    0.0000000    0.0000000    1.4700000  
C   -0.9207814   -0.7726952    2.1506477  
O   -1.8198395   -1.5274828    1.4542253  
C   -0.9436862   -0.7911793    3.5655508  
O   -1.9197945   -1.6098497    4.0950179  
C   -0.0590329   -0.0485852    4.3195194  
H    2.2150357    1.8593692    5.0905303  
H    2.1533708    1.7953814    0.8841339  
H   -2.3621246   -1.9821033    2.1118817  
H   -1.8668290   -1.5649508    5.0545920  
H   -0.1007624   -0.0827977    5.4019087  
H    3.3491200    2.8096064    2.8367138  
