60

C    2.1329213   -4.2350378    1.5020543  
C    3.1886517   -4.8975677    2.0842532  
C    4.3636485   -4.5165966    1.3709201  
C    3.9594267   -3.6118996    0.3560047  
N    2.5987116   -3.4644939    0.4625116  
C    4.8600945   -3.0309768   -0.5418343  
C    6.1931459   -3.3692725   -0.4125773  
O    7.1151780   -2.8307450   -1.2627893  
C    6.6158942   -4.2703827    0.5934550  
O    7.9751200   -4.5067045    0.5925322  
C    5.7278795   -4.8440665    1.4793681  
H    3.1201469   -5.5732749    2.9195503  
H    2.0316093   -2.8743890   -0.1189972  
H    7.9716037   -3.1941624   -1.0025471  
H    8.1768196   -5.1249491    1.3015428  
H    6.0811585   -5.5310362    2.2394639  
H    1.0843242   -4.2522745    1.7451696  
C    4.4498807   -2.0927813   -1.5965448  
C    3.2085348   -1.6305556   -1.8956814  
C    3.3524544   -0.7335188   -3.0179324  
C    4.7897028   -0.7108877   -3.3504919  
N    5.3998261   -1.5552201   -2.4517473  
C    5.3348516    0.0196508   -4.3558921  
C    4.4468029    0.8384418   -5.1642765  
O    4.8411373    1.5320447   -6.0925628  
C    2.9210854    0.8299296   -4.8297317  
O    2.1637298    1.5155489   -5.5032294  
C    2.4521483    0.0014840   -3.7217481  
H    2.2961919   -1.8884108   -1.3879859  
H    6.3918374    0.0219799   -4.5832377  
H    6.3833796   -1.7523003   -2.4229412  
C    0.0000000    0.0000000    0.0000000  
C    1.0662923   -0.0000101   -0.8334270  
C    0.4961873    0.0000065   -2.1718887  
C   -0.9663854   -0.0000848   -1.9540250  
N   -1.2632773   -0.0000083   -0.6828660  
C   -1.8985359   -0.0000514   -3.0477261  
C   -1.3925770    0.0004566   -4.3020547  
O   -2.1456378    0.0005414   -5.4151314  
C    0.0786240    0.0009326   -4.5545000  
O    0.4683767    0.0012591   -5.7221100  
C    1.0143171    0.0008444   -3.4159031  
H    2.1107200    0.0000633   -0.5721865  
H   -2.9622181   -0.0003268   -2.8593381  
H   -1.5042265    0.0009697   -6.1484419  
C    0.0000000    0.0000000    1.4700000  
C    1.0662921    0.0000102    2.3034270  
C    0.4961870   -0.0000064    3.6418889  
C   -0.9663858    0.0000850    3.4240247  
N   -1.2632773    0.0000084    2.1528658  
C   -1.8985362    0.0000517    4.5177257  
C   -1.3925775   -0.0004564    5.7720543  
O   -2.1456383   -0.0005410    6.8851312  
C    0.0786232   -0.0009323    6.0245000  
O    0.4683759   -0.0012588    7.1921102  
C    1.0143166   -0.0008442    4.8859032  
H    2.1107198   -0.0000632    2.0421868  
H   -2.9622183    0.0003270    4.3293377  
H   -1.5042274   -0.0009692    7.6184419  
H    2.0724152   -0.0013148    5.1109744  
