64

C    0.6936368   -0.7066095   -5.1527421  
C    0.3462077   -0.4553043   -6.4598790  
C   -0.7528345    0.4534777   -6.4312305  
C   -1.0341488    0.7235434   -5.0674660  
N   -0.1387074    0.0017015   -4.3179686  
C   -2.0601481    1.5827600   -4.6626691  
C   -2.8157357    2.1804672   -5.6526248  
O   -3.8298703    3.0285541   -5.3130773  
C   -2.5506561    1.9232735   -7.0187878  
O   -3.3906535    2.5937317   -7.8837922  
C   -1.5388174    1.0755377   -7.4188527  
H    0.8251970   -0.8761778   -7.3273052  
H   -2.2797242    1.7926343   -3.6249113  
H   -4.2227237    3.3302833   -6.1424686  
H   -3.1443862    2.3650595   -8.7852722  
H   -1.3595342    0.8977365   -8.4727603  
H    1.4683930   -1.3361781   -4.7498092  
C    3.3041276    0.0001179   -1.5420426  
C    2.5845373   -0.0004778   -0.3695850  
C    1.2040008   -0.0000007   -0.7283588  
C    1.1422377    0.0006038   -2.1454370  
N    2.4348643    0.0026110   -2.6077459  
C   -0.0655176    0.0008796   -2.8497919  
C   -1.2321760    0.0002323   -2.1101404  
O   -2.4392811    0.0001143   -2.7472523  
C   -1.1911205   -0.0000006   -0.6955268  
O   -2.4371526   -0.0002322   -0.1032865  
C    0.0000000    0.0000000    0.0000000  
H    3.0031533   -0.0000657    0.6222587  
H    2.7054636   -0.0071097   -3.5745259  
H   -3.1132988   -0.0000651   -2.0551790  
H   -2.3200280   -0.0004074    0.8516406  
C    5.7082910    0.0089797   -0.7672164  
C    6.9603238    0.0233806   -1.3370176  
C    6.7741726    0.0255879   -2.7512109  
C    5.3755347    0.0123185   -2.9869271  
N    4.7577225    0.0005133   -1.7610455  
C    4.8251820    0.0108276   -4.2721889  
C    5.7027295    0.0232601   -5.3389287  
O    5.2190211    0.0227739   -6.6152672  
C    7.1014732    0.0362252   -5.1240672  
O    7.8425070    0.0472390   -6.2877214  
C    7.6451147    0.0374305   -3.8564005  
H    7.8930772    0.0302130   -0.7995071  
H    3.7601144    0.0006001   -4.4585441  
H    5.9887396    0.0321781   -7.1989713  
H    8.7757189    0.0556229   -6.0539504  
H    8.7205622    0.0473203   -3.7230095  
H    5.4181434    0.0026320    0.2694769  
C    2.5528530    2.1414826    2.8079335  
C    2.0663498    1.7338582    4.0032312  
C    0.9804344    0.8229586    3.6752840  
C    0.9495562    0.7966882    2.1971295  
N    1.8690446    1.5676019    1.6831036  
C    0.0000000    0.0000000    1.4700000  
C   -0.8785127   -0.7372425    2.1869543  
O   -1.8187535   -1.5261249    1.6395491  
C   -0.8723269   -0.7321790    3.6796354  
O   -1.7010379   -1.4274584    4.2670412  
C    0.1115397    0.0933559    4.4024240  
H    2.4028853    2.0163452    4.9860947  
H   -2.2861435   -1.9184361    2.3990168  
H    0.0832434    0.0693689    5.4835595  
H    3.3664920    2.8238276    2.6198634  
