62

C   -7.0821150    5.6206052    0.8024627  
C   -8.3298547    5.1878405    1.1875932  
C   -8.3970086    3.7941910    0.8912301  
C   -7.1500969    3.4291422    0.3221284  
N   -6.3758296    4.5620303    0.2809945  
C   -6.8603708    2.1254849   -0.0917864  
C   -7.8472665    1.1729264    0.0720626  
O   -7.6172191   -0.1156593   -0.3147689  
C   -9.0979170    1.5177782    0.6375429  
O   -9.9756831    0.4577712    0.7337462  
C   -9.3845276    2.8037263    1.0458543  
H   -9.0976292    5.8014158    1.6269585  
H   -5.4338638    4.6090109   -0.0632081  
H   -8.4236852   -0.6087187   -0.1153481  
H  -10.7948495    0.7758012    1.1254427  
H  -10.3515317    3.0379668    1.4754025  
H   -6.6406015    6.6009274    0.8571658  
C   -4.3329665    2.1450168   -0.3175485  
C   -5.5711456    1.7385431   -0.6826118  
C   -5.3538018    0.8273992   -1.7957509  
C   -3.8860915    0.7997432   -1.9736451  
N   -3.2823480    1.5701205   -1.1099310  
C   -3.2578655    0.0024282   -2.9908505  
C   -4.0594175   -0.7340898   -3.7935894  
O   -3.6090879   -1.5234309   -4.7836322  
C   -5.5440604   -0.7276254   -3.6388178  
O   -6.2117105   -1.4223045   -4.4049023  
C   -6.1645244    0.0985304   -2.5879057  
H   -4.4116855   -1.9150016   -5.1730706  
H   -7.2431275    0.0755598   -2.5084188  
H   -4.0641812    2.8271376    0.4732985  
C    0.0000000    0.0000000    0.0000000  
C    1.0521666   -0.0011982   -0.8862343  
C    0.4917215   -0.0011996   -2.1979132  
C   -0.9187429    0.0003215   -2.0478682  
N   -1.1833171   -0.0009323   -0.7007913  
C   -1.7951703    0.0010483   -3.1372089  
C   -1.2375841    0.0005313   -4.4010422  
O   -2.0474218    0.0015510   -5.4997578  
C    0.1673576   -0.0013585   -4.5711963  
O    0.5673520   -0.0020735   -5.8915554  
C    1.0325768   -0.0023493   -3.4969892  
H    2.0953056   -0.0030808   -0.6200564  
H   -2.0989778    0.0102529   -0.2891822  
H   -1.4634888    0.0006601   -6.2693595  
H    1.5290707   -0.0033271   -5.9180047  
H    2.1042146   -0.0039770   -3.6584456  
C    0.0000000    0.0000000    1.4700000  
C    1.0541688    0.0001722    2.3260392  
C    0.5103138    0.0000454    3.6635956  
C   -0.9576371   -0.0002459    3.5155732  
N   -1.2018458    0.0001392    2.1615969  
C   -1.8348311   -0.0008317    4.5510609  
C   -1.2972847   -0.0009736    5.9014604  
O   -2.0050672   -0.0014265    6.9001319  
C    0.2542623   -0.0004184    6.0817573  
O    0.7184670   -0.0002256    7.2139121  
C    1.0974552   -0.0000873    4.8889129  
H    2.0940752    0.0005483    2.0517982  
H   -2.9081052   -0.0011668    4.4207061  
H    2.1707277    0.0000911    5.0223670  
H   -2.1128194   -0.0014912    1.7406791  
