60

C    7.3733799   -5.6233039   -6.9679572  
C    8.0096148   -5.1913383   -8.1086044  
C    7.7341748   -3.7976560   -8.2365987  
C    6.9184401   -3.4317647   -7.1354055  
N    6.7168609   -4.5642041   -6.3860296  
C    6.4538005   -2.1278445   -6.9387052  
C    6.8195494   -1.1758844   -7.8704655  
O    6.3938014    0.1129241   -7.7265029  
C    7.6325260   -1.5215799   -8.9760788  
O    7.9094597   -0.4620933   -9.8152079  
C    8.0910433   -2.8077880   -9.1709054  
H    8.5987623   -5.8054535   -8.7679680  
H    6.1843562   -4.6105685   -5.5361642  
H    6.7566780    0.6054788   -8.4741487  
H    8.4627668   -0.7806813  -10.5349006  
H    8.7121351   -3.0426793  -10.0273798  
H    7.3347668   -6.6033887   -6.5242222  
C    5.7075972   -2.1458903   -4.5134258  
C    5.6080286   -1.7400307   -5.8006494  
C    4.4743456   -0.8284975   -5.8198979  
C    3.9952577   -0.7999674   -4.4212399  
N    4.7143360   -1.5702093   -3.6507568  
C    2.8699641   -0.0020530   -4.0185824  
C    2.2516352    0.7342029   -4.9698613  
O    1.1898872    1.5240358   -4.7355640  
C    2.7116330    0.7268602   -6.3898996  
O    2.1013094    1.4213443   -7.2025607  
C    3.8682736   -0.0998984   -6.7779432  
H    0.9759268    1.9152451   -5.6017793  
H    4.1702386   -0.0775579   -7.8164742  
H    6.4250582   -2.8280480   -4.0857759  
C    3.2573670   -0.0002921   -1.5109382  
C    2.5379468   -0.0001711   -0.3591962  
C    1.1435043    0.0000330   -0.7338498  
C    1.1092608   -0.0000085   -2.2088474  
N    2.4227562    0.0001906   -2.6182610  
C   -0.0265533   -0.0002525   -2.9515663  
C   -1.3003033   -0.0002641   -2.2514979  
O   -2.3786785   -0.0004132   -2.8306425  
C   -1.2877724    0.0000310   -0.6895608  
O   -2.3539956    0.0003306   -0.0892035  
C    0.0000000    0.0000000    0.0000000  
H    2.9384091   -0.0000370    0.6389240  
H   -0.0296290   -0.0004088   -4.0327231  
H    4.3270394   -0.0004767   -1.6439445  
C    2.5128556    2.1077716    2.9199648  
C    1.9592212    1.6432552    4.0696553  
C    0.8915788    0.7479214    3.6910360  
C    0.8684491    0.7287414    2.2159470  
N    1.8754542    1.5738793    1.8102719  
C    0.0000000    0.0000000    1.4700000  
C   -0.9772830   -0.8200135    2.1664417  
O   -1.8021297   -1.5120829    1.5842315  
C   -0.9711318   -0.8147624    3.7284083  
O   -1.7894187   -1.5009653    4.3257297  
C    0.0140216    0.0115358    4.4216297  
H    2.2638494    1.8988021    5.0689105  
H    0.0117648    0.0094386    5.5031631  
H    3.3327358    2.7953732    2.7900019  
H    2.1123206    1.7707734    0.8551938  
