60

C    0.2582588    0.0330691   -8.8507341  
C    1.2939181   -0.6417597   -9.4544601  
C    1.2806670   -0.2772020  -10.8334166  
C    0.2058101    0.6306190  -11.0136109  
N   -0.3951475    0.7955924   -9.7903977  
C   -0.1050061    1.1982578  -12.2529530  
C    0.6837938    0.8432195  -13.3299498  
O    0.4246377    1.3682856  -14.5628963  
C    1.7604641   -0.0612686  -13.1702642  
O    2.4510809   -0.3149277  -14.3373304  
C    2.0675006   -0.6218539  -11.9479705  
H    1.9744666   -1.3149209   -8.9618130  
H   -1.1815962    1.3917647   -9.6058523  
H   -0.9229581    1.8906673  -12.3969185  
H    1.0831701    0.9944663  -15.1627789  
H    3.1609210   -0.9343250  -14.1421947  
H    2.8981971   -1.3118075  -11.8563949  
C    1.7720688   -2.0859335   -5.3149821  
C    0.8968264   -1.6247192   -4.3847633  
C   -0.0065337   -0.7270827   -5.0652227  
C    0.4171841   -0.7029979   -6.4782596  
N    1.5002595   -1.5471470   -6.5634086  
C   -0.1857666    0.0284588   -7.4494065  
C   -1.3281508    0.8467740   -7.0781196  
O   -1.9388956    1.5411252   -7.8800978  
C   -1.7940047    0.8367265   -5.5872531  
O   -2.7544406    1.5219332   -5.2627294  
C   -1.0641734    0.0073898   -4.6315339  
H    0.8854566   -1.8836208   -3.3409939  
H    2.5929127   -2.7739332   -5.1934844  
H    2.0129032   -1.7433391   -7.4034991  
C    1.1319248    0.0015675   -0.8009270  
C    0.7969916    0.0034959   -2.1169404  
C   -0.6453336    0.0035703   -2.1842672  
C   -1.1266831    0.0015415   -0.7896027  
N    0.0000000    0.0000000    0.0000000  
C   -2.4346129    0.0013924   -0.4276297  
C   -3.4350110    0.0031352   -1.4820184  
O   -4.6384610    0.0030897   -1.2583919  
C   -2.9478958    0.0050460   -2.9661075  
O   -3.7809377    0.0062160   -3.8623775  
C   -1.5113821    0.0053068   -3.2312125  
H    1.4821240    0.0045436   -2.9459192  
H   -2.7664565    0.0000185    0.6013447  
H    2.1104318    0.0009428   -0.3488058  
C    2.5128556    2.1077716    2.9199648  
C    1.9592212    1.6432552    4.0696553  
C    0.8915788    0.7479214    3.6910360  
C    0.8684491    0.7287414    2.2159470  
N    1.8754542    1.5738793    1.8102719  
C    0.0000000    0.0000000    1.4700000  
C   -0.9772830   -0.8200135    2.1664417  
O   -1.8021297   -1.5120829    1.5842315  
C   -0.9711318   -0.8147624    3.7284083  
O   -1.7894187   -1.5009653    4.3257297  
C    0.0140216    0.0115358    4.4216297  
H    2.2638494    1.8988021    5.0689105  
H    0.0117648    0.0094386    5.5031631  
H    3.3327358    2.7953732    2.7900019  
H    2.1123206    1.7707734    0.8551938  
