62

C    0.0000000    0.0000000    0.0000000  
C    1.0521661   -0.0011903   -0.8862347  
C    0.4917212   -0.0011956   -2.1979134  
C   -0.9187433    0.0003151   -2.0478682  
N   -1.1833174   -0.0009411   -0.7007909  
C   -1.7951708    0.0010353   -3.1372086  
C   -1.2375848    0.0005226   -4.4010421  
O   -2.0474230    0.0015361   -5.4997574  
C    0.1673567   -0.0013565   -4.5711966  
O    0.5673505   -0.0020686   -5.8915558  
C    1.0325763   -0.0023412   -3.4969895  
H    2.0953053   -0.0030651   -0.6200567  
H   -2.0989776    0.0102375   -0.2891818  
H   -1.4634905    0.0006503   -6.2693585  
H    1.5290694   -0.0033150   -5.9180049  
H    2.1042138   -0.0039610   -3.6584464  
C   -4.5107105    2.0951268   -0.3556521  
C   -3.4200326    1.6321240   -1.0190711  
C   -3.9000924    0.7371437   -2.0454180  
C   -5.3703974    0.7165662   -1.9247116  
N   -5.6767107    1.5600032   -0.8817947  
C   -6.1968239   -0.0116996   -2.7173986  
C   -5.5982305   -0.8300362   -3.7588145  
O   -6.2574707   -1.5216537   -4.5239086  
C   -4.0430726   -0.8236728   -3.9045785  
O   -3.5277087   -1.5089319   -4.7775515  
C   -3.2578661    0.0024043   -2.9908499  
H   -2.3960546    1.8881714   -0.8128611  
H   -7.2728553   -0.0125474   -2.6122007  
H   -6.6045198    1.7580529   -0.5546956  
C   -3.4876575    3.6299632    1.3867611  
C   -3.8825535    4.4409075    2.4018972  
C   -5.3235412    4.3706310    2.4606439  
C   -5.7387571    3.4456153    1.3888546  
N   -4.5789832    3.0319548    0.7750964  
C   -7.0258402    3.1124592    1.1165898  
C   -8.0720045    3.7046180    1.9335494  
O   -9.2613497    3.4677452    1.7672689  
C   -7.6552017    4.6871662    3.0740225  
O   -8.5272197    5.1921225    3.7681873  
C   -6.2354262    4.9685883    3.2712303  
H   -3.2379745    5.0221488    3.0369490  
H   -7.3089554    2.4317216    0.3257978  
H   -5.9551669    5.6498113    4.0631357  
H   -2.4912175    3.4190542    1.0338949  
C    1.1188642   -0.0008217    2.2703808  
C    0.0000000    0.0000000    1.4700000  
C   -1.1323862   -0.0008904    2.3373528  
C   -0.6382662   -0.0019682    3.6669281  
N    0.7324016   -0.0038477    3.5902241  
C   -1.4770914   -0.0027325    4.7854808  
C   -2.8395474   -0.0020958    4.5576857  
O   -3.7039201   -0.0024443    5.6140350  
C   -3.3517868   -0.0013946    3.2384331  
O   -4.7300496   -0.0012389    3.1773122  
C   -2.5248543   -0.0009135    2.1344818  
H    1.3576314    0.0056174    4.3757045  
H   -1.1067570   -0.0036993    5.8013813  
H   -4.5940033   -0.0021850    5.2385129  
H   -4.9934601   -0.0007286    2.2519915  
H   -2.9462578   -0.0005617    1.1360343  
H    2.1619896   -0.0009344    2.0042067  
