60

C    7.6205330   -2.1246384   -4.1412985  
C    6.5087973   -1.6637855   -4.8077254  
C    6.9710532   -0.7784024   -5.8260648  
C    8.3857897   -0.7383485   -5.7320326  
N    8.7470997   -1.5654714   -4.6976530  
C    9.1787527    0.0361146   -6.5842103  
C    8.5317794    0.7835280   -7.5490810  
O    9.2578081    1.5572721   -8.4076949  
C    7.1210512    0.7570341   -7.6584455  
O    6.6267879    1.5556497   -8.6690199  
C    6.3381247   -0.0065528   -6.8179186  
H    5.4899096   -1.9318275   -4.5863311  
H    9.6890744   -1.7464073   -4.4011329  
H   10.2574296    0.0710883   -6.5176243  
H    8.6205766    1.9892277   -8.9913174  
H    5.6676660    1.4804339   -8.6745767  
H    7.6989182   -2.8068563   -3.3122065  
C    2.8699641   -0.0020527   -4.0185824  
C    4.1392625   -0.0034669   -4.4881133  
C    4.0033713   -0.0054228   -5.9365709  
C    2.5438442   -0.0050011   -6.1739827  
N    1.8743091   -0.0029476   -5.0533991  
C    1.9886063   -0.0065221   -7.4994244  
C    2.8521791   -0.0079908   -8.5403735  
O    2.4734368   -0.0095120   -9.8297894  
C    4.3304462   -0.0080820   -8.3332793  
O    5.0569388   -0.0095858   -9.3269729  
C    4.8754003   -0.0065478   -6.9639918  
H    5.0547096   -0.0031237   -3.9215163  
H    0.9180298   -0.0063785   -7.6435631  
H    3.3075358   -0.0102827  -10.3332090  
C    3.2573673   -0.0002921   -1.5109381  
C    2.5379469   -0.0001710   -0.3591962  
C    1.1435042    0.0000332   -0.7338498  
C    1.1092607   -0.0000083   -2.2088474  
N    2.4227562    0.0001908   -2.6182610  
C   -0.0265532   -0.0002523   -2.9515663  
C   -1.3003033   -0.0002639   -2.2514979  
O   -2.3786784   -0.0004132   -2.8306425  
C   -1.2877726    0.0000312   -0.6895609  
O   -2.3539956    0.0003308   -0.0892035  
C    0.0000000    0.0000000    0.0000000  
H    2.9384091   -0.0000368    0.6389240  
H   -0.0296292   -0.0004086   -4.0327231  
H    4.3270395   -0.0004765   -1.6439444  
C    0.8400945    0.7047457    2.2710304  
C    0.0000000    0.0000000    1.4700000  
C   -0.8844236   -0.7423113    2.3369512  
C   -0.4878984   -0.4098547    3.7186280  
N    0.5629682    0.4714286    3.6095011  
C   -1.0836927   -0.9095027    4.8308716  
C   -2.1891196   -1.8367527    4.6554461  
O   -2.7906899   -2.3413415    5.5944904  
C   -2.6257283   -2.2031529    3.2011665  
O   -3.5549479   -2.9829990    3.0410059  
C   -1.9068976   -1.5999348    2.0816745  
H   -0.7774656   -0.6525820    5.8354244  
H   -2.2155208   -1.8586617    1.0779135  
H    1.6384792    1.3747609    1.9961646  
H    1.0518368    0.8833920    4.3830260  
