60

C   -0.0323591   -0.0097878   -8.8431965  
C    0.7693297   -0.6844353   -9.7346065  
C    0.3330964   -0.3223685  -11.0435026  
C   -0.7467677    0.5838163  -10.8865033  
N   -0.9438115    0.7502510   -9.5381382  
C   -1.4237405    1.1488513  -11.9715069  
C   -1.0027335    0.7928436  -13.2380735  
O   -1.6285021    1.3153805  -14.3327801  
C    0.0725598   -0.1100428  -13.4151515  
O    0.3723152   -0.3649529  -14.7374650  
C    0.7406935   -0.6680596  -12.3452271  
H    1.5693399   -1.3558811   -9.4735760  
H   -1.6367545    1.3457939   -9.1220380  
H   -2.2476039    1.8400034  -11.8585447  
H   -1.1850943    0.9412889  -15.1052500  
H    1.1088504   -0.9831330  -14.7686574  
H    1.5606118   -1.3568342  -12.5119649  
C    2.4782024   -2.1081880   -5.8783640  
C    1.9212515   -1.6438944   -7.0265418  
C    0.8545986   -0.7486155   -6.6450159  
C    0.8356633   -0.7292246   -5.1698698  
N    1.8439056   -1.5742007   -4.7669390  
C   -0.0307352   -0.0004646   -4.4215603  
C   -1.0100799    0.8193479   -5.1153371  
O   -1.8333384    1.5114170   -4.5308826  
C   -1.0083719    0.8138718   -6.6773144  
O   -1.8284253    1.4999043   -7.2724040  
C   -0.0251095   -0.0124255   -7.3732162  
H    2.2230620   -1.8995544   -8.0266228  
H    3.2985202   -2.7956869   -5.7506349  
H    2.0835085   -1.7709326   -3.8125105  
C    3.2573670   -0.0002920   -1.5109380  
C    2.5379468   -0.0001709   -0.3591961  
C    1.1435043    0.0000332   -0.7338500  
C    1.1092609   -0.0000082   -2.2088477  
N    2.4227562    0.0001909   -2.6182613  
C   -0.0265532   -0.0002522   -2.9515663  
C   -1.3003035   -0.0002639   -2.2514981  
O   -2.3786784   -0.0004131   -2.8306429  
C   -1.2877725    0.0000312   -0.6895608  
O   -2.3539958    0.0003307   -0.0892036  
C    0.0000000    0.0000000    0.0000000  
H    2.9384091   -0.0000369    0.6389239  
H    4.3270394   -0.0004765   -1.6439446  
H    2.7280494   -0.0013406   -3.5742113  
C    0.8681109    0.7263879    2.2709268  
C    0.6127770    0.5096195    3.5869401  
C   -0.4920590   -0.4175482    3.6542670  
C   -0.8620974   -0.7254003    2.2596025  
N    0.0000000    0.0000000    1.4700000  
C   -1.8641242   -1.5660088    1.8976294  
C   -2.6293522   -2.2103885    2.9520183  
O   -3.5512764   -2.9839180    2.7283916  
C   -2.2549728   -1.8987399    4.4361073  
O   -2.8923672   -2.4351063    5.3323774  
C   -1.1543735   -0.9755647    4.7012123  
H    1.1382914    0.9492124    4.4159191  
H   -2.1192137   -1.7782617    0.8686553  
H   -0.9013378   -0.7652422    5.7314848  
H    1.6172880    1.3558399    1.8188057  
