60

C   10.1711761    2.1259635   -2.6784688  
C    9.1782941    1.6634823   -1.8461441  
C    9.7950972    0.7758561   -0.9154063  
C   11.1773081    0.7361746   -1.2313897  
N   11.3712283    1.5656700   -2.3079351  
C   12.0945133   -0.0401194   -0.5166231  
C   11.6075638   -0.7897810    0.5364986  
O   12.4596866   -1.5653779    1.2681745  
C   10.2317253   -0.7636934    0.8669600  
O    9.9027671   -1.5646430    1.9410224  
C    9.3262641    0.0016992    0.1620910  
H    8.1373105    1.9319078   -1.9035372  
H   12.2547206    1.7473811   -2.7488450  
H   13.1491954   -0.0748205   -0.7525112  
H   11.9223278   -1.9987212    1.9439883  
H    8.9565334   -1.4895481    2.0978862  
H   10.1180395    2.8100591   -3.5080159  
C    5.6664810    0.0014065   -2.2647026  
C    4.7390840    0.0009613   -1.2727298  
C    5.4604955    0.0006395   -0.0219695  
C    6.8944817    0.0009654   -0.3690623  
N    6.9515101    0.0010264   -1.7437031  
C    7.9048604    0.0011994    0.5369398  
C    7.5567542    0.0008993    1.9480945  
O    8.3942809    0.0010144    2.8407591  
C    6.0443622    0.0002997    2.3385745  
O    5.7391076   -0.0002635    3.5235135  
C    5.0461778    0.0003723    1.2720471  
H    4.0011833    0.0001602    1.5508123  
H    5.5192864    0.0017636   -3.3325147  
H    7.7964707    0.0027872   -2.2850761  
C    3.2798077    0.0005856   -1.4499661  
C    2.5571132    0.0005565   -2.5996564  
C    1.1637425    0.0001547   -2.2210366  
C    1.1336959   -0.0000200   -0.7459475  
N    2.4483509   -0.0001429   -0.3402730  
C    0.0000000    0.0000000    0.0000000  
C   -1.2757370   -0.0000187   -0.6964411  
O   -2.3524597   -0.0000640   -0.1142306  
C   -1.2676502   -0.0000874   -2.2584078  
O   -2.3355774   -0.0004102   -2.8557287  
C    0.0181551    0.0001758   -2.9516297  
H    2.9547342    0.0006074   -3.5989118  
H    0.0150776    0.0003317   -4.0331632  
H    2.7563626    0.0012823    0.6148051  
C    0.8175213    0.6860729    2.3021913  
C    0.0000000    0.0000000    1.4700000  
C   -0.8887526   -0.7456559    2.3478473  
C   -0.4549825   -0.3816753    3.7138435  
N    0.5448156    0.4573574    3.6934124  
C   -1.0945674   -0.9182058    4.8835240  
C   -2.1210866   -1.7789155    4.6970523  
O   -2.8083856   -2.3554314    5.6976972  
C   -2.5824069   -2.1655116    3.3310774  
O   -3.5227682   -2.9541547    3.2362962  
C   -1.9100805   -1.6015804    2.1470656  
H   -0.7567140   -0.6349833    5.8697035  
H   -3.4728268   -2.9124471    5.2533954  
H   -2.2742832   -1.9066565    1.1752040  
H    1.6189533    1.3585343    2.0405121  
