62

C   -0.0495843   -0.3648078   -9.6797469  
C    0.5839625   -0.2158171  -10.8917239  
C    0.4709374    1.1590660  -11.2543830  
C   -0.2475022    1.8056395  -10.2162538  
N   -0.5499491    0.8512330   -9.2769704  
C   -0.5449488    3.1715728  -10.2395195  
C   -0.1089326    3.8980867  -11.3305027  
O   -0.3718585    5.2354333  -11.4039012  
C    0.6089828    3.2708468  -12.3764392  
O    0.9736554    4.1292881  -13.3930202  
C    0.9025421    1.9233091  -12.3542805  
H    1.0670788   -1.0016589  -11.4467421  
H   -1.0922526    3.6703031   -9.4515293  
H    0.0145878    5.5445463  -12.2335829  
H    1.4537660    3.6265317  -14.0581026  
H    1.4539760    1.4706586  -13.1700660  
H   -0.1853726   -1.2425712   -9.0714282  
C    0.0032431   -0.7070486   -5.1230097  
C    0.1389296   -0.4524109   -6.4680805  
C   -0.8935728    0.4649643   -6.8243974  
C   -1.6340599    0.7365948   -5.6454899  
N   -1.0641734    0.0073898   -4.6315339  
C   -2.7306621    1.6036560   -5.6241304  
C   -3.0860377    2.2077438   -6.8144937  
O   -4.1486912    3.0636135   -6.8500938  
C   -2.3598153    1.9491140   -8.0013078  
O   -2.8375876    2.6265547   -9.1041002  
C   -1.2780504    1.0936416   -8.0231743  
H    0.8890558   -0.8766288   -7.1133275  
H   -3.2992632    1.8147639   -4.7289611  
H   -4.2229887    3.3688076   -7.7636589  
H   -2.2920027    2.3963769   -9.8623602  
H    0.5825401   -1.3428730   -4.4756292  
C    1.1319248    0.0015675   -0.8009270  
C    0.7969916    0.0034959   -2.1169404  
C   -0.6453336    0.0035703   -2.1842672  
C   -1.1266831    0.0015415   -0.7896027  
N    0.0000000    0.0000000    0.0000000  
C   -2.4346129    0.0013924   -0.4276297  
C   -3.4350110    0.0031352   -1.4820184  
O   -4.6384610    0.0030897   -1.2583919  
C   -2.9478958    0.0050460   -2.9661075  
O   -3.7809377    0.0062160   -3.8623775  
C   -1.5113821    0.0053068   -3.2312125  
H    1.4821240    0.0045436   -2.9459192  
H   -2.7664565    0.0000185    0.6013447  
H    2.1104318    0.0009428   -0.3488058  
C    0.8400945    0.7047457    2.2710304  
C    0.0000000    0.0000000    1.4700000  
C   -0.8844236   -0.7423113    2.3369512  
C   -0.4878984   -0.4098547    3.7186280  
N    0.5629682    0.4714286    3.6095011  
C   -1.0836927   -0.9095027    4.8308716  
C   -2.1891196   -1.8367527    4.6554461  
O   -2.7906899   -2.3413415    5.5944904  
C   -2.6257283   -2.2031529    3.2011665  
O   -3.5549479   -2.9829990    3.0410059  
C   -1.9068976   -1.5999348    2.0816745  
H   -0.7774656   -0.6525820    5.8354244  
H   -2.2155208   -1.8586617    1.0779135  
H    1.6384792    1.3747609    1.9961646  
H    1.0518368    0.8833920    4.3830260  
