64

C    0.9257299   -0.7167798   -5.2310363  
C    0.0950450    0.0004357   -4.4015596  
C   -0.8020942    0.7279290   -5.2385151  
C   -0.4682547    0.4119044   -6.5803816  
N    0.5861906   -0.4662352   -6.5399634  
C   -1.1490752    0.9509639   -7.6761405  
C   -2.1859877    1.8247346   -7.4124828  
O   -2.8845242    2.3798586   -8.4453905  
C   -2.5338283    2.1526768   -6.0804627  
O   -3.5882629    3.0369887   -5.9829748  
C   -1.8624421    1.6214689   -4.9989894  
H    1.0324206   -0.8745737   -7.3412871  
H   -0.8994317    0.7142341   -8.7012457  
H   -3.5540573    2.9507676   -8.0465769  
H   -3.7587632    3.2054701   -5.0512304  
H   -2.1514337    1.8914447   -3.9899923  
H    1.7344792   -1.3861205   -4.9925708  
C    3.3321174    0.0004722   -1.3379336  
C    2.6974183    0.0000122   -2.5332313  
C    1.2800441   -0.0002113   -2.2052840  
C    1.2395036    0.0000646   -0.7271298  
N    2.4394063    0.0005463   -0.2131037  
C    0.0000000    0.0000000    0.0000000  
C   -1.1468699    0.0000637   -0.7169543  
O   -2.3742201    0.0000076   -0.1695489  
C   -1.1388769    0.0001611   -2.2096357  
O   -2.2206234    0.0000908   -2.7970412  
C    0.1454523    0.0001820   -2.9324241  
H    3.1367987   -0.0000643   -3.5160945  
H   -2.9844345    0.0001025   -0.9290168  
C    6.8064687    0.0000406   -4.0743105  
C    7.7887314    0.0006881   -3.1111766  
C    7.1308663    0.0013420   -1.8455492  
C    5.7357528    0.0007680   -2.1016430  
N    5.5736261    0.0019340   -3.4648491  
C    4.7795905    0.0008679   -1.0815729  
C    5.2401782    0.0012528    0.2207468  
O    4.3497078    0.0010157    1.2551919  
C    6.6282669    0.0022033    0.4964753  
O    6.9274455    0.0029071    1.8432624  
C    7.5721104    0.0023784   -0.5093506  
H    8.8489884    0.0017942   -3.2978481  
H    4.6916434   -0.0086996   -3.9444063  
H    4.8738775    0.0016567    2.0666786  
H    7.8844233    0.0034998    1.9422371  
H    8.6285023    0.0032961   -0.2674563  
H    6.8877386   -0.0001762   -5.1477885  
C    0.0000000    0.0000000    1.4700000  
C    1.0521667    0.0011902    2.3562342  
C    0.4917218    0.0011957    3.6679131  
C   -0.9187428   -0.0003148    3.5178682  
N   -1.1833171    0.0009411    2.1707914  
C   -1.7951701   -0.0010350    4.6072090  
C   -1.2375837   -0.0005224    5.8710424  
O   -2.0474215   -0.0015360    6.9697579  
C    0.1673580    0.0013566    6.0411963  
O    0.5673524    0.0020687    7.3615553  
C    1.0325770    0.0023412    4.9669890  
H    2.0953057    0.0030649    2.0900562  
H   -2.0989778   -0.0102372    1.7591824  
H   -2.8710934   -0.0020419    4.4995513  
H   -1.4634884   -0.0006497    7.7393593  
H    1.5290710    0.0033153    7.3880045  
H    2.1042148    0.0039609    5.1284455  
