62

C    0.0000000    0.0000000    0.0000000  
C   -1.0390147   -0.1658433   -0.8862349  
C   -0.4856762   -0.0768739   -2.1979136  
C    0.9071445    0.1455283   -2.0478681  
N    1.1681643    0.1887663   -0.7007909  
C    1.7725738    0.2839392   -3.1372085  
C    1.2219763    0.1959356   -4.4010421  
O    2.0217073    0.3234872   -5.4997575  
C   -0.1654501   -0.0252260   -4.5711965  
O   -0.5604855   -0.0880169   -5.8915553  
C   -1.0198557   -0.1615970   -3.4969897  
H   -2.0692252   -0.3295775   -0.6200569  
H    2.0739892    0.3230793   -0.2891817  
H    1.4450377    0.2316700   -6.2693589  
H   -1.5102079   -0.2394472   -5.9180050  
H   -2.0781624   -0.3301068   -3.6584465  
C    4.7272234   -1.3784698   -0.3461907  
C    5.8379856   -0.7305210   -0.7825901  
C    5.4296301    0.1109514   -1.8825927  
C    3.9795101   -0.1013769   -2.0524723  
N    3.6152868   -1.0154848   -1.0908915  
C    3.2169408    0.5147724   -2.9908496  
C    3.8679032    1.4492619   -3.8939074  
O    3.2677163    2.0542236   -4.7725981  
C    5.4028569    1.6892544   -3.7322716  
O    5.9619144    2.4735413   -4.4869964  
C    6.1175431    0.9666530   -2.6830224  
H    6.8301977   -0.8307500   -0.3799947  
H    7.1801082    1.1385921   -2.5775863  
H    2.6846499   -1.3636169   -0.9503001  
C    7.4960788   -3.2297271    2.6153511  
C    7.0282483   -2.4728696    1.5956053  
C    5.6054129   -2.7692125    1.5306329  
C    5.3794501   -3.7512542    2.6128151  
N    6.4840926   -4.0250183    3.2521957  
C    4.0796198   -4.3022477    2.8810205  
C    3.0521574   -3.8905917    2.1037209  
O    1.7868352   -4.3217491    2.2419377  
C    3.2481598   -2.9004483    1.0040118  
O    2.2678623   -2.5711624    0.3363232  
C    4.5911424   -2.3498746    0.7486858  
H    7.5804690   -1.7968895    0.9653840  
H    3.9434005   -5.0184291    3.6781645  
H    1.2878088   -3.8520659    1.5494616  
H    8.5073357   -3.2951979    2.9841974  
C    3.3003543   -0.0005276    2.9438989  
C    2.5232812   -0.0003497    4.0790748  
C    1.1623199    0.0001319    3.6520102  
C    1.1711883   -0.0000583    2.2336141  
N    2.4852299    0.0014920    1.8362361  
C    0.0000000    0.0000000    1.4700000  
C   -1.2020384   -0.0000520    2.1506477  
O   -2.3759250   -0.0003494    1.4542253  
C   -1.2314658    0.0005113    3.5655508  
O   -2.5054393    0.0008037    4.0950179  
C   -0.0764518    0.0007272    4.3195194  
H    2.8919952    0.0005619    5.0905303  
H    2.8036267   -0.0088181    0.8841339  
H   -3.0835639   -0.0000348    2.1118817  
H   -2.4360050    0.0011527    5.0545920  
H   -0.1304098    0.0013421    5.4019087  
H    4.3715549   -0.0004895    2.8367138  
