64

C   -4.2182307    0.7339125   -7.7976097  
C   -3.2577311    0.0159511   -8.4717308  
C   -3.9266205   -0.7096988   -9.5015943  
C   -5.3056834   -0.3918329   -9.4063350  
N   -5.4483441    0.4855822   -8.3601955  
C   -6.2668385   -0.9287898  -10.2681055  
C   -5.8277993   -1.8023116  -11.2440054  
O   -6.7240005   -2.3554178  -12.1122858  
C   -4.4560100   -2.1320719  -11.3547781  
O   -4.1775624   -3.0158697  -12.3768893  
C   -3.5072896   -1.6029385  -10.5047932  
H   -6.3145792    0.8948651   -8.0600192  
H   -7.3194255   -0.6906497  -10.2006442  
H   -6.2154477   -2.9265159  -12.7026121  
H   -3.2305991   -3.1856682  -12.3826192  
H   -2.4637546   -1.8742752  -10.6138358  
H   -4.1233629    1.4023805   -6.9590935  
C   -1.0641738    0.0073911   -4.6315339  
C    0.2077340    0.0068358   -5.1556689  
C    0.0728972    0.0090183   -6.5756740  
C   -1.3163591    0.0111477   -6.8618346  
N   -1.9782054    0.0081399   -5.6591012  
C   -1.8198413    0.0139274   -8.1661684  
C   -0.9041964    0.0148759   -9.2004660  
O   -1.3413930    0.0179230  -10.4934709  
C    0.4859166    0.0124095   -8.9351415  
O    1.2686357    0.0133318  -10.0712288  
C    0.9833257    0.0093938   -7.6486345  
H    1.1204512    0.0039692   -4.5847641  
H   -2.9756844    0.0192750   -5.5455505  
H   -0.5510075    0.0177823  -11.0489489  
H    2.1928159    0.0115560   -9.8038493  
H    2.0532874    0.0073712   -7.4764235  
C    1.1319245    0.0015656   -0.8009271  
C    0.7969914    0.0034943   -2.1169404  
C   -0.6453340    0.0035712   -2.1842672  
C   -1.1266833    0.0015434   -0.7896027  
N    0.0000000    0.0000000    0.0000000  
C   -2.4346131    0.0013965   -0.4276296  
C   -3.4350110    0.0031409   -1.4820182  
O   -4.6384610    0.0030975   -1.2583916  
C   -2.9478961    0.0050507   -2.9661073  
O   -3.7809383    0.0062220   -3.8623773  
C   -1.5113824    0.0053091   -3.2312124  
H    1.4821237    0.0045409   -2.9459193  
H   -2.7664564    0.0000233    0.6013449  
H    2.1104315    0.0009392   -0.3488061  
C    2.5285572    2.1210227    2.9438989  
C    1.9331703    1.6216660    4.0790748  
C    0.8903039    0.7472258    3.6520102  
C    0.8972198    0.7527806    2.2336141  
N    1.9028376    1.5986179    1.8362361  
C    0.0000000    0.0000000    1.4700000  
C   -0.9207814   -0.7726952    2.1506477  
O   -1.8198395   -1.5274828    1.4542253  
C   -0.9436862   -0.7911793    3.5655508  
O   -1.9197945   -1.6098497    4.0950179  
C   -0.0590329   -0.0485852    4.3195194  
H    2.2150357    1.8593692    5.0905303  
H    2.1533708    1.7953814    0.8841339  
H   -2.3621246   -1.9821033    2.1118817  
H   -1.8668290   -1.5649508    5.0545920  
H   -0.1007624   -0.0827977    5.4019087  
H    3.3491200    2.8096064    2.8367138  
