62

C    6.6342822   -3.0610947   -7.5929170  
C    6.1516834   -1.8371359   -7.1910585  
C    6.4759432   -0.9036044   -8.2196374  
C    7.1617374   -1.6218041   -9.2324553  
N    7.2424407   -2.9284672   -8.8192540  
C    7.6322459   -1.0169794  -10.4018995  
C    7.4060655    0.3374793  -10.5517748  
O    7.8439649    0.9781755  -11.6746132  
C    6.7240556    1.0713347   -9.5522067  
O    6.5775583    2.4107594   -9.8485571  
C    6.2598476    0.4753672   -8.3981452  
H    7.6670390   -3.6759688   -9.3378489  
H    8.1557601   -1.5587618  -11.1775319  
H    7.5867053    1.9043605  -11.5783671  
H    6.1073072    2.8330815   -9.1232222  
H    5.7409811    1.0633088   -7.6500941  
H    6.5940612   -4.0179145   -7.1011480  
C    5.7490609   -2.1284785   -4.7144783  
C    4.8671665   -1.6645343   -3.7660662  
C    3.9696976   -0.7771949   -4.4307303  
C    4.3561282   -0.7391883   -5.7949712  
N    5.4407937   -1.5693619   -5.9325543  
C    3.6896893    0.0363916   -6.7484506  
C    2.6133588    0.7870478   -6.3169352  
O    1.9266964    1.5620104   -7.2062837  
C    2.2128024    0.7626344   -4.9598147  
O    1.1236813    1.5644117   -4.6872123  
C    2.8699641   -0.0020530   -4.0185824  
H    4.8709995   -1.9318254   -2.7232170  
H    3.9793405    0.0698170   -7.7896935  
H    1.2244402    1.9962426   -6.7047424  
H    0.9184891    1.4904380   -3.7501810  
H    6.5744610   -2.8128716   -4.6181479  
C    3.2573670   -0.0002921   -1.5109382  
C    2.5379468   -0.0001711   -0.3591962  
C    1.1435043    0.0000330   -0.7338498  
C    1.1092608   -0.0000085   -2.2088474  
N    2.4227562    0.0001906   -2.6182610  
C   -0.0265533   -0.0002525   -2.9515663  
C   -1.3003033   -0.0002641   -2.2514979  
O   -2.3786785   -0.0004132   -2.8306425  
C   -1.2877724    0.0000310   -0.6895608  
O   -2.3539956    0.0003306   -0.0892035  
C    0.0000000    0.0000000    0.0000000  
H    2.9384091   -0.0000370    0.6389240  
H   -0.0296290   -0.0004088   -4.0327231  
H    4.3270394   -0.0004767   -1.6439445  
C    0.8681109    0.7263879    2.2709268  
C    0.6127770    0.5096195    3.5869401  
C   -0.4920590   -0.4175482    3.6542670  
C   -0.8620974   -0.7254003    2.2596025  
N    0.0000000    0.0000000    1.4700000  
C   -1.8641242   -1.5660088    1.8976294  
C   -2.6293522   -2.2103885    2.9520183  
O   -3.5512764   -2.9839180    2.7283916  
C   -2.2549728   -1.8987399    4.4361073  
O   -2.8923672   -2.4351063    5.3323774  
C   -1.1543735   -0.9755647    4.7012123  
H    1.1382914    0.9492124    4.4159191  
H   -2.1192137   -1.7782617    0.8686553  
H   -0.9013378   -0.7652422    5.7314848  
H    1.6172880    1.3558399    1.8188057  
