62

C    7.2678616   -0.7089262   -5.6711031  
C    8.6171253   -0.4580528   -5.7660586  
C    8.7965264    0.4491441   -6.8520648  
C    7.5103790    0.7187325   -7.3859869  
N    6.6052549   -0.0018587   -6.6469910  
C    7.3065953    1.5764493   -8.4711522  
C    8.4214487    2.1731200   -9.0272672  
O    8.2795018    3.0197274  -10.0884544  
C    9.7130177    1.9163802   -8.5088536  
O   10.7211049    2.5856741   -9.1715385  
C    9.9148276    1.0701236   -7.4385033  
H    9.3785226   -0.8781899   -5.1314307  
H    6.3289404    1.7859521   -8.8828578  
H    9.1681804    3.3209344  -10.3182184  
H   11.5598883    2.3574043   -8.7593020  
H   10.9159515    0.8926365   -7.0633664  
H    6.7258669   -1.3373997   -4.9853765  
C    3.0267439   -0.0008952   -3.9901698  
C    4.3139893   -0.0013048   -4.4079960  
C    4.2367753   -0.0025857   -5.8607644  
C    2.7880410   -0.0029133   -6.1569948  
N    2.0737441   -0.0018454   -5.0643978  
C    2.2868493   -0.0040744   -7.5038031  
C    3.1918049   -0.0044829   -8.5089848  
O    2.8655078   -0.0055575   -9.8126604  
C    4.6604896   -0.0037978   -8.2422894  
O    5.4265665   -0.0043482   -9.2057967  
C    5.1496332   -0.0026526   -6.8520868  
H    5.2057786   -0.0007097   -3.8048480  
H    1.2229762   -0.0044960   -7.6911103  
H    3.7192796   -0.0055663  -10.2819437  
C    3.3003547    0.0005275   -1.4738985  
C    2.5232817    0.0003496   -2.6090745  
C    1.1623204   -0.0001319   -2.1820101  
C    1.1711885    0.0000583   -0.7636140  
N    2.4852303   -0.0014920   -0.3662357  
C    0.0000000    0.0000000    0.0000000  
C   -1.2020382    0.0000520   -0.6806479  
O   -2.3759248    0.0003494    0.0157744  
C   -1.2314653   -0.0005113   -2.0955511  
O   -2.5054389   -0.0008038   -2.6250185  
C   -0.0764511   -0.0007273   -2.8495194  
H    2.8036269    0.0088181    0.5858664  
H   -3.0835637    0.0000348   -0.6418823  
H   -2.4360044   -0.0011528   -3.5845926  
H   -0.1304090   -0.0013422   -3.9319089  
H    4.3715553    0.0004894   -1.3667132  
C    2.5128556    2.1077716    2.9199648  
C    1.9592212    1.6432552    4.0696553  
C    0.8915788    0.7479214    3.6910360  
C    0.8684491    0.7287414    2.2159470  
N    1.8754542    1.5738793    1.8102719  
C    0.0000000    0.0000000    1.4700000  
C   -0.9772830   -0.8200135    2.1664417  
O   -1.8021297   -1.5120829    1.5842315  
C   -0.9711318   -0.8147624    3.7284083  
O   -1.7894187   -1.5009653    4.3257297  
C    0.0140216    0.0115358    4.4216297  
H    2.2638494    1.8988021    5.0689105  
H    0.0117648    0.0094386    5.5031631  
H    3.3327358    2.7953732    2.7900019  
H    2.1123206    1.7707734    0.8551938  
