60

C    6.1446223   -0.7141380   -1.0171362  
C    6.6026400    0.0036971   -2.0975992  
C    7.7479021    0.7318141   -1.6584870  
C    7.9424944    0.4155139   -0.2895409  
N    6.9505915   -0.4633836    0.0686284  
C    8.9845549    0.9550346    0.4706020  
C    9.8460460    1.8295585   -0.1628168  
O   10.8809177    2.3851580    0.5324264  
C    9.6681191    2.1577861   -1.5278901  
O   10.6082320    3.0428594   -2.0138711  
C    8.6401618    1.6261234   -2.2783322  
H    6.8381300   -0.8720642    0.9787459  
H    9.1382036    0.7180981    1.5143720  
H   11.3513607    2.9565594   -0.0884180  
H   10.4163261    3.2114880   -2.9414165  
H    8.5290081    1.8963337   -3.3219365  
H    5.3059470   -1.3840545   -0.9347106  
C    2.4521485    0.0014838   -3.7217479  
C    3.4891875    0.0014494   -2.8521908  
C    4.6797442    0.0022549   -3.6882971  
C    4.1623485    0.0025989   -5.0735352  
N    2.8572360    0.0022303   -5.0994557  
C    5.0381743    0.0034457   -6.2128403  
C    6.3703216    0.0043162   -5.9789259  
O    7.3023603    0.0051581   -6.9470914  
C    6.9233383    0.0043685   -4.5924430  
O    8.1464880    0.0050615   -4.4541498  
C    6.0043357    0.0034459   -3.4403323  
H    3.4509653    0.0010306   -1.7762658  
H    4.6326017    0.0034742   -7.2140498  
H    8.1530742    0.0056723   -6.4722873  
C    0.0000000    0.0000000    0.0000000  
C    1.0662924   -0.0000102   -0.8334267  
C    0.4961874    0.0000064   -2.1718888  
C   -0.9663853   -0.0000849   -1.9540250  
N   -1.2632772   -0.0000084   -0.6828660  
C   -1.8985357   -0.0000515   -3.0477261  
C   -1.3925767    0.0004566   -4.3020548  
O   -2.1456375    0.0005411   -5.4151316  
C    0.0786242    0.0009324   -4.5545000  
O    0.4683770    0.0012590   -5.7221099  
C    1.0143173    0.0008443   -3.4159029  
H    2.1107200    0.0000632   -0.5721862  
H   -2.9622180   -0.0003269   -2.8593382  
H   -1.5042262    0.0009694   -6.1484423  
C    1.0672568    0.0000697    2.3021913  
C    0.0000000    0.0000000    1.4700000  
C   -1.1601224    0.0000736    2.3478473  
C   -0.5938729    0.0000769    3.7138435  
N    0.7113367    0.0001554    3.6934124  
C   -1.4286986    0.0001879    4.8835240  
C   -2.7683114    0.0006799    4.6970523  
O   -3.6653903    0.0008304    5.6976972  
C   -3.3702025    0.0010610    3.3310774  
O   -4.5974910    0.0013779    3.2362962  
C   -2.4926826    0.0008943    2.1470656  
H   -0.9878360   -0.0000190    5.8697035  
H   -4.5324246    0.0012261    5.2533954  
H   -2.9677772    0.0012974    1.1752040  
H    2.1134392    0.0000545    2.0405121  
