62

C    3.0602153   -0.7192671   -7.3586219  
C    2.1349317   -0.0016716   -8.0806843  
C    2.8551508    0.7253580   -9.0743204  
C    4.2277994    0.4086719   -8.9085745  
N    4.3173664   -0.4693985   -7.8571056  
C    5.2314424    0.9471477   -9.7194601  
C    4.8422846    1.8210031  -10.7160090  
O    5.7813789    2.3755742  -11.5367202  
C    3.4776854    2.1496020  -10.8968648  
O    3.2512703    3.0339138  -11.9313068  
C    2.4870582    1.6189698  -10.0971060  
H    5.1674259   -0.8781205   -7.5131193  
H    6.2794000    0.7099121   -9.5981894  
H    5.3032805    2.9466539  -12.1519879  
H    2.3056915    3.2028574  -11.9855522  
H    1.4502463    1.8894412  -10.2594151  
H    2.9230338   -1.3884503   -6.5265561  
C   -0.2963294   -0.0005341   -4.3948471  
C    0.7278651   -0.0010062   -5.2865309  
C    0.1384644   -0.0010223   -6.6046515  
C   -1.3235472   -0.0004880   -6.4063792  
N   -1.5211839   -0.0006101   -5.0448251  
C   -2.2357329    0.0000549   -7.4111788  
C   -1.7448089   -0.0001089   -8.7792175  
O   -2.4864203    0.0002821   -9.7530304  
C   -0.2003571   -0.0009250   -9.0126110  
O    0.2247524   -0.0013763  -10.1600176  
C    0.6832434   -0.0011819   -7.8493819  
H    1.7765638   -0.0014911   -5.0481103  
H   -3.3039063    0.0005715   -7.2440972  
H   -2.4171880    0.0012260   -4.5929174  
C    3.1301143   -0.0010313   -1.7028257  
C    2.5367765   -0.0002767   -0.4864669  
C    1.1089900    0.0001027   -0.7656184  
C    1.0177864   -0.0004150   -2.2415133  
N    2.1993571   -0.0011613   -2.7963824  
C   -0.2459220   -0.0002879   -2.9257116  
C   -1.3675327   -0.0000606   -2.1698519  
O   -2.6129319    0.0000866   -2.6748482  
C   -1.3083588    0.0000910   -0.6783229  
O   -2.3693264    0.0004206   -0.0541685  
C    0.0000000    0.0000000    0.0000000  
H    3.0096014   -0.0001008    0.4807517  
H   -3.1967445    0.0002093   -1.8949025  
H    4.1849272   -0.0015113   -1.9271980  
C    2.5285572    2.1210227    2.9438989  
C    1.9331703    1.6216660    4.0790748  
C    0.8903039    0.7472258    3.6520102  
C    0.8972198    0.7527806    2.2336141  
N    1.9028376    1.5986179    1.8362361  
C    0.0000000    0.0000000    1.4700000  
C   -0.9207814   -0.7726952    2.1506477  
O   -1.8198395   -1.5274828    1.4542253  
C   -0.9436862   -0.7911793    3.5655508  
O   -1.9197945   -1.6098497    4.0950179  
C   -0.0590329   -0.0485852    4.3195194  
H    2.2150357    1.8593692    5.0905303  
H    2.1533708    1.7953814    0.8841339  
H   -2.3621246   -1.9821033    2.1118817  
H   -1.8668290   -1.5649508    5.0545920  
H   -0.1007624   -0.0827977    5.4019087  
H    3.3491200    2.8096064    2.8367138  
