62

C    0.0000000    0.0000000    0.0000000  
C    1.0521664   -0.0011860   -0.8862345  
C    0.4917209   -0.0011939   -2.1979133  
C   -0.9187438    0.0003112   -2.0478680  
N   -1.1833176   -0.0009458   -0.7007906  
C   -1.7951712    0.0010279   -3.1372084  
C   -1.2375856    0.0005172   -4.4010420  
O   -2.0474237    0.0015279   -5.4997571  
C    0.1673558   -0.0013562   -4.5711965  
O    0.5673502   -0.0020666   -5.8915551  
C    1.0325756   -0.0023374   -3.4969895  
H    2.0953052   -0.0030567   -0.6200570  
H   -2.0989781    0.0102288   -0.2891817  
H   -2.8710948    0.0020305   -3.0295502  
H   -1.4634911    0.0006440   -6.2693586  
H    1.5290686   -0.0033094   -5.9180049  
C    4.1863717   -2.1477707   -1.3902901  
C    5.2964430   -1.7419730   -2.0495691  
C    4.8117043   -0.8306843   -3.0747916  
C    3.3454859   -0.8022133   -2.8851147  
N    2.9730587   -1.5722763   -1.8990670  
C    2.4861684   -0.0045285   -3.7159930  
C    3.0653144    0.7315644   -4.6917448  
O    2.3850918    1.5211765   -5.5401852  
C    4.5422495    0.7242765   -4.9080094  
O    5.0006511    1.4186041   -5.8152015  
C    5.4023440   -0.1022453   -4.0425477  
H    6.3180620   -2.0258941   -1.8631303  
H    3.0670229    1.9123126   -6.1156286  
H    4.1206220   -2.8297606   -0.5574994  
C    8.6833636   -3.1186004   -4.0734316  
C    7.4561876   -2.5594468   -3.9595665  
C    7.6590267   -1.1478619   -4.2472881  
C    9.1071990   -1.0276320   -4.5210142  
N    9.7128828   -2.1796170   -4.4206745  
C    9.7169971    0.2307410   -4.8522694  
C    8.9163965    1.3194445   -4.9079365  
O    9.3507172    2.5560884   -5.2047853  
C    7.4511572    1.2303633   -4.6372020  
O    6.7832835    2.2621013   -4.7056237  
C    6.8494014   -0.0718433   -4.2994550  
H    6.5279441   -3.0449458   -3.7111101  
H   10.7778487    0.2895078   -5.0473317  
H    8.5535162    3.1147794   -5.1662070  
H    8.9573599   -4.1525730   -3.9363187  
C    3.3041272   -0.0001177    3.0120429  
C    2.5845372    0.0004780    1.8395852  
C    1.2040006    0.0000008    2.1983588  
C    1.1422373   -0.0006037    3.6154372  
N    2.4348639   -0.0026109    4.0777464  
C   -0.0655181   -0.0008797    4.3197917  
C   -1.2321768   -0.0002324    3.5801400  
O   -2.4392816   -0.0001146    4.2172520  
C   -1.1911209    0.0000007    2.1655264  
O   -2.4371527    0.0002320    1.5732860  
C    0.0000000    0.0000000    1.4700000  
H    3.0031534    0.0000661    0.8477417  
H    2.7054629    0.0071099    5.0445261  
H   -0.1193549   -0.0014844    5.3997470  
H   -3.1132988    0.0000648    3.5251786  
H   -2.3200282    0.0004071    0.6183591  
H    4.3686625   -0.0004071    3.1724291  
