60

C    0.5323420    0.5336368   -9.3560348  
C    1.6118129   -0.3165310   -9.2895182  
C    2.2104884   -0.3313895  -10.5841100  
C    1.4465605    0.5363438  -11.4059243  
N    0.4342534    1.0434026  -10.6295595  
C    1.7501067    0.7656103  -12.7513187  
C    2.8449546    0.1071410  -13.2765854  
O    3.1862878    0.2951205  -14.5847018  
C    3.6192926   -0.7629023  -12.4726933  
O    4.6768095   -1.3438987  -13.1416082  
C    3.3202604   -0.9897619  -11.1454262  
H    1.9281132   -0.8600755   -8.4157297  
H   -0.2625057    1.6968418  -10.9386312  
H    1.1717614    1.4256381  -13.3830491  
H    3.9680594   -0.2496334  -14.7438919  
H    5.1476341   -1.9158552  -12.5277722  
H    3.9316325   -1.6618371  -10.5546494  
C    0.2574167   -0.6856119   -5.1816675  
C   -0.8287665    0.0000939   -4.7555305  
C   -1.2821020    0.7456926   -5.9196052  
C   -0.3285015    0.3820838   -6.9896608  
N    0.5761657   -0.4566991   -6.5630339  
C   -0.4351974    0.9186760   -8.3184836  
C   -1.4487061    1.7790894   -8.5671268  
O   -1.6679604    2.3556225   -9.7611028  
C   -2.4274561    2.1653064   -7.5083328  
O   -3.3248661    2.9536923   -7.8055247  
C   -2.2967102    1.6013191   -6.1530657  
H   -2.4560485    2.9123845   -9.6266159  
H   -3.0259295    1.9061167   -5.4144400  
H    0.8824806   -1.3579200   -4.6157427  
C    1.0672569   -0.0000698   -0.8321910  
C    0.0000000    0.0000000    0.0000000  
C   -1.1601223   -0.0000736   -0.8778472  
C   -0.5938729   -0.0000768   -2.2438435  
N    0.7113367   -0.0001553   -2.2234123  
C   -1.4286985   -0.0001877   -3.4135239  
C   -2.7683113   -0.0006798   -3.2270524  
O   -3.6653902   -0.0008302   -4.2276970  
C   -3.3702024   -0.0010610   -1.8610774  
O   -4.5974910   -0.0013779   -1.7662963  
C   -2.4926825   -0.0008943   -0.6770658  
H   -4.5324245   -0.0012258   -3.7833954  
H   -2.9677772   -0.0012974    0.2947961  
H    2.1134391   -0.0000547   -0.5705119  
C    0.8400945    0.7047457    2.2710304  
C    0.0000000    0.0000000    1.4700000  
C   -0.8844236   -0.7423113    2.3369512  
C   -0.4878984   -0.4098547    3.7186280  
N    0.5629682    0.4714286    3.6095011  
C   -1.0836927   -0.9095027    4.8308716  
C   -2.1891196   -1.8367527    4.6554461  
O   -2.7906899   -2.3413415    5.5944904  
C   -2.6257283   -2.2031529    3.2011665  
O   -3.5549479   -2.9829990    3.0410059  
C   -1.9068976   -1.5999348    2.0816745  
H   -0.7774656   -0.6525820    5.8354244  
H   -2.2155208   -1.8586617    1.0779135  
H    1.6384792    1.3747609    1.9961646  
H    1.0518368    0.8833920    4.3830260  
