62

C   10.1568935    2.1183770   -6.2200836  
C   11.3891429    1.6199819   -5.8656381  
C   11.1819123    0.7469252   -4.7568424  
C    9.7913610    0.7522940   -4.4770812  
N    9.1986856    1.5966962   -5.3828060  
C    9.2250472    0.0006541   -3.4431011  
C   10.0779848   -0.7706876   -2.6777864  
O    9.5778497   -1.5243232   -1.6555769  
C   11.4683502   -0.7889638   -2.9411657  
O   12.1844190   -1.6062230   -2.0910623  
C   12.0277608   -0.0474946   -3.9608763  
H   12.3227073    1.8574230   -6.3463391  
H    8.2155228    1.7929958   -5.4360919  
H   10.3316792   -1.9781146   -1.2567304  
H   13.1134904   -1.5612776   -2.3368468  
H   13.0962759   -0.0815147   -4.1386239  
H    9.8858749    2.8058164   -7.0029845  
C    6.7793184   -0.0000202   -4.0582541  
C    7.7853564    0.0004709   -3.1461341  
C    7.1695420    0.0010648   -1.8401450  
C    5.7118176    0.0008487   -2.0678072  
N    5.5416283    0.0005848   -3.4330637  
C    4.7795901    0.0008674   -1.0815733  
C    5.2428769    0.0013428    0.2960699  
O    4.4818131    0.0014585    1.2547580  
C    6.7823177    0.0018303    0.5605058  
O    7.1842444    0.0025393    1.7162372  
C    7.6891545    0.0014823   -0.5847011  
H    8.7535772    0.0016181   -0.3930572  
H    6.8379584   -0.0005567   -5.1345671  
H    4.6549022   -0.0011624   -3.9029153  
C    3.3321168    0.0004716   -1.3379341  
C    2.6974177    0.0000118   -2.5332316  
C    1.2800432   -0.0002116   -2.2052842  
C    1.2395033    0.0000644   -0.7271298  
N    2.4394059    0.0005460   -0.2131041  
C    0.0000000    0.0000000    0.0000000  
C   -1.1468704    0.0000635   -0.7169542  
O   -2.3742206    0.0000074   -0.1695488  
C   -1.1388774    0.0001608   -2.2096352  
O   -2.2206238    0.0000906   -2.7970409  
C    0.1454514    0.0001818   -2.9324241  
H    3.1367978   -0.0000649   -3.5160956  
H   -2.9844350    0.0001027   -0.9290164  
H    0.1083567    0.0003684   -4.0135594  
C    2.5285572    2.1210227    2.9438989  
C    1.9331703    1.6216660    4.0790748  
C    0.8903039    0.7472258    3.6520102  
C    0.8972198    0.7527806    2.2336141  
N    1.9028376    1.5986179    1.8362361  
C    0.0000000    0.0000000    1.4700000  
C   -0.9207814   -0.7726952    2.1506477  
O   -1.8198395   -1.5274828    1.4542253  
C   -0.9436862   -0.7911793    3.5655508  
O   -1.9197945   -1.6098497    4.0950179  
C   -0.0590329   -0.0485852    4.3195194  
H    2.2150357    1.8593692    5.0905303  
H    2.1533708    1.7953814    0.8841339  
H   -2.3621246   -1.9821033    2.1118817  
H   -1.8668290   -1.5649508    5.0545920  
H   -0.1007624   -0.0827977    5.4019087  
H    3.3491200    2.8096064    2.8367138  
