62

C   -0.7023863    0.5341390   -9.1324357  
C    0.2962845   -0.3164380   -9.5467338  
C    0.2655658   -0.3313310  -10.9727197  
C   -0.7813280    0.5368038  -11.3755610  
N   -1.3496164    1.0441250  -10.2335057  
C   -1.0994052    0.7661524  -12.7175802  
C   -0.3467444    0.1073537  -13.6702949  
O   -0.6145183    0.2953959  -14.9954177  
C    0.7016297   -0.7630922  -13.2881268  
O    1.3576953   -1.3443834  -14.3535021  
C    1.0158020   -0.9900330  -11.9643756  
H    0.9639850   -0.8602257   -8.9006196  
H   -2.1110632    1.6978666  -10.2051923  
H   -1.8961726    1.4264853  -13.0311482  
H    0.0176945   -0.2496243  -15.4817560  
H    2.0500425   -1.9166029  -14.0087921  
H    1.8242500   -1.6624198  -11.7021046  
C    0.8834462   -0.6856111   -5.2614101  
C    0.0950446    0.0004351   -4.4015596  
C   -0.8231766    0.7463697   -5.2482895  
C   -0.4365571    0.3825625   -6.6284179  
N    0.5632288   -0.4566167   -6.6424233  
C   -1.1157953    0.9193863   -7.7753883  
C   -2.1351883    1.7802105   -7.5536821  
O   -2.8563105    2.3569973   -8.5300741  
C   -2.5493391    2.1666369   -6.1726267  
O   -3.4857796    2.9553979   -6.0455227  
C   -1.8368913    1.6024053   -5.0124602  
H   -3.5050423    2.9140314   -8.0631553  
H   -2.1675084    1.9073659   -4.0286300  
H    1.6932801   -1.3582324   -5.0274793  
C    3.3321173    0.0004713   -1.3379338  
C    2.6974181    0.0000116   -2.5332314  
C    1.2800438   -0.0002119   -2.2052841  
C    1.2395034    0.0000643   -0.7271299  
N    2.4394062    0.0005460   -0.2131038  
C    0.0000000    0.0000000    0.0000000  
C   -1.1468702    0.0000634   -0.7169543  
O   -2.3742203    0.0000074   -0.1695487  
C   -1.1388770    0.0001607   -2.2096355  
O   -2.2206234    0.0000905   -2.7970411  
C    0.1454522    0.0001815   -2.9324241  
H    3.1367984   -0.0000653   -3.5160950  
H   -2.9844346    0.0001026   -0.9290167  
H    4.3940038    0.0007618   -1.1498640  
C    0.0000000    0.0000000    1.4700000  
C    1.0521667    0.0011902    2.3562342  
C    0.4917218    0.0011957    3.6679131  
C   -0.9187428   -0.0003148    3.5178682  
N   -1.1833171    0.0009411    2.1707914  
C   -1.7951701   -0.0010350    4.6072090  
C   -1.2375837   -0.0005224    5.8710424  
O   -2.0474215   -0.0015360    6.9697579  
C    0.1673580    0.0013566    6.0411963  
O    0.5673524    0.0020687    7.3615553  
C    1.0325770    0.0023412    4.9669890  
H    2.0953057    0.0030649    2.0900562  
H   -2.0989778   -0.0102372    1.7591824  
H   -2.8710934   -0.0020419    4.4995513  
H   -1.4634884   -0.0006497    7.7393593  
H    1.5290710    0.0033153    7.3880045  
H    2.1042148    0.0039609    5.1284455  
