60

C    0.4908847    0.5610109   -9.3429944  
C    1.5807097   -0.2784081   -9.3318359  
C    2.1375880   -0.2552063  -10.6448279  
C    1.3386677    0.6235976  -11.4202998  
N    0.3466235    1.1003570  -10.5998325  
C    1.5964162    0.8887720  -12.7686458  
C    2.6805969    0.2554939  -13.3445697  
O    2.9777382    0.4789150  -14.6578877  
C    3.4893707   -0.6250686  -12.5873962  
O    4.5308197   -1.1778377  -13.3037576  
C    3.2355249   -0.8873473  -11.2572459  
H    1.9305605   -0.8393978   -8.4821959  
H   -0.3664598    1.7532691  -10.8703843  
H    0.9912395    1.5574114  -13.3652072  
H    3.7596066   -0.0530554  -14.8552580  
H    5.0270471   -1.7592045  -12.7194847  
H    3.8725185   -1.5666685  -10.7029537  
C    0.2653130   -0.7042850   -5.1440081  
C   -0.8287665    0.0000939   -4.7555305  
C   -1.2825954    0.7423468   -5.9078915  
C   -0.3566068    0.4102556   -7.0074600  
N    0.5584970   -0.4707818   -6.4790216  
C   -0.4467546    0.9099656   -8.2659784  
C   -1.5278131    1.8369013   -8.5569047  
O   -1.6939208    2.3415173   -9.6596612  
C   -2.5200358    2.2029120   -7.4074112  
O   -3.4339539    2.9824911   -7.6403700  
C   -2.3204910    1.5996618   -6.0920693  
H   -3.0119741    1.8581177   -5.3016422  
H    0.8822123   -1.3741501   -4.5672886  
H    1.3206156   -0.8824728   -6.9857086  
C    1.0672569   -0.0000698   -0.8321910  
C    0.0000000    0.0000000    0.0000000  
C   -1.1601223   -0.0000736   -0.8778472  
C   -0.5938729   -0.0000768   -2.2438435  
N    0.7113367   -0.0001553   -2.2234123  
C   -1.4286985   -0.0001877   -3.4135239  
C   -2.7683113   -0.0006798   -3.2270524  
O   -3.6653902   -0.0008302   -4.2276970  
C   -3.3702024   -0.0010610   -1.8610774  
O   -4.5974910   -0.0013779   -1.7662963  
C   -2.4926825   -0.0008943   -0.6770658  
H   -4.5324245   -0.0012258   -3.7833954  
H   -2.9677772   -0.0012974    0.2947961  
H    2.1134391   -0.0000547   -0.5705119  
C    0.8400945    0.7047457    2.2710304  
C    0.0000000    0.0000000    1.4700000  
C   -0.8844236   -0.7423113    2.3369512  
C   -0.4878984   -0.4098547    3.7186280  
N    0.5629682    0.4714286    3.6095011  
C   -1.0836927   -0.9095027    4.8308716  
C   -2.1891196   -1.8367527    4.6554461  
O   -2.7906899   -2.3413415    5.5944904  
C   -2.6257283   -2.2031529    3.2011665  
O   -3.5549479   -2.9829990    3.0410059  
C   -1.9068976   -1.5999348    2.0816745  
H   -0.7774656   -0.6525820    5.8354244  
H   -2.2155208   -1.8586617    1.0779135  
H    1.6384792    1.3747609    1.9961646  
H    1.0518368    0.8833920    4.3830260  
