62

C   -0.0307358   -0.0004643   -4.4215602  
C    1.0189053   -0.0016745   -5.3107841  
C    0.4547307   -0.0019269   -6.6208635  
C   -0.9553011   -0.0005395   -6.4668059  
N   -1.2160420   -0.0016280   -5.1189819  
C   -1.8348247   -0.0000666   -7.5536491  
C   -1.2808357   -0.0007044   -8.8190642  
O   -2.0937964    0.0000674   -9.9154713  
C    0.1236162   -0.0024638   -8.9932144  
O    0.5198527   -0.0033255  -10.3147053  
C    0.9918880   -0.0032045   -7.9214728  
H    2.0627975   -0.0034036   -5.0475750  
H   -2.1305290    0.0095157   -4.7047714  
H   -2.9104370    0.0008455   -7.4429316  
H   -1.5120550   -0.0008701  -10.6867310  
H    1.4814922   -0.0044772  -10.3438913  
H    2.0630623   -0.0047375   -8.0859770  
C    3.2573667   -0.0002917   -1.5109384  
C    2.5379466   -0.0001708   -0.3591963  
C    1.1435040    0.0000333   -0.7338502  
C    1.1092604   -0.0000080   -2.2088477  
N    2.4227557    0.0001912   -2.6182616  
C   -0.0265537   -0.0002520   -2.9515661  
C   -1.3003040   -0.0002638   -2.2514979  
O   -2.3786786   -0.0004130   -2.8306424  
C   -1.2877728    0.0000313   -0.6895606  
O   -2.3539959    0.0003306   -0.0892032  
C    0.0000000    0.0000000    0.0000000  
H    2.9384091   -0.0000367    0.6389235  
H    2.7280487   -0.0013403   -3.5742117  
C    6.6174604   -0.0017048    1.3537079  
C    5.3857488   -0.0012517    0.7819027  
C    5.5854749   -0.0008502   -0.6481130  
C    7.0449748   -0.0011376   -0.8640994  
N    7.6133361   -0.0012548    0.3888394  
C    7.6418659   -0.0012957   -2.0828797  
C    6.7899760   -0.0009486   -3.2605121  
O    7.2316305   -0.0009947   -4.4021084  
C    5.2415214   -0.0003886   -3.0553447  
O    4.5141879    0.0002137   -4.0393396  
C    4.7161330   -0.0005432   -1.6923264  
H    4.4446710   -0.0010219    1.3024658  
H    8.7143817   -0.0016363   -2.2193395  
H    6.8814402   -0.0021127    2.3987936  
H    8.5996517   -0.0030073    0.5738414  
C    0.0000000    0.0000000    1.4700000  
C    1.0521667    0.0011902    2.3562342  
C    0.4917218    0.0011957    3.6679131  
C   -0.9187428   -0.0003148    3.5178682  
N   -1.1833171    0.0009411    2.1707914  
C   -1.7951701   -0.0010350    4.6072090  
C   -1.2375837   -0.0005224    5.8710424  
O   -2.0474215   -0.0015360    6.9697579  
C    0.1673580    0.0013566    6.0411963  
O    0.5673524    0.0020687    7.3615553  
C    1.0325770    0.0023412    4.9669890  
H    2.0953057    0.0030649    2.0900562  
H   -2.0989778   -0.0102372    1.7591824  
H   -2.8710934   -0.0020419    4.4995513  
H   -1.4634884   -0.0006497    7.7393593  
H    1.5290710    0.0033153    7.3880045  
H    2.1042148    0.0039609    5.1284455  
