60

C    1.9056577   -4.6125203   -6.6583799  
C    1.1643436   -3.5062440   -6.3133087  
C    1.5687903   -2.4473761   -7.1792307  
C    2.5679187   -2.9713807   -8.0389320  
N    2.7496692   -4.2877975   -7.6945020  
C    3.1949586   -2.2043666   -9.0254914  
C    2.8060873   -0.8844075   -9.1465903  
O    3.3857122   -0.0906358  -10.0936780  
C    1.8112410   -0.3432327   -8.2979284  
O    1.5346377    0.9859890   -8.5428844  
C    1.1924191   -1.0992537   -7.3242661  
H    0.4240204   -3.4669407   -5.5326869  
H    3.3895010   -4.9209960   -8.1390855  
H    3.9572456   -2.5977650   -9.6837910  
H    2.9758774    0.7800029  -10.0083041  
H    0.8531511    1.2732535   -7.9275315  
H    1.9001473   -5.6071242   -6.2464442  
C    0.0063634   -0.7183644   -5.1315053  
C    0.1635204   -0.4995840   -6.4624868  
C   -0.8683539    0.4283171   -6.8613241  
C   -1.6451053    0.7344066   -5.6448724  
N   -1.0641734    0.0073898   -4.6315339  
C   -2.7096569    1.5750805   -5.6036140  
C   -3.1177667    2.2213961   -6.8398410  
O   -4.0639318    2.9951407   -6.9061048  
C   -2.3096748    1.9116339   -8.1401646  
O   -2.6441266    2.4496386   -9.1870431  
C   -1.1807027    0.9881992   -8.0592840  
H   -3.2656681    1.7860227   -4.7006938  
H   -0.6262528    0.7791906   -8.9640628  
H    0.5824088   -1.3488893   -4.4738586  
C    1.1319248    0.0015675   -0.8009270  
C    0.7969916    0.0034959   -2.1169404  
C   -0.6453336    0.0035703   -2.1842672  
C   -1.1266831    0.0015415   -0.7896027  
N    0.0000000    0.0000000    0.0000000  
C   -2.4346129    0.0013924   -0.4276297  
C   -3.4350110    0.0031352   -1.4820184  
O   -4.6384610    0.0030897   -1.2583919  
C   -2.9478958    0.0050460   -2.9661075  
O   -3.7809377    0.0062160   -3.8623775  
C   -1.5113821    0.0053068   -3.2312125  
H    1.4821240    0.0045436   -2.9459192  
H   -2.7664565    0.0000185    0.6013447  
H    2.1104318    0.0009428   -0.3488058  
C    0.0000000    0.0000000    1.4700000  
C    1.0662921    0.0000102    2.3034270  
C    0.4961870   -0.0000064    3.6418889  
C   -0.9663858    0.0000850    3.4240247  
N   -1.2632773    0.0000084    2.1528658  
C   -1.8985362    0.0000517    4.5177257  
C   -1.3925775   -0.0004564    5.7720543  
O   -2.1456383   -0.0005410    6.8851312  
C    0.0786232   -0.0009323    6.0245000  
O    0.4683759   -0.0012588    7.1921102  
C    1.0143166   -0.0008442    4.8859032  
H    2.1107198   -0.0000632    2.0421868  
H   -2.9622183    0.0003270    4.3293377  
H   -1.5042274   -0.0009692    7.6184419  
H    2.0724152   -0.0013148    5.1109744  
