60

C    2.5562220   -0.0001552   -3.6003002  
C    3.5655135   -0.0006161   -2.6655282  
C    4.7980133   -0.0013042   -3.3835419  
C    4.4750733   -0.0009424   -4.7647138  
N    3.1056450   -0.0021963   -4.8610456  
C    5.4479449   -0.0011312   -5.7688602  
C    6.7709228   -0.0013882   -5.3714826  
O    7.7613134   -0.0012297   -6.3107058  
C    7.1131343   -0.0021264   -3.9982724  
O    8.4727600   -0.0027234   -3.7642570  
C    6.1538993   -0.0022140   -3.0071155  
H    3.4300852   -0.0015789   -1.5975155  
H    2.5841964    0.0082879   -5.7189281  
H    5.2083491   -0.0010017   -6.8232779  
H    8.5970863   -0.0017571   -5.8261980  
H    8.6176773   -0.0031743   -2.8131511  
H    6.4463537   -0.0029687   -1.9635889  
C    0.0000000    0.0000000    0.0000000  
C    1.0541690   -0.0001722   -0.8560392  
C    0.5103143   -0.0000454   -2.1935956  
C   -0.9576365    0.0002459   -2.0455735  
N   -1.2018458   -0.0001391   -0.6915971  
C   -1.8348304    0.0008316   -3.0810614  
C   -1.2972839    0.0009736   -4.4314607  
O   -2.0050661    0.0014265   -5.4301325  
C    0.2542633    0.0004184   -4.6117571  
O    0.7184680    0.0002257   -5.7439119  
C    1.0974559    0.0000874   -3.4189129  
H    2.0940753   -0.0005483   -0.5817981  
H   -2.1128193    0.0014911   -0.2706794  
C   -3.9877622    0.7060331   -1.9730991  
C   -3.2941067    0.0012872   -2.9038248  
C   -4.2616222   -0.7404944   -3.6774585  
C   -5.5852967   -0.4077266   -3.1171535  
N   -5.3499613    0.4732127   -2.0868852  
C   -6.7614322   -0.9068541   -3.5746271  
C   -6.7208849   -1.8338321   -4.6933775  
O   -7.7257829   -2.3379523   -5.1774683  
C   -5.3299814   -2.2005541   -5.3022361  
O   -5.2832925   -2.9801756   -6.2441868  
C   -4.1317809   -1.5978951   -4.7234714  
H   -7.7216470   -0.6497125   -3.1494501  
H   -3.1726416   -1.8568419   -5.1509320  
H   -3.6184111    1.3757275   -1.2135079  
H   -6.0587598    0.8852714   -1.5082145  
C    1.0672568    0.0000697    2.3021913  
C    0.0000000    0.0000000    1.4700000  
C   -1.1601224    0.0000736    2.3478473  
C   -0.5938729    0.0000769    3.7138435  
N    0.7113367    0.0001554    3.6934124  
C   -1.4286986    0.0001879    4.8835240  
C   -2.7683114    0.0006799    4.6970523  
O   -3.6653903    0.0008304    5.6976972  
C   -3.3702025    0.0010610    3.3310774  
O   -4.5974910    0.0013779    3.2362962  
C   -2.4926826    0.0008943    2.1470656  
H   -0.9878360   -0.0000190    5.8697035  
H   -4.5324246    0.0012261    5.2533954  
H   -2.9677772    0.0012974    1.1752040  
H    2.1134392    0.0000545    2.0405121  
