64

C   -6.7078559    0.0102592   -0.1470561  
C   -5.7011166    0.0117733    0.7904627  
C   -6.3261717    0.0144180    2.0726092  
C   -7.7274172    0.0141093    1.8525262  
N   -7.9245946    0.0135117    0.4939474  
C   -8.6569934    0.0159999    2.8968797  
C   -8.1630212    0.0179360    4.1869052  
O   -9.0265581    0.0194802    5.2439366  
C   -6.7682929    0.0186506    4.4267956  
O   -6.4345309    0.0210360    5.7654302  
C   -5.8506639    0.0170596    3.3969995  
H   -4.6460176    0.0121647    0.5765494  
H   -8.8186382    0.0026183    0.0372765  
H   -9.7262229    0.0159206    2.7357881  
H   -8.4816652    0.0209842    6.0416562  
H   -5.4753213    0.0213435    5.8397288  
H   -4.7883928    0.0178409    3.6116088  
C   -3.2578655    0.0024039   -2.9908504  
C   -4.0349370    0.0043587   -1.8556749  
C   -5.3958983    0.0056179   -2.2827397  
C   -5.3870312    0.0040491   -3.7011351  
N   -4.0729888    0.0040658   -4.0985144  
C   -6.5582196    0.0043938   -4.4647489  
C   -7.7602566    0.0060510   -3.7841015  
O   -8.9341439    0.0061072   -4.4805229  
C   -7.7896819    0.0080076   -2.3691991  
O   -9.0636545    0.0099262   -1.8397326  
C   -6.6346679    0.0079421   -1.6152312  
H   -3.6662215    0.0059255   -0.8442207  
H   -3.7546023   -0.0074430   -5.0506064  
H   -6.5582208    0.0033485   -5.5460445  
H   -9.6417821    0.0076766   -3.8228672  
H   -8.9942190    0.0111420   -0.8801593  
C    0.0000000    0.0000000    0.0000000  
C    1.0521667   -0.0011902   -0.8862342  
C    0.4917216   -0.0011957   -2.1979129  
C   -0.9187429    0.0003148   -2.0478680  
N   -1.1833171   -0.0009412   -0.7007912  
C   -1.7951702    0.0010350   -3.1372088  
C   -1.2375841    0.0005225   -4.4010424  
O   -2.0474217    0.0015360   -5.4997576  
C    0.1673577   -0.0013567   -4.5711964  
O    0.5673522   -0.0020688   -5.8915554  
C    1.0325769   -0.0023413   -3.4969890  
H    2.0953057   -0.0030649   -0.6200562  
H   -2.0989779    0.0102372   -0.2891821  
H   -1.4634887    0.0006498   -6.2693588  
H    1.5290708   -0.0033153   -5.9180049  
H    2.1042148   -0.0039610   -3.6584453  
C    1.1319247   -0.0015655    2.2709268  
C    0.7969915   -0.0034943    3.5869401  
C   -0.6453339   -0.0035710    3.6542670  
C   -1.1266833   -0.0015433    2.2596025  
N    0.0000000    0.0000000    1.4700000  
C   -2.4346130   -0.0013964    1.8976294  
C   -3.4350110   -0.0031408    2.9520183  
O   -4.6384611   -0.0030974    2.7283916  
C   -2.9478959   -0.0050506    4.4361073  
O   -3.7809380   -0.0062218    5.3323774  
C   -1.5113823   -0.0053090    4.7012123  
H    1.4821238   -0.0045407    4.4159191  
H   -2.7664565   -0.0000232    0.8686553  
H   -1.1823530   -0.0068408    5.7314848  
H    2.1104316   -0.0009391    1.8188057  
