60

C    6.7636938   -0.0009527    0.9023169  
C    5.4671763   -0.0013101    0.4424133  
C    5.5308674   -0.0015360   -0.9825579  
C    6.9040849   -0.0015865   -1.3378040  
N    7.6252196    0.0007239   -0.1696528  
C    7.3417435   -0.0020994   -2.6656760  
C    6.3755446   -0.0028771   -3.6529133  
O    6.7475665   -0.0037537   -4.9661586  
C    5.0004299   -0.0024646   -3.3184348  
O    4.1619027   -0.0029228   -4.4139783  
C    4.5679461   -0.0016852   -2.0086700  
H    4.5841351   -0.0002918    1.0582295  
H    8.6271383   -0.0093205   -0.1061169  
H    8.3868646   -0.0019967   -2.9430282  
H    5.9304031   -0.0038905   -5.4814346  
H    3.2522420   -0.0026268   -4.1007370  
H    7.1420553   -0.0003154    1.9101865  
C    3.1301152   -0.0010311   -1.7028251  
C    2.5367770   -0.0002766   -0.4864665  
C    1.1089905    0.0001028   -0.7656183  
C    1.0177873   -0.0004148   -2.2415130  
N    2.1993580   -0.0011610   -2.7963820  
C   -0.2459208   -0.0002877   -2.9257119  
C   -1.3675318   -0.0000605   -2.1698523  
O   -2.6129310    0.0000866   -2.6748492  
C   -1.3083584    0.0000911   -0.6783232  
O   -2.3693259    0.0004206   -0.0541692  
C    0.0000000    0.0000000    0.0000000  
H    3.0096019   -0.0001007    0.4807529  
H   -3.1967440    0.0002093   -1.8949035  
C   -0.2963281   -0.0005339   -4.3948471  
C    0.7407580   -0.0008424   -5.2643483  
C    0.1250914   -0.0009651   -6.5824737  
C   -1.3291505   -0.0008024   -6.3145847  
N   -1.5822785   -0.0004687   -5.0339930  
C   -2.2982564   -0.0008136   -7.3756783  
C   -1.8356072   -0.0005908   -8.6466191  
O   -2.6263931   -0.0005806   -9.7332187  
C   -0.3739281   -0.0003762   -8.9493654  
O   -0.0244428   -0.0003032  -10.1296538  
C    0.6002582   -0.0004128   -7.8435235  
H    1.7935297   -0.0008806   -5.0390756  
H   -3.3548530   -0.0008990   -7.1509267  
H   -2.0105053   -0.0003707  -10.4880926  
H    1.6500167   -0.0001373   -8.1047447  
C    2.5128556    2.1077716    2.9199648  
C    1.9592212    1.6432552    4.0696553  
C    0.8915788    0.7479214    3.6910360  
C    0.8684491    0.7287414    2.2159470  
N    1.8754542    1.5738793    1.8102719  
C    0.0000000    0.0000000    1.4700000  
C   -0.9772830   -0.8200135    2.1664417  
O   -1.8021297   -1.5120829    1.5842315  
C   -0.9711318   -0.8147624    3.7284083  
O   -1.7894187   -1.5009653    4.3257297  
C    0.0140216    0.0115358    4.4216297  
H    2.2638494    1.8988021    5.0689105  
H    0.0117648    0.0094386    5.5031631  
H    3.3327358    2.7953732    2.7900019  
H    2.1123206    1.7707734    0.8551938  
