66

C   -0.3469399   -0.9760699   -9.4739435  
C   -0.4691886    0.0990876   -8.6244976  
C   -0.7391550    1.2414194   -9.4349271  
C   -0.7705477    0.7980798  -10.7819206  
N   -0.5266949   -0.5528504  -10.7700623  
C   -1.0124079    1.6595820  -11.8562139  
C   -1.2267784    2.9928684  -11.5654035  
O   -1.4679454    3.8774395  -12.5765345  
C   -1.1990364    3.4544356  -10.2278676  
O   -1.4303464    4.8087140  -10.1022920  
C   -0.9602270    2.6051550   -9.1675750  
H   -0.4979467   -1.1445293  -11.5806608  
H   -1.0374916    1.3279576  -12.8850950  
H   -1.5878454    4.7412117  -12.1608595  
H   -1.3944521    5.0381103   -9.1686478  
H   -0.9448439    2.9877013   -8.1537220  
H   -0.1443266   -2.0110794   -9.2579304  
C    2.3136485   -2.1180444   -5.9171369  
C    1.6624057   -1.6181594   -7.0209780  
C    0.6419641   -0.7441445   -6.5420234  
C    0.7194929   -0.7504913   -5.1257342  
N    1.7437759   -1.5963709   -4.7793978  
C   -0.1387079    0.0017019   -4.3179684  
C   -1.0923525    0.7746131   -4.9514883  
O   -1.9557349    1.5288503   -4.2107391  
C   -1.1856784    0.7938843   -6.3634860  
O   -2.1870611    1.6126762   -6.8432319  
C   -0.3395499    0.0518701   -7.1609864  
H    1.8935977   -1.8552464   -8.0453476  
H    2.0414323   -1.7936219   -3.8410621  
H   -2.5301603    1.9837418   -4.8403212  
H   -2.1819310    1.5683235   -7.8042789  
H    3.1386340   -2.8065412   -5.8513307  
C    3.3041273    0.0001178   -1.5420428  
C    2.5845373   -0.0004780   -0.3695851  
C    1.2040007   -0.0000007   -0.7283589  
C    1.1422374    0.0006038   -2.1454372  
N    2.4348641    0.0026111   -2.6077464  
C   -0.0655179    0.0008799   -2.8497918  
C   -1.2321766    0.0002325   -2.1101402  
O   -2.4392814    0.0001148   -2.7472522  
C   -1.1911209   -0.0000007   -0.6955266  
O   -2.4371528   -0.0002320   -0.1032862  
C    0.0000000    0.0000000    0.0000000  
H    3.0031533   -0.0000660    0.6222584  
H    2.7054631   -0.0071097   -3.5745261  
H   -3.1132988   -0.0000648   -2.0551787  
H   -2.3200282   -0.0004072    0.8516409  
H    4.3686625    0.0004073   -1.7024290  
C    2.5285572    2.1210227    2.9438989  
C    1.9331703    1.6216660    4.0790748  
C    0.8903039    0.7472258    3.6520102  
C    0.8972198    0.7527806    2.2336141  
N    1.9028376    1.5986179    1.8362361  
C    0.0000000    0.0000000    1.4700000  
C   -0.9207814   -0.7726952    2.1506477  
O   -1.8198395   -1.5274828    1.4542253  
C   -0.9436862   -0.7911793    3.5655508  
O   -1.9197945   -1.6098497    4.0950179  
C   -0.0590329   -0.0485852    4.3195194  
H    2.2150357    1.8593692    5.0905303  
H    2.1533708    1.7953814    0.8841339  
H   -2.3621246   -1.9821033    2.1118817  
H   -1.8668290   -1.5649508    5.0545920  
H   -0.1007624   -0.0827977    5.4019087  
H    3.3491200    2.8096064    2.8367138  
