60

C    4.4960352   -0.0158409   -6.6738591  
C    5.6817521   -0.6917068   -6.8463357  
C    6.1833299   -0.3311206   -8.1320246  
C    5.2533798    0.5754583   -8.7023173  
N    4.2400633    0.7435418   -7.7915194  
C    5.4268917    1.1393260   -9.9698882  
C    6.5599732    0.7817245  -10.6744637  
O    6.7790249    1.3030728  -11.9167301  
C    7.4992466   -0.1215792  -10.1225359  
O    8.5748141   -0.3781267  -10.9475713  
C    7.3285834   -0.6784452   -8.8722168  
H    6.1294829   -1.3629936   -6.1336616  
H    3.4417418    1.3397143   -7.9149772  
H    4.7217605    1.8307707  -10.4102257  
H    7.6134649    0.9279735  -12.2270119  
H    9.1605853   -0.9964849  -10.5002356  
H    8.0650590   -1.3675759   -8.4757565  
C    4.5294737   -2.1111782   -2.7873597  
C    4.8355744   -1.6481501   -4.0267074  
C    3.7722453   -0.7522114   -4.4158855  
C    2.8147155   -0.7310542   -3.2936207  
N    3.3317093   -1.5757416   -2.3385756  
C    1.6707636   -0.0012343   -3.2725974  
C    1.3618922    0.8179364   -4.4328096  
O    0.3558260    1.5108612   -4.5101844  
C    2.3616940    0.8105935   -5.6328714  
O    2.1121102    1.4960717   -6.6152604  
C    3.5619235   -0.0167234   -5.5388102  
H    5.7067347   -1.9050629   -4.6026320  
H    5.0780200   -2.7986812   -2.1642009  
H    2.9056661   -1.7713787   -1.4512985  
C    1.0965514    0.0001358   -0.8010306  
C    0.0000000    0.0000000    0.0000000  
C   -1.1546565    0.0001470   -0.8669508  
C   -0.6372019    0.0003520   -2.2486278  
N    0.7342867    0.0007338   -2.1395012  
C   -1.4147744    0.0001354   -3.3608712  
C   -2.8576052   -0.0001047   -3.1854454  
O   -3.6427785   -0.0002490   -4.1244896  
C   -3.4275841   -0.0000727   -1.7311660  
O   -4.6406832    0.0000333   -1.5710049  
C   -2.4891868   -0.0001090   -0.6116739  
H   -1.0150456    0.0001617   -4.3654239  
H   -2.8919122   -0.0002919    0.3920871  
H    2.1388270    0.0000663   -0.5261650  
C    2.5128556    2.1077716    2.9199648  
C    1.9592212    1.6432552    4.0696553  
C    0.8915788    0.7479214    3.6910360  
C    0.8684491    0.7287414    2.2159470  
N    1.8754542    1.5738793    1.8102719  
C    0.0000000    0.0000000    1.4700000  
C   -0.9772830   -0.8200135    2.1664417  
O   -1.8021297   -1.5120829    1.5842315  
C   -0.9711318   -0.8147624    3.7284083  
O   -1.7894187   -1.5009653    4.3257297  
C    0.0140216    0.0115358    4.4216297  
H    2.2638494    1.8988021    5.0689105  
H    0.0117648    0.0094386    5.5031631  
H    3.3327358    2.7953732    2.7900019  
H    2.1123206    1.7707734    0.8551938  
