64

C    2.8326037   -0.6833169   -3.3633887  
C    1.6628925    0.0340039   -3.2649298  
C    1.5245657    0.7732864   -4.4769228  
C    2.6494000    0.4640148   -5.2837844  
N    3.4243857   -0.4216253   -4.5769211  
C    2.8434623    1.0151249   -6.5539838  
C    1.8843885    1.8942270   -7.0182412  
O    2.0241860    2.4610989   -8.2519861  
C    0.7553092    2.2155784   -6.2278433  
O   -0.1091983    3.1064613   -6.8297557  
C    0.5633518    1.6724810   -4.9745581  
H    4.2836781   -0.8276226   -4.9005934  
H    1.2565215    3.0339106   -8.3778529  
H   -0.8436592    3.2698334   -6.2301885  
H   -0.3112987    1.9376388   -4.3921873  
H    3.2923186   -1.3598082   -2.6634028  
C    1.1243406    0.0100688   -0.7919002  
C    0.7474059    0.0235054   -2.1148541  
C   -0.6787399    0.0234027   -2.1414695  
C   -1.1201753    0.0097828   -0.7935544  
N    0.0000000    0.0000000    0.0000000  
C   -2.4730820    0.0062021   -0.4408240  
C   -3.3971973    0.0168663   -1.4675053  
O   -4.7313527    0.0143032   -1.1793467  
C   -2.9763671    0.0301476   -2.8186322  
O   -4.0166505    0.0392380   -3.7247624  
C   -1.6418583    0.0334141   -3.1673479  
H   -2.8160161   -0.0043035    0.5845968  
H   -5.1938832    0.0227323   -2.0274379  
H   -3.6464707    0.0479806   -4.6127339  
H   -1.3497499    0.0434950   -4.2109234  
H    2.1062463    0.0054254   -0.3505402  
C    4.9921681   -2.7759425   -7.3088040  
C    5.9322595   -2.2748319   -8.1791964  
C    5.6684133   -0.8800639   -8.3192248  
C    4.5462199   -0.5848051   -7.5034858  
N    4.1593253   -1.7584931   -6.9056676  
C    4.0061024    0.7003593   -7.3966531  
C    4.6100170    1.7058366   -8.1263654  
O    4.1234060    2.9792660   -8.0585385  
C    5.7303417    1.4309435   -8.9461968  
O    6.2183986    2.5376198   -9.6098322  
C    6.2635461    0.1632819   -9.0522810  
H    6.7115685   -2.8447096   -8.6555473  
H    3.3952174   -1.8575754   -6.2620037  
H    4.6819519    3.5161016   -8.6356859  
H    6.9733381    2.2655843  -10.1405560  
H    7.1221876   -0.0169276   -9.6884703  
H    4.8489546   -3.7789047   -6.9447767  
C    2.5128556    2.1077716    2.9199648  
C    1.9592212    1.6432552    4.0696553  
C    0.8915788    0.7479214    3.6910360  
C    0.8684491    0.7287414    2.2159470  
N    1.8754542    1.5738793    1.8102719  
C    0.0000000    0.0000000    1.4700000  
C   -0.9772830   -0.8200135    2.1664417  
O   -1.8021297   -1.5120829    1.5842315  
C   -0.9711318   -0.8147624    3.7284083  
O   -1.7894187   -1.5009653    4.3257297  
C    0.0140216    0.0115358    4.4216297  
H    2.2638494    1.8988021    5.0689105  
H    0.0117648    0.0094386    5.5031631  
H    3.3327358    2.7953732    2.7900019  
H    2.1123206    1.7707734    0.8551938  
