60

C    0.9223629   -1.1117570   -7.6884241  
C    1.9747255   -1.9964147   -7.7372198  
C    2.2376102   -2.2551457   -9.1150986  
C    1.3062349   -1.4937810   -9.8666228  
N    0.5213725   -0.8127661   -8.9695018  
C    1.2735505   -1.5044705  -11.2643382  
C    2.1981204   -2.2979775  -11.9152565  
O    2.2106989   -2.3452686  -13.2793018  
C    3.1351670   -3.0651115  -11.1829554  
O    3.9892869   -3.8038047  -11.9755171  
C    3.1678134   -3.0552604   -9.8040560  
H    2.4888670   -2.4058444   -6.8845658  
H   -0.2218380   -0.1821877   -9.2103122  
H    0.5661301   -0.9265816  -11.8429601  
H    2.9228818   -2.9499994  -13.5249864  
H    4.5891659   -4.2920818  -11.4033849  
H    3.8970653   -3.6534962   -9.2704048  
C    0.5437027   -0.7271853   -5.2249456  
C    0.2434228   -0.5105994   -6.5314668  
C   -0.8629397    0.4167214   -6.5610285  
C   -1.1848921    0.7248622   -5.1545481  
N   -0.2963293   -0.0005341   -4.3948471  
C   -2.1737969    1.5656803   -4.7585730  
C   -2.9746387    2.2099975   -5.7862128  
O   -3.8882418    2.9837017   -5.5312372  
C   -2.6514144    1.8980444   -7.2822129  
O   -3.3190915    2.4343558   -8.1561913  
C   -1.5606853    0.9746612   -7.5847428  
H   -2.3934216    1.7781436   -3.7214932  
H   -1.3431573    0.7641283   -8.6230494  
H    1.3078526   -1.3566731   -4.7986720  
C    3.1301146   -0.0010313   -1.7028256  
C    2.5367765   -0.0002766   -0.4864669  
C    1.1089901    0.0001027   -0.7656184  
C    1.0177865   -0.0004150   -2.2415133  
N    2.1993571   -0.0011612   -2.7963824  
C   -0.2459219   -0.0002879   -2.9257116  
C   -1.3675326   -0.0000606   -2.1698520  
O   -2.6129318    0.0000865   -2.6748483  
C   -1.3083588    0.0000910   -0.6783229  
O   -2.3693264    0.0004206   -0.0541685  
C    0.0000000    0.0000000    0.0000000  
H    3.0096016   -0.0001007    0.4807518  
H   -3.1967444    0.0002093   -1.8949026  
H    4.1849275   -0.0015114   -1.9271979  
C    0.0000000    0.0000000    1.4700000  
C    1.0541688    0.0001722    2.3260392  
C    0.5103138    0.0000454    3.6635956  
C   -0.9576371   -0.0002459    3.5155732  
N   -1.2018458    0.0001392    2.1615969  
C   -1.8348311   -0.0008317    4.5510609  
C   -1.2972847   -0.0009736    5.9014604  
O   -2.0050672   -0.0014265    6.9001319  
C    0.2542623   -0.0004184    6.0817573  
O    0.7184670   -0.0002256    7.2139121  
C    1.0974552   -0.0000873    4.8889129  
H    2.0940752    0.0005483    2.0517982  
H   -2.9081052   -0.0011668    4.4207061  
H    2.1707277    0.0000911    5.0223670  
H   -2.1128194   -0.0014912    1.7406791  
