62

C    1.2391461   -1.0756975   -7.6976283  
C    2.2915445   -1.9615183   -7.7133218  
C    2.5956823   -2.2225370   -9.0822517  
C    1.6882760   -1.4613048   -9.8626784  
N    0.8773900   -0.7781640   -8.9906690  
C    1.6978482   -1.4740042  -11.2607255  
C    2.6408131   -2.2694221  -11.8822599  
O    2.6945702   -2.3187210  -13.2452319  
C    3.5544634   -3.0364578  -11.1208683  
O    4.4313524   -3.7771962  -11.8861881  
C    3.5454213   -3.0246243   -9.7416283  
H    2.7792315   -2.3702346   -6.8449295  
H    0.1424819   -0.1471666   -9.2547399  
H    1.0088690   -0.8962276  -11.8612959  
H    3.4132003   -2.9245504  -13.4684078  
H    5.0131325   -4.2652589  -11.2954851  
H    4.2575597   -3.6228366   -9.1853189  
C    0.8071496   -0.7052396   -5.2248761  
C   -0.0307352   -0.0004646   -4.4215603  
C   -0.9176982    0.7416310   -5.2860987  
C   -0.5250711    0.4090158   -6.6688499  
N    0.5261925   -0.4721441   -6.5625864  
C   -1.1240788    0.9084421   -7.7794661  
C   -2.2290975    1.8356039   -7.6010302  
O   -2.8333891    2.3399956   -8.5384317  
C   -2.6616048    2.2021692   -6.1455669  
O   -3.5904453    2.9819429   -5.9828754  
C   -1.9395302    1.5991864   -5.0280374  
H   -0.8206844    0.6514079   -8.7848490  
H   -2.2453232    1.8580265   -4.0234399  
H    1.6063819   -1.3751330   -4.9521863  
C    3.2573670   -0.0002920   -1.5109380  
C    2.5379468   -0.0001709   -0.3591961  
C    1.1435043    0.0000332   -0.7338500  
C    1.1092609   -0.0000082   -2.2088477  
N    2.4227562    0.0001909   -2.6182613  
C   -0.0265532   -0.0002522   -2.9515663  
C   -1.3003035   -0.0002639   -2.2514981  
O   -2.3786784   -0.0004131   -2.8306429  
C   -1.2877725    0.0000312   -0.6895608  
O   -2.3539958    0.0003307   -0.0892036  
C    0.0000000    0.0000000    0.0000000  
H    2.9384091   -0.0000369    0.6389239  
H    4.3270394   -0.0004765   -1.6439446  
H    2.7280494   -0.0013406   -3.5742113  
C    2.5285572    2.1210227    2.9438989  
C    1.9331703    1.6216660    4.0790748  
C    0.8903039    0.7472258    3.6520102  
C    0.8972198    0.7527806    2.2336141  
N    1.9028376    1.5986179    1.8362361  
C    0.0000000    0.0000000    1.4700000  
C   -0.9207814   -0.7726952    2.1506477  
O   -1.8198395   -1.5274828    1.4542253  
C   -0.9436862   -0.7911793    3.5655508  
O   -1.9197945   -1.6098497    4.0950179  
C   -0.0590329   -0.0485852    4.3195194  
H    2.2150357    1.8593692    5.0905303  
H    2.1533708    1.7953814    0.8841339  
H   -2.3621246   -1.9821033    2.1118817  
H   -1.8668290   -1.5649508    5.0545920  
H   -0.1007624   -0.0827977    5.4019087  
H    3.3491200    2.8096064    2.8367138  
