60

C    6.2415075   -3.2556265   -9.0248457  
C    6.5775774   -2.4884664  -10.1161704  
C    6.1849348   -1.1494067   -9.8206176  
C    5.6103650   -1.1607536   -8.5238272  
N    5.6587415   -2.4555134   -8.0700927  
C    5.1118931   -0.0090902   -7.9073959  
C    5.1952363    1.1756629   -8.6127980  
O    4.7239452    2.3301701   -8.0578112  
C    5.7647476    1.2071791   -9.9079736  
O    5.7748087    2.4624134  -10.4803627  
C    6.2564548    0.0713742  -10.5168231  
H    7.0468795   -2.8497567  -11.0151797  
H    5.3324350   -2.7689653   -7.1738494  
H    4.8770778    3.0280526   -8.7080221  
H    6.1754425    2.3957823  -11.3525187  
H    6.6869070    0.1264124  -11.5098790  
H    6.3700948   -4.3104887   -8.8525394  
C    6.1837010   -2.1071894   -4.1730100  
C    6.1473624   -1.6429265   -5.4486332  
C    5.0179318   -0.7478965   -5.5388751  
C    4.3948021   -0.7286186   -4.2016659  
N    5.1487785   -1.5734154   -3.4201754  
C    3.2973506   -0.0000934   -3.8752374  
C    2.6891816    0.8195676   -4.9100425  
O    1.6983689    1.5114228   -4.7152918  
C    3.3322636    0.8142071   -6.3334965  
O    2.8288281    1.5001137   -7.2128968  
C    4.5147646   -0.0118351   -6.5641428  
H    6.8333445   -1.8984502   -6.2365098  
H    6.8793287   -2.7945273   -3.7196245  
H    4.9752873   -1.7701682   -2.4515493  
C    3.3321174    0.0004714   -1.3379332  
C    2.6974186    0.0000115   -2.5332308  
C    1.2800441   -0.0002119   -2.2052838  
C    1.2395035    0.0000643   -0.7271293  
N    2.4394063    0.0005458   -0.2131034  
C    0.0000000    0.0000000    0.0000000  
C   -1.1468701    0.0000634   -0.7169542  
O   -2.3742201    0.0000072   -0.1695492  
C   -1.1388767    0.0001606   -2.2096354  
O   -2.2206229    0.0000903   -2.7970413  
C    0.1454526    0.0001815   -2.9324239  
H   -2.9844344    0.0001023   -0.9290168  
H    0.1083580    0.0003680   -4.0135594  
H    4.3940040    0.0007617   -1.1498630  
C    2.5128556    2.1077716    2.9199648  
C    1.9592212    1.6432552    4.0696553  
C    0.8915788    0.7479214    3.6910360  
C    0.8684491    0.7287414    2.2159470  
N    1.8754542    1.5738793    1.8102719  
C    0.0000000    0.0000000    1.4700000  
C   -0.9772830   -0.8200135    2.1664417  
O   -1.8021297   -1.5120829    1.5842315  
C   -0.9711318   -0.8147624    3.7284083  
O   -1.7894187   -1.5009653    4.3257297  
C    0.0140216    0.0115358    4.4216297  
H    2.2638494    1.8988021    5.0689105  
H    0.0117648    0.0094386    5.5031631  
H    3.3327358    2.7953732    2.7900019  
H    2.1123206    1.7707734    0.8551938  
