64

C    3.3003542    0.0005276   -1.4738995  
C    2.5232807    0.0003499   -2.6090754  
C    1.1623196   -0.0001317   -2.1820105  
C    1.1711880    0.0000584   -0.7636143  
N    2.4852302   -0.0014919   -0.3662359  
C    0.0000000    0.0000000    0.0000000  
C   -1.2020385    0.0000520   -0.6806476  
O   -2.3759251    0.0003495    0.0157751  
C   -1.2314662   -0.0005111   -2.0955503  
O   -2.5054392   -0.0008035   -2.6250176  
C   -0.0764521   -0.0007270   -2.8495195  
H    2.8919946   -0.0005618   -3.6205304  
H    2.8036265    0.0088180    0.5858656  
H   -3.0835641    0.0000348   -0.6418810  
H   -2.4360054   -0.0011524   -3.5845918  
H    4.3715548    0.0004895   -1.3667143  
C   -0.1496421   -0.0015610   -4.3176959  
C    0.8738319   -0.0018368   -5.2031789  
C    0.2377927   -0.0026902   -6.5115958  
C   -1.2121187   -0.0029422   -6.2211808  
N   -1.4453520   -0.0022021   -4.9368174  
C   -2.1975674   -0.0037104   -7.2671140  
C   -1.7546887   -0.0038155   -8.5450789  
O   -2.5622342   -0.0045087   -9.6192803  
C   -0.2978817   -0.0031970   -8.8704617  
O    0.0332533   -0.0034571  -10.0560291  
C    0.6933411   -0.0024574   -7.7798648  
H    1.9299710   -0.0014123   -4.9942643  
H   -3.2505505   -0.0040854   -7.0259997  
H   -1.9581302   -0.0043718  -10.3836179  
C    4.1884896   -2.1213986   -6.0908097  
C    5.1326961   -1.6216050   -6.9574972  
C    4.4519435   -0.7476243   -7.8560147  
C    3.0827780   -0.7538966   -7.4855119  
N    2.9571003   -1.5997012   -6.4115298  
C    2.1141613   -0.0017121   -8.1569193  
C    2.5354322    0.7711137   -9.2215548  
O    1.6312865    1.5253386   -9.9119742  
C    3.8971135    0.7903098   -9.6066168  
O    4.1580454    1.6090212  -10.6859548  
C    4.8531790    0.0483040   -8.9448825  
H    6.1827416   -1.8587297   -6.9444770  
H    2.1012212   -1.7968890   -5.9251459  
H    2.1275944    1.9801664  -10.6048484  
H    5.0991265    1.5646212  -10.8808878  
H    5.8886337    0.0830556   -9.2628516  
H    4.2957427   -2.8098454   -5.2701412  
C    2.5285572    2.1210227    2.9438989  
C    1.9331703    1.6216660    4.0790748  
C    0.8903039    0.7472258    3.6520102  
C    0.8972198    0.7527806    2.2336141  
N    1.9028376    1.5986179    1.8362361  
C    0.0000000    0.0000000    1.4700000  
C   -0.9207814   -0.7726952    2.1506477  
O   -1.8198395   -1.5274828    1.4542253  
C   -0.9436862   -0.7911793    3.5655508  
O   -1.9197945   -1.6098497    4.0950179  
C   -0.0590329   -0.0485852    4.3195194  
H    2.2150357    1.8593692    5.0905303  
H    2.1533708    1.7953814    0.8841339  
H   -2.3621246   -1.9821033    2.1118817  
H   -1.8668290   -1.5649508    5.0545920  
H   -0.1007624   -0.0827977    5.4019087  
H    3.3491200    2.8096064    2.8367138  
