60

C   -0.9302124   -0.5428710   -9.5098649  
C   -1.2650274    0.6885080   -8.9959857  
C   -1.2648482    1.6085783  -10.0859717  
C   -0.9199706    0.8748986  -11.2498878  
N   -0.7215962   -0.4276386  -10.8643205  
C   -0.8239886    1.4638007  -12.5143115  
C   -1.0811344    2.8179579  -12.6054818  
O   -1.0020166    3.4434500  -13.8160647  
C   -1.4263738    3.5671223  -11.4555335  
O   -1.6519761    4.9041251  -11.7102294  
C   -1.5209842    2.9868672  -10.2077849  
H   -0.4760726   -1.1835078  -11.4778027  
H   -0.5614517    0.9101734  -13.4052523  
H   -1.2154535    4.3722724  -13.6579572  
H   -1.8793166    5.3374062  -10.8818659  
H   -1.7873143    3.5863164   -9.3451102  
H   -0.8223117   -1.4939519   -9.0171565  
C    0.5437040   -0.7271841   -5.2249457  
C    0.2434239   -0.5105988   -6.5314673  
C   -0.8629401    0.4167202   -6.5610285  
C   -1.1848933    0.7248606   -5.1545486  
N   -0.2963293   -0.0005341   -4.3948471  
C   -2.1737995    1.5656769   -4.7585734  
C   -2.9746425    2.2099925   -5.7862126  
O   -3.8882472    2.9836954   -5.5312379  
C   -2.6514176    1.8980399   -7.2822132  
O   -3.3190953    2.4343498   -8.1561921  
C   -1.5606866    0.9746586   -7.5847433  
H    0.7401408   -0.9504079   -7.3779028  
H   -2.3934249    1.7781400   -3.7214936  
H    1.3078554   -1.3566705   -4.7986721  
C    3.1301146   -0.0010313   -1.7028256  
C    2.5367765   -0.0002766   -0.4864669  
C    1.1089901    0.0001027   -0.7656184  
C    1.0177865   -0.0004150   -2.2415133  
N    2.1993571   -0.0011612   -2.7963824  
C   -0.2459219   -0.0002879   -2.9257116  
C   -1.3675326   -0.0000606   -2.1698520  
O   -2.6129318    0.0000865   -2.6748483  
C   -1.3083588    0.0000910   -0.6783229  
O   -2.3693264    0.0004206   -0.0541685  
C    0.0000000    0.0000000    0.0000000  
H    3.0096016   -0.0001007    0.4807518  
H   -3.1967444    0.0002093   -1.8949026  
H    4.1849275   -0.0015114   -1.9271979  
C    2.5528530    2.1414826    2.8079335  
C    2.0663498    1.7338582    4.0032312  
C    0.9804344    0.8229586    3.6752840  
C    0.9495562    0.7966882    2.1971295  
N    1.8690446    1.5676019    1.6831036  
C    0.0000000    0.0000000    1.4700000  
C   -0.8785127   -0.7372425    2.1869543  
O   -1.8187535   -1.5261249    1.6395491  
C   -0.8723269   -0.7321790    3.6796354  
O   -1.7010379   -1.4274584    4.2670412  
C    0.1115397    0.0933559    4.4024240  
H    2.4028853    2.0163452    4.9860947  
H   -2.2861435   -1.9184361    2.3990168  
H    0.0832434    0.0693689    5.4835595  
H    3.3664920    2.8238276    2.6198634  
