62

C    0.6936368   -0.7066095   -5.1527421  
C    0.3462077   -0.4553043   -6.4598790  
C   -0.7528345    0.4534777   -6.4312305  
C   -1.0341488    0.7235434   -5.0674660  
N   -0.1387074    0.0017015   -4.3179686  
C   -2.0601481    1.5827600   -4.6626691  
C   -2.8157357    2.1804672   -5.6526248  
O   -3.8298703    3.0285541   -5.3130773  
C   -2.5506561    1.9232735   -7.0187878  
O   -3.3906535    2.5937317   -7.8837922  
C   -1.5388174    1.0755377   -7.4188527  
H    0.8251970   -0.8761778   -7.3273052  
H   -2.2797242    1.7926343   -3.6249113  
H   -4.2227237    3.3302833   -6.1424686  
H   -3.1443862    2.3650595   -8.7852722  
H   -1.3595342    0.8977365   -8.4727603  
H    1.4683930   -1.3361781   -4.7498092  
C    3.3041276    0.0001179   -1.5420426  
C    2.5845373   -0.0004778   -0.3695850  
C    1.2040008   -0.0000007   -0.7283588  
C    1.1422377    0.0006038   -2.1454370  
N    2.4348643    0.0026110   -2.6077459  
C   -0.0655176    0.0008796   -2.8497919  
C   -1.2321760    0.0002323   -2.1101404  
O   -2.4392811    0.0001143   -2.7472523  
C   -1.1911205   -0.0000006   -0.6955268  
O   -2.4371526   -0.0002322   -0.1032865  
C    0.0000000    0.0000000    0.0000000  
H    3.0031533   -0.0000657    0.6222587  
H    2.7054636   -0.0071097   -3.5745259  
H   -3.1132988   -0.0000651   -2.0551790  
H   -2.3200280   -0.0004074    0.8516406  
C    5.7183465    0.0006209   -0.7610753  
C    6.9697740    0.0033988   -1.2883291  
C    6.8214698    0.0056259   -2.7245869  
C    5.3706574    0.0039346   -2.9927878  
N    4.7577225    0.0005133   -1.7610455  
C    4.8178660    0.0056240   -4.2321921  
C    5.7114468    0.0091309   -5.3785061  
O    5.3110237    0.0108065   -6.5352082  
C    7.2515443    0.0107198   -5.1179273  
O    8.0137040    0.0133636   -6.0751975  
C    7.7277059    0.0089258   -3.7369423  
H    7.8915742    0.0036553   -0.7343448  
H    3.7509368    0.0044646   -4.4070359  
H    8.7954988    0.0102484   -3.5650745  
H    5.4170512   -0.0015737    0.2738671  
C    2.3971438    2.0127888    3.1728260  
C    1.9431056    1.6308205    1.9564670  
C    0.8496017    0.7127664    2.2356185  
C    0.7794028    0.6545384    3.7115134  
N    1.6840587    1.4146091    4.2663826  
C   -0.1885723   -0.1578550    4.3957118  
C   -1.0476298   -0.8789867    3.6398520  
O   -2.0015663   -1.6796266    4.1448486  
C   -1.0022026   -0.8410666    2.1483229  
O   -1.8147390   -1.5232959    1.5241687  
C    0.0000000    0.0000000    1.4700000  
H    2.3054237    1.9346118    0.9892483  
H   -0.2170646   -0.1815267    5.4753125  
H   -2.4487139   -2.0549881    3.3649027  
H    3.2048689    2.6911772    3.3971983  
