60

C    8.1165425   -0.0037910   -1.0553574  
C    8.4152941   -0.0055383    0.2874797  
C    9.8374278   -0.0078493    0.3976225  
C   10.3571014   -0.0071062   -0.9221750  
N    9.2853585   -0.0065819   -1.7800706  
C   11.7283544   -0.0085880   -1.1950330  
C   12.5907100   -0.0105544   -0.1159053  
O   13.9394597   -0.0117099   -0.3253947  
C   12.0914177   -0.0116992    1.2083013  
O   13.0768060   -0.0140578    2.1738821  
C   10.7387670   -0.0105117    1.4782267  
H    7.6966210   -0.0062953    1.0890409  
H    9.3442064    0.0045566   -2.7822651  
H   12.1307962   -0.0081764   -2.1986482  
H   14.3514907   -0.0133107    0.5483864  
H   12.6552220   -0.0146705    3.0386768  
H   10.3859992   -0.0116176    2.5029378  
C    5.5795936   -0.0015221   -1.1027758  
C    4.5679461   -0.0016854   -2.0086701  
C    5.1756898   -0.0023284   -3.3184345  
C    6.6347911   -0.0025571   -3.0997723  
N    6.8134018   -0.0016466   -1.7355923  
C    7.5609147   -0.0035409   -4.0917396  
C    7.0891356   -0.0042079   -5.4664974  
O    7.8442685   -0.0050452   -6.4298635  
C    5.5480919   -0.0037282   -5.7214290  
O    5.1390410   -0.0039758   -6.8746584  
C    4.6483393   -0.0029380   -4.5706481  
H    8.6266511   -0.0038216   -3.9097633  
H    3.5827541   -0.0028152   -4.7557202  
H    5.5275966   -0.0011044   -0.0261211  
C    3.1301149   -0.0010311   -1.7028252  
C    2.5367768   -0.0002767   -0.4864665  
C    1.1089904    0.0001028   -0.7656183  
C    1.0177872   -0.0004148   -2.2415132  
N    2.1993578   -0.0011611   -2.7963820  
C   -0.2459209   -0.0002877   -2.9257118  
C   -1.3675319   -0.0000605   -2.1698524  
O   -2.6129313    0.0000867   -2.6748490  
C   -1.3083584    0.0000910   -0.6783232  
O   -2.3693261    0.0004206   -0.0541692  
C    0.0000000    0.0000000    0.0000000  
H    3.0096017   -0.0001007    0.4807525  
H   -0.2829630   -0.0004687   -4.0053125  
H   -3.1967441    0.0002094   -1.8949034  
C    0.0000000    0.0000000    1.4700000  
C    1.0662921    0.0000102    2.3034270  
C    0.4961870   -0.0000064    3.6418889  
C   -0.9663858    0.0000850    3.4240247  
N   -1.2632773    0.0000084    2.1528658  
C   -1.8985362    0.0000517    4.5177257  
C   -1.3925775   -0.0004564    5.7720543  
O   -2.1456383   -0.0005410    6.8851312  
C    0.0786232   -0.0009323    6.0245000  
O    0.4683759   -0.0012588    7.1921102  
C    1.0143166   -0.0008442    4.8859032  
H    2.1107198   -0.0000632    2.0421868  
H   -2.9622183    0.0003270    4.3293377  
H   -1.5042274   -0.0009692    7.6184419  
H    2.0724152   -0.0013148    5.1109744  
