62

C    2.0308814   -4.5810665   -6.6351652  
C    1.2781619   -3.4732318   -6.3211860  
C    1.7177421   -2.4163299   -7.1722610  
C    2.7490761   -2.9430852   -7.9912870  
N    2.9153292   -4.2591779   -7.6379054  
C    3.4153983   -2.1785336   -8.9537137  
C    3.0334304   -0.8582539   -9.0920632  
O    3.6508639   -0.0668162  -10.0169510  
C    2.0068324   -0.3143525   -8.2839285  
O    1.7419161    1.0148357   -8.5416518  
C    1.3492431   -1.0679433   -7.3340839  
H    0.5078530   -3.4316536   -5.5702608  
H    3.5712122   -4.8939633   -8.0560506  
H    4.2023596   -2.5740348   -9.5809874  
H    3.2392205    0.8045108   -9.9490954  
H    1.0372278    1.3040242   -7.9539541  
H    2.0078237   -5.5749854   -6.2221848  
C    0.0902056   -0.6999990   -5.1620330  
C   -0.9736297    0.0040464   -4.6965763  
C   -1.5078553    0.7471499   -5.8133733  
C   -0.6620043    0.4159215   -6.9759624  
N    0.2881862   -0.4654794   -6.5142695  
C   -0.8409762    0.9165753   -8.2245694  
C   -1.9398966    1.8436895   -8.4375671  
O   -2.1836163    2.3491297   -9.5254237  
C   -2.8482828    2.2087976   -7.2204658  
O   -3.7763827    2.9885181   -7.3875803  
C   -2.5561683    1.6045646   -5.9229975  
H   -0.2091452    0.6605473   -9.0637052  
H   -3.1899802    1.8623998   -5.0854247  
H    0.7463588   -1.3702751   -4.6309189  
C    1.1188642    0.0008222   -0.8003808  
C    0.0000000    0.0000000    0.0000000  
C   -1.1323862    0.0008899   -0.8673528  
C   -0.6382663    0.0019679   -2.1969280  
N    0.7324016    0.0038481   -2.1202242  
C   -1.4770914    0.0027318   -3.3154808  
C   -2.8395473    0.0020945   -3.0876857  
O   -3.7039201    0.0024425   -4.1440349  
C   -3.3517868    0.0013931   -1.7684331  
O   -4.7300497    0.0012366   -1.7073121  
C   -2.5248543    0.0009123   -0.6644817  
H    1.3576314   -0.0056167   -2.9057046  
H   -4.5940032    0.0021826   -3.7685128  
H   -4.9934602    0.0007259   -0.7819913  
H   -2.9462577    0.0005603    0.3339659  
H    2.1619895    0.0009355   -0.5342068  
C    2.5528530    2.1414826    2.8079335  
C    2.0663498    1.7338582    4.0032312  
C    0.9804344    0.8229586    3.6752840  
C    0.9495562    0.7966882    2.1971295  
N    1.8690446    1.5676019    1.6831036  
C    0.0000000    0.0000000    1.4700000  
C   -0.8785127   -0.7372425    2.1869543  
O   -1.8187535   -1.5261249    1.6395491  
C   -0.8723269   -0.7321790    3.6796354  
O   -1.7010379   -1.4274584    4.2670412  
C    0.1115397    0.0933559    4.4024240  
H    2.4028853    2.0163452    4.9860947  
H   -2.2861435   -1.9184361    2.3990168  
H    0.0832434    0.0693689    5.4835595  
H    3.3664920    2.8238276    2.6198634  
