64

C    1.8450830   -1.8498598   -8.4396580  
C    2.7907080   -2.6694320   -9.0111143  
C    2.6154986   -2.5851686  -10.4241963  
C    1.5391913   -1.6912864  -10.6575709  
N    1.0931177   -1.2646645   -9.4313455  
C    1.0883110   -1.3692518  -11.9412335  
C    1.7359480   -1.9601189  -13.0087627  
O    1.3365376   -1.6804576  -14.2836253  
C    2.8116168   -2.8548698  -12.7962175  
O    3.3522745   -3.3605997  -13.9603789  
C    3.2567772   -3.1732331  -11.5301201  
H    3.5166869   -3.2567189   -8.4753509  
H    0.3430023   -0.6145855   -9.2806631  
H    0.2684481   -0.6888372  -12.1257960  
H    1.9124113   -2.1902586  -14.8682085  
H    4.0720233   -3.9552939  -13.7282055  
H    4.0829771   -3.8621047  -11.3984861  
C    2.2675102   -2.0960612   -5.9498179  
C    1.7744249   -1.6329637   -4.7723279  
C    0.6888621   -0.7368506   -5.0938399  
C    0.5891936   -0.7157119   -6.5657122  
N    1.5740359   -1.5599384   -7.0242501  
C   -0.3170776    0.0136356   -7.2645898  
C   -1.2569148    0.8326277   -6.5172659  
O   -2.1110282    1.5252262   -7.0549449  
C   -1.1693693    0.8256866   -4.9577490  
O   -1.9551700    1.5114887   -4.3178632  
C   -0.1496415   -0.0015615   -4.3176961  
H    2.1306440   -1.8896606   -3.7905800  
H   -0.3733612    0.0148793   -8.3442837  
H    3.0792929   -2.7837267   -6.1230666  
C    3.3003543    0.0005276   -1.4738987  
C    2.5232814    0.0003497   -2.6090747  
C    1.1623200   -0.0001320   -2.1820103  
C    1.1711883    0.0000582   -0.7636140  
N    2.4852300   -0.0014919   -0.3662360  
C    0.0000000    0.0000000    0.0000000  
C   -1.2020384    0.0000519   -0.6806477  
O   -2.3759249    0.0003493    0.0157743  
C   -1.2314656   -0.0005115   -2.0955510  
O   -2.5054392   -0.0008039   -2.6250180  
C   -0.0764516   -0.0007274   -2.8495195  
H    2.8919955   -0.0005620   -3.6205304  
H    2.8036267    0.0088183    0.5858662  
H   -3.0835638    0.0000347   -0.6418818  
H   -2.4360047   -0.0011529   -3.5845921  
H    4.3715549    0.0004895   -1.3667136  
C    2.5311839    2.1237619    3.0120429  
C    1.9795631    1.6616747    1.8395852  
C    0.9223175    0.7739173    2.1983588  
C    0.8753926    0.7337535    3.6154372  
N    1.8668922    1.5631002    4.0777464  
C   -0.0496243   -0.0427881    4.3197917  
C   -0.9437528   -0.7922060    3.5801400  
O   -1.8685244   -1.5680278    4.2172520  
C   -0.9124520   -0.7656372    2.1655264  
O   -1.8671164   -1.5663939    1.5732860  
C    0.0000000    0.0000000    1.4700000  
H    2.3005065    1.9304404    0.8477417  
H    2.0679347    1.7444845    5.0445261  
H   -0.0904770   -0.0778569    5.3997470  
H   -2.3849669   -2.0011402    3.5251786  
H   -1.7775064   -1.4909735    0.6183591  
H    3.3468514    2.8078103    3.1724291  
