60

C    5.9229861   -3.2682024   -7.4991474  
C    5.0801514   -2.5604882   -6.6737763  
C    5.1217428   -1.2008856   -7.1031380  
C    6.0143294   -1.1391155   -8.2037739  
N    6.4844920   -2.4112330   -8.4165703  
C    6.2987406    0.0505356   -8.8809956  
C    5.6704153    1.1986935   -8.4392737  
O    5.9118856    2.3875949   -9.0647491  
C    4.7768760    1.1573788   -7.3425983  
O    4.2318018    2.3838500   -7.0232135  
C    4.4960352   -0.0158401   -6.6738591  
H    4.5068271   -2.9731896   -5.8613917  
H    7.1280477   -2.6787875   -9.1392255  
H    6.9781746    0.1042986   -9.7204481  
H    5.3807926    3.0507986   -8.6050039  
H    3.6407049    2.2679229   -6.2730347  
H    6.1691305   -4.3162182   -7.5051096  
C    4.5294737   -2.1111778   -2.7873602  
C    4.8355748   -1.6481497   -4.0267077  
C    3.7722452   -0.7522110   -4.4158856  
C    2.8147156   -0.7310541   -3.2936206  
N    3.3317090   -1.5757412   -2.3385758  
C    1.6707636   -0.0012343   -3.2725974  
C    1.3618921    0.8179366   -4.4328097  
O    0.3558259    1.5108613   -4.5101842  
C    2.3616939    0.8105939   -5.6328715  
O    2.1121098    1.4960722   -6.6152601  
C    3.5619235   -0.0167230   -5.5388102  
H    5.7067350   -1.9050624   -4.6026323  
H    5.0780201   -2.7986807   -2.1642014  
H    2.9056661   -1.7713787   -1.4512985  
C    1.0965514    0.0001358   -0.8010306  
C    0.0000000    0.0000000    0.0000000  
C   -1.1546565    0.0001470   -0.8669508  
C   -0.6372019    0.0003520   -2.2486278  
N    0.7342867    0.0007338   -2.1395012  
C   -1.4147744    0.0001354   -3.3608712  
C   -2.8576052   -0.0001047   -3.1854454  
O   -3.6427785   -0.0002490   -4.1244896  
C   -3.4275841   -0.0000727   -1.7311660  
O   -4.6406832    0.0000333   -1.5710049  
C   -2.4891868   -0.0001090   -0.6116739  
H   -1.0150456    0.0001617   -4.3654239  
H   -2.8919122   -0.0002919    0.3920871  
H    2.1388270    0.0000663   -0.5261650  
C    0.0000000    0.0000000    1.4700000  
C    1.0662921    0.0000102    2.3034270  
C    0.4961870   -0.0000064    3.6418889  
C   -0.9663858    0.0000850    3.4240247  
N   -1.2632773    0.0000084    2.1528658  
C   -1.8985362    0.0000517    4.5177257  
C   -1.3925775   -0.0004564    5.7720543  
O   -2.1456383   -0.0005410    6.8851312  
C    0.0786232   -0.0009323    6.0245000  
O    0.4683759   -0.0012588    7.1921102  
C    1.0143166   -0.0008442    4.8859032  
H    2.1107198   -0.0000632    2.0421868  
H   -2.9622183    0.0003270    4.3293377  
H   -1.5042274   -0.0009692    7.6184419  
H    2.0724152   -0.0013148    5.1109744  
