60

C    3.2061689   -4.2329780   -1.4180860  
C    4.2988758   -4.8952430   -1.9278543  
C    4.4145222   -4.5148676   -3.2977228  
C    3.3558729   -3.6107897   -3.5694401  
N    2.6402305   -3.4631648   -2.4072519  
C    3.1607235   -3.0305526   -4.8264327  
C    4.0506633   -3.3689102   -5.8272815  
O    3.9066038   -2.8310400   -7.0734581  
C    5.1130474   -4.2694095   -5.5757695  
O    5.9131692   -4.5058809   -6.6745090  
C    5.3060115   -4.8424166   -4.3360308  
H    4.9337836   -5.5703967   -1.3800825  
H    1.8359791   -2.8733777   -2.2918737  
H    4.6216031   -3.1943814   -7.6119966  
H    6.6051914   -5.1236844   -6.4194990  
H    6.1286434   -5.5289279   -4.1733750  
H    2.7848653   -4.2499406   -0.4275439  
C    2.0663726   -2.0930015   -5.1167679  
C    1.0931320   -1.6308350   -4.2901598  
C    0.2706806   -0.7345477   -5.0680275  
C    0.8486728   -0.7122919   -6.4253121  
N    1.9347259   -1.5561040   -6.3884400  
C    0.3570939    0.0175295   -7.4584690  
C   -0.8196668    0.8358896   -7.2175208  
O   -1.3377664    1.5288425   -8.0833667  
C   -1.4481804    0.8277638   -5.7875872  
O   -2.4388906    1.5130257   -5.5727150  
C   -0.8287665    0.0000939   -4.7555305  
H    0.9660025   -1.8882581   -3.2537310  
H    0.7960886    0.0195937   -8.4464917  
H    2.5375329   -1.7532734   -7.1661261  
C    1.0672569   -0.0000698   -0.8321910  
C    0.0000000    0.0000000    0.0000000  
C   -1.1601223   -0.0000736   -0.8778472  
C   -0.5938729   -0.0000768   -2.2438435  
N    0.7113367   -0.0001553   -2.2234123  
C   -1.4286985   -0.0001877   -3.4135239  
C   -2.7683113   -0.0006798   -3.2270524  
O   -3.6653902   -0.0008302   -4.2276970  
C   -3.3702024   -0.0010610   -1.8610774  
O   -4.5974910   -0.0013779   -1.7662963  
C   -2.4926825   -0.0008943   -0.6770658  
H   -4.5324245   -0.0012258   -3.7833954  
H   -2.9677772   -0.0012974    0.2947961  
H    2.1134391   -0.0000547   -0.5705119  
C    0.8400945    0.7047457    2.2710304  
C    0.0000000    0.0000000    1.4700000  
C   -0.8844236   -0.7423113    2.3369512  
C   -0.4878984   -0.4098547    3.7186280  
N    0.5629682    0.4714286    3.6095011  
C   -1.0836927   -0.9095027    4.8308716  
C   -2.1891196   -1.8367527    4.6554461  
O   -2.7906899   -2.3413415    5.5944904  
C   -2.6257283   -2.2031529    3.2011665  
O   -3.5549479   -2.9829990    3.0410059  
C   -1.9068976   -1.5999348    2.0816745  
H   -0.7774656   -0.6525820    5.8354244  
H   -2.2155208   -1.8586617    1.0779135  
H    1.6384792    1.3747609    1.9961646  
H    1.0518368    0.8833920    4.3830260  
