64

C    6.4831323   -3.6201065   -2.3842132  
C    5.2950770   -3.0249223   -2.0281963  
C    4.9636221   -3.5031885   -0.7258909  
C    5.9952659   -4.3946599   -0.3348459  
N    6.9007751   -4.4441914   -1.3654849  
C    5.9971114   -5.0553372    0.8973436  
C    4.9383838   -4.8114057    1.7504386  
O    4.8904706   -5.4299248    2.9662317  
C    3.8994063   -3.9255754    1.3780860  
O    2.9161524   -3.7881340    2.3360339  
C    3.8967963   -3.2736638    0.1625489  
H    7.7454525   -4.9868505   -1.3703101  
H    6.7803176   -5.7360886    1.2012670  
H    4.0809042   -5.1248122    3.3960830  
H    2.2536165   -3.1736169    2.0058536  
H    3.0870939   -2.6009807   -0.0950511  
H    7.0649159   -3.5230884   -3.2848098  
C    4.5310512   -2.0790477   -2.8543233  
C    4.8140926   -1.6029419   -4.0941966  
C    3.7433598   -0.7037137   -4.4544110  
C    2.8066150   -0.6948781   -3.3145769  
N    3.3414841   -1.5491125   -2.3780469  
C    1.6628945    0.0339172   -3.2649299  
C    1.3323524    0.8649110   -4.4106726  
O    0.3247026    1.5579296   -4.4623203  
C    2.3099249    0.8707268   -5.6289189  
O    2.0419932    1.5662246   -6.5993602  
C    3.5120765    0.0432796   -5.5655573  
H    5.6746396   -1.8532639   -4.6886805  
H    4.1838692    0.0530800   -6.4130965  
H    2.9319197   -1.7542582   -1.4851755  
C    1.1243410    0.0100105   -0.7919003  
C    0.7474072    0.0234665   -2.1148542  
C   -0.6787384    0.0234379   -2.1414698  
C   -1.1201748    0.0098411   -0.7935547  
N    0.0000000    0.0000000    0.0000000  
C   -2.4730818    0.0063307   -0.4408240  
C   -3.3971962    0.0170429   -1.4675058  
O   -4.7313520    0.0145490   -1.1793468  
C   -2.9763654    0.0303020   -2.8186325  
O   -4.0166484    0.0394464   -3.7247625  
C   -1.6418567    0.0334992   -3.1673480  
H   -2.8160166   -0.0041569    0.5845966  
H   -5.1938823    0.0230023   -2.0274386  
H   -3.6464680    0.0481700   -4.6127343  
H   -1.3497475    0.0435647   -4.2109234  
H    2.1062466    0.0053162   -0.3505405  
C    2.5285572    2.1210227    2.9438989  
C    1.9331703    1.6216660    4.0790748  
C    0.8903039    0.7472258    3.6520102  
C    0.8972198    0.7527806    2.2336141  
N    1.9028376    1.5986179    1.8362361  
C    0.0000000    0.0000000    1.4700000  
C   -0.9207814   -0.7726952    2.1506477  
O   -1.8198395   -1.5274828    1.4542253  
C   -0.9436862   -0.7911793    3.5655508  
O   -1.9197945   -1.6098497    4.0950179  
C   -0.0590329   -0.0485852    4.3195194  
H    2.2150357    1.8593692    5.0905303  
H    2.1533708    1.7953814    0.8841339  
H   -2.3621246   -1.9821033    2.1118817  
H   -1.8668290   -1.5649508    5.0545920  
H   -0.1007624   -0.0827977    5.4019087  
H    3.3491200    2.8096064    2.8367138  
