62

C    9.7486771   -0.7144897   -2.4123942  
C   10.9552864   -0.4653826   -3.0243652  
C   10.6999144    0.4429798   -4.0940674  
C    9.3078561    0.7150667   -4.0856838  
N    8.7600214   -0.0052204   -3.0533667  
C    8.6996952    1.5744848   -5.0056453  
C    9.5116454    2.1703192   -5.9511066  
O    8.9697567    3.0185102   -6.8730300  
C   10.9026896    1.9110936   -5.9758778  
O   11.5749662    2.5798393   -6.9779590  
C   11.5032937    1.0631575   -5.0687912  
H   11.9027772   -0.8874146   -2.7360210  
H    7.6392674    1.7858945   -5.0046580  
H    9.6996975    3.3187720   -7.4300703  
H   12.5076245    2.3498565   -6.9244714  
H   12.5711810    0.8837783   -5.1125733  
H    9.5148450   -1.3430984   -1.5702942  
C    6.6962559   -0.0006584    0.9128043  
C    7.6449137   -0.0016133   -0.0834455  
C    6.9440364   -0.0023813   -1.3257701  
C    5.5585247   -0.0015568   -1.0219874  
N    5.4432390   -0.0024702    0.3459766  
C    4.5679461   -0.0016854   -2.0086701  
C    4.9836054   -0.0023571   -3.3260176  
O    4.0581873   -0.0021607   -4.3293195  
C    6.3614227   -0.0035603   -3.6491825  
O    6.6142428   -0.0045344   -5.0054365  
C    7.3392016   -0.0037074   -2.6763132  
H    8.7109485   -0.0028460    0.0667588  
H    4.5782209    0.0083751    0.8554932  
H    4.5542211   -0.0030159   -5.1583030  
H    7.5672638   -0.0052861   -5.1371684  
H    6.8142878   -0.0002736    1.9828640  
C    3.1301149   -0.0010311   -1.7028252  
C    2.5367768   -0.0002767   -0.4864665  
C    1.1089904    0.0001028   -0.7656183  
C    1.0177872   -0.0004148   -2.2415132  
N    2.1993578   -0.0011611   -2.7963820  
C   -0.2459209   -0.0002877   -2.9257118  
C   -1.3675319   -0.0000605   -2.1698524  
O   -2.6129313    0.0000867   -2.6748490  
C   -1.3083584    0.0000910   -0.6783232  
O   -2.3693261    0.0004206   -0.0541692  
C    0.0000000    0.0000000    0.0000000  
H    3.0096017   -0.0001007    0.4807525  
H   -0.2829630   -0.0004687   -4.0053125  
H   -3.1967441    0.0002094   -1.8949034  
C    2.5528530    2.1414826    2.8079335  
C    2.0663498    1.7338582    4.0032312  
C    0.9804344    0.8229586    3.6752840  
C    0.9495562    0.7966882    2.1971295  
N    1.8690446    1.5676019    1.6831036  
C    0.0000000    0.0000000    1.4700000  
C   -0.8785127   -0.7372425    2.1869543  
O   -1.8187535   -1.5261249    1.6395491  
C   -0.8723269   -0.7321790    3.6796354  
O   -1.7010379   -1.4274584    4.2670412  
C    0.1115397    0.0933559    4.4024240  
H    2.4028853    2.0163452    4.9860947  
H   -2.2861435   -1.9184361    2.3990168  
H    0.0832434    0.0693689    5.4835595  
H    3.3664920    2.8238276    2.6198634  
