60

C    6.2294231   -0.7120528   -3.4377860  
C    7.5328651   -0.4619203   -3.0759299  
C    8.0657859    0.4448216   -4.0394729  
C    7.0325203    0.7149087   -4.9729297  
N    5.9318902   -0.0049611   -4.5792080  
C    7.2040228    1.5723722   -6.0638618  
C    8.4410436    2.1682720   -6.2150606  
O    8.6627919    3.0146015   -7.2627081  
C    9.4846136    1.9110254   -5.2944063  
O   10.6567151    2.5795692   -5.5817616  
C    9.3162149    1.0650182   -4.2180979  
H    8.0378338   -0.8822469   -2.2230955  
H    6.4205537    1.7822522   -6.7789339  
H    9.5773136    3.3152650   -7.1819813  
H   11.3091258    2.3509952   -4.9126445  
H   10.1340539    0.8871294   -3.5296407  
H    5.4888759   -1.3400136   -2.9727978  
C    1.6707638   -0.0012342   -3.2725973  
C    3.0236194   -0.0024593   -3.2357221  
C    3.4368538   -0.0041819   -4.6306178  
C    2.1706897   -0.0038462   -5.3944318  
N    1.1320377   -0.0020400   -4.6037428  
C    2.1489273   -0.0051910   -6.8313075  
C    3.3380093   -0.0064090   -7.4758349  
O    3.4666353   -0.0077449   -8.8135550  
C    4.6328556   -0.0064075   -6.7331813  
O    5.6771196   -0.0076805   -7.3848958  
C    4.6287472   -0.0050578   -5.2594421  
H    3.6622535   -0.0021327   -2.3689915  
H    1.2090112   -0.0051155   -7.3637246  
H    4.4282071   -0.0083584   -8.9701839  
C    1.0965515    0.0001359   -0.8010305  
C    0.0000000    0.0000000    0.0000000  
C   -1.1546564    0.0001470   -0.8669509  
C   -0.6372018    0.0003521   -2.2486279  
N    0.7342868    0.0007339   -2.1395011  
C   -1.4147743    0.0001355   -3.3608714  
C   -2.8576049   -0.0001046   -3.1854455  
O   -3.6427782   -0.0002491   -4.1244898  
C   -3.4275842   -0.0000725   -1.7311664  
O   -4.6406831    0.0000334   -1.5710053  
C   -2.4891868   -0.0001091   -0.6116742  
H   -1.0150456    0.0001619   -4.3654242  
H   -2.8919123   -0.0002920    0.3920869  
H    2.1388270    0.0000663   -0.5261648  
C    0.0000000    0.0000000    1.4700000  
C    1.0541688    0.0001722    2.3260392  
C    0.5103138    0.0000454    3.6635956  
C   -0.9576371   -0.0002459    3.5155732  
N   -1.2018458    0.0001392    2.1615969  
C   -1.8348311   -0.0008317    4.5510609  
C   -1.2972847   -0.0009736    5.9014604  
O   -2.0050672   -0.0014265    6.9001319  
C    0.2542623   -0.0004184    6.0817573  
O    0.7184670   -0.0002256    7.2139121  
C    1.0974552   -0.0000873    4.8889129  
H    2.0940752    0.0005483    2.0517982  
H   -2.9081052   -0.0011668    4.4207061  
H    2.1707277    0.0000911    5.0223670  
H   -2.1128194   -0.0014912    1.7406791  
