64

C   -8.0195920   -0.8382604   -2.9020328  
C   -8.4131152   -0.0369311   -1.8553820  
C   -9.8288792   -0.1674147   -1.7405421  
C  -10.2471412   -1.0693927   -2.7521837  
N   -9.1240079   -1.4561718   -3.4403632  
C  -11.5845988   -1.4335434   -2.9349131  
C  -12.5167678   -0.8772489   -2.0806437  
O  -13.8365214   -1.1987157   -2.2145183  
C  -12.1190473    0.0249169   -1.0653936  
O  -13.1647727    0.4928710   -0.2967465  
C  -10.7998218    0.3848195   -0.8847205  
H   -7.7602263    0.5681705   -1.2499231  
H   -9.1080062   -2.1016543   -4.2091782  
H  -11.9098688   -2.1203465   -3.7041355  
H  -14.3080341   -0.7077493   -1.5290303  
H  -12.8104900    1.0954644    0.3642896  
H  -10.5253343    1.0783539   -0.0984989  
C   -3.9746083    0.7142908   -1.7986957  
C   -5.3260795    0.4613977   -1.8438322  
C   -5.5426092   -0.4551387   -2.9151287  
C   -4.2757853   -0.7280790   -3.4918330  
N   -3.3460097   -0.0004262   -2.7913647  
C   -4.1093983   -1.5947823   -4.5762358  
C   -5.2424667   -2.1971584   -5.0875840  
O   -5.1370458   -3.0526062   -6.1459361  
C   -6.5152400   -1.9372031   -4.5260783  
O   -7.5452826   -2.6130064   -5.1470830  
C   -6.6801642   -1.0820832   -3.4564545  
H   -6.0651071    0.8862112   -1.1862872  
H   -3.1466336   -1.8068824   -5.0204192  
H   -6.0329159   -3.3565565   -6.3416283  
H   -8.3692677   -2.3820100   -4.7074316  
H   -3.4095049    1.3490485   -1.1378632  
C    0.0000000    0.0000000    0.0000000  
C    1.0662919   -0.0000103   -0.8334272  
C    0.4961868    0.0000066   -2.1718889  
C   -0.9663860   -0.0000849   -1.9540248  
N   -1.2632775   -0.0000084   -0.6828659  
C   -1.8985364   -0.0000515   -3.0477258  
C   -1.3925778    0.0004567   -4.3020543  
O   -2.1456385    0.0005412   -5.4151314  
C    0.0786229    0.0009326   -4.5544999  
O    0.4683756    0.0012594   -5.7221104  
C    1.0143162    0.0008443   -3.4159034  
H    2.1107195    0.0000631   -0.5721869  
H   -1.5042277    0.0009692   -6.1484420  
H    2.0724151    0.0013151   -3.6409746  
C    1.1188642   -0.0008217    2.2703808  
C    0.0000000    0.0000000    1.4700000  
C   -1.1323862   -0.0008904    2.3373528  
C   -0.6382662   -0.0019682    3.6669281  
N    0.7324016   -0.0038477    3.5902241  
C   -1.4770914   -0.0027325    4.7854808  
C   -2.8395474   -0.0020958    4.5576857  
O   -3.7039201   -0.0024443    5.6140350  
C   -3.3517868   -0.0013946    3.2384331  
O   -4.7300496   -0.0012389    3.1773122  
C   -2.5248543   -0.0009135    2.1344818  
H    1.3576314    0.0056174    4.3757045  
H   -1.1067570   -0.0036993    5.8013813  
H   -4.5940033   -0.0021850    5.2385129  
H   -4.9934601   -0.0007286    2.2519915  
H   -2.9462578   -0.0005617    1.1360343  
H    2.1619896   -0.0009344    2.0042067  
