60

C    8.3477434   -4.3709920   -3.0747488  
C    8.3144375   -5.0035143   -1.8535722  
C    7.1200642   -4.5809148   -1.1982228  
C    6.4592243   -3.6833577   -2.0754958  
N    7.2325231   -3.5768097   -3.2047757  
C    5.2448911   -3.0689908   -1.7549700  
C    4.6873662   -3.3663502   -0.5265884  
O    3.5024942   -2.7945276   -0.1631186  
C    5.3317368   -4.2591178    0.3625515  
O    4.6507424   -4.4524105    1.5467084  
C    6.5298588   -4.8653611    0.0471171  
H    9.0599037   -5.6847551   -1.4804968  
H    7.0120204   -3.0169318   -4.0084524  
H    3.2953259   -3.1321270    0.7180015  
H    5.1530026   -5.0678631    2.0894400  
H    6.9999271   -5.5446762    0.7485764  
H    9.0794888   -4.4224087   -3.8626982  
C    4.5533953   -2.1376039   -2.6578830  
C    4.9399044   -1.7283662   -3.8886202  
C    3.8940255   -0.8167851   -4.3264065  
C    2.9285539   -0.7919268   -3.2066610  
N    3.3097737   -1.5641889   -2.2257066  
C    1.7334695    0.0049281   -3.2500363  
C    1.5131085    0.7436793   -4.3613519  
O    0.4396988    1.5328953   -4.5373375  
C    2.4688035    0.7400648   -5.5079975  
O    2.2042964    1.4366805   -6.4877846  
C    3.6875669   -0.0856726   -5.4394571  
H    5.8254287   -2.0102057   -4.4322107  
H    0.5632897    1.9263775   -5.4199754  
H    4.3545055   -0.0606062   -6.2908048  
C    1.1319246    0.0015678   -0.8009268  
C    0.7969914    0.0034958   -2.1169401  
C   -0.6453340    0.0035696   -2.1842669  
C   -1.1266832    0.0015410   -0.7896025  
N    0.0000000    0.0000000    0.0000000  
C   -2.4346129    0.0013913   -0.4276292  
C   -3.4350111    0.0031335   -1.4820181  
O   -4.6384614    0.0030875   -1.2583914  
C   -2.9478961    0.0050442   -2.9661074  
O   -3.7809382    0.0062135   -3.8623773  
C   -1.5113825    0.0053055   -3.2312122  
H   -2.7664565    0.0000174    0.6013448  
H   -1.1823533    0.0068381   -4.2614848  
H    2.1104316    0.0009435   -0.3488059  
C    0.0000000    0.0000000    1.4700000  
C    1.0662921    0.0000102    2.3034270  
C    0.4961870   -0.0000064    3.6418889  
C   -0.9663858    0.0000850    3.4240247  
N   -1.2632773    0.0000084    2.1528658  
C   -1.8985362    0.0000517    4.5177257  
C   -1.3925775   -0.0004564    5.7720543  
O   -2.1456383   -0.0005410    6.8851312  
C    0.0786232   -0.0009323    6.0245000  
O    0.4683759   -0.0012588    7.1921102  
C    1.0143166   -0.0008442    4.8859032  
H    2.1107198   -0.0000632    2.0421868  
H   -2.9622183    0.0003270    4.3293377  
H   -1.5042274   -0.0009692    7.6184419  
H    2.0724152   -0.0013148    5.1109744  
