62

C    6.9713461    0.5365761   -5.3318566  
C    7.5536384   -0.3141231   -4.4209704  
C    8.9524180   -0.3286458   -4.6999074  
C    9.1663304    0.5398307   -5.8007782  
N    7.9425625    1.0469907   -6.1610524  
C   10.4322637    0.7695943   -6.3479607  
C   11.5017783    0.1108665   -5.7731601  
O   12.7598564    0.2993078   -6.2678746  
C   11.3084818   -0.7599162   -4.6744377  
O   12.4720685   -1.3410854   -4.2143786  
C   10.0598542   -0.9872661   -4.1342852  
H    7.0339840   -0.8582281   -3.6509692  
H    7.7817513    1.7008988   -6.9057166  
H   10.6019347    1.4301892   -7.1870253  
H   13.3491118   -0.2457327   -5.7303119  
H   12.2535037   -1.9135510   -3.4726797  
H    9.9427337   -1.6599044   -3.2926686  
C    3.4364602   -0.6845230   -3.0955666  
C    2.4521483    0.0014840   -3.7217481  
C    3.1256120    0.7478441   -4.7733630  
C    4.5520923    0.3843006   -4.6334537  
N    4.7404177   -0.4551033   -3.6516571  
C    5.5629170    0.9215719   -5.5021646  
C    5.1666493    1.7825726   -6.4670399  
O    6.0021964    2.3597726   -7.3472336  
C    3.7344496    2.1687412   -6.6338906  
O    3.4458166    2.9576837   -7.5336021  
C    2.7164289    1.6040515   -5.7301854  
H    5.4291799    2.9168361   -7.9044459  
H    1.6899528    1.9088365   -5.8840785  
H    3.3474874   -1.3573887   -2.2575277  
C    0.0000000    0.0000000    0.0000000  
C    1.0662923   -0.0000101   -0.8334270  
C    0.4961873    0.0000065   -2.1718887  
C   -0.9663854   -0.0000848   -1.9540250  
N   -1.2632773   -0.0000083   -0.6828660  
C   -1.8985359   -0.0000514   -3.0477261  
C   -1.3925770    0.0004566   -4.3020547  
O   -2.1456378    0.0005414   -5.4151314  
C    0.0786240    0.0009326   -4.5545000  
O    0.4683767    0.0012591   -5.7221100  
C    1.0143171    0.0008444   -3.4159031  
H    2.1107200    0.0000633   -0.5721865  
H   -2.9622181   -0.0003268   -2.8593381  
H   -1.5042265    0.0009697   -6.1484419  
C    3.3003543   -0.0005276    2.9438989  
C    2.5232812   -0.0003497    4.0790748  
C    1.1623199    0.0001319    3.6520102  
C    1.1711883   -0.0000583    2.2336141  
N    2.4852299    0.0014920    1.8362361  
C    0.0000000    0.0000000    1.4700000  
C   -1.2020384   -0.0000520    2.1506477  
O   -2.3759250   -0.0003494    1.4542253  
C   -1.2314658    0.0005113    3.5655508  
O   -2.5054393    0.0008037    4.0950179  
C   -0.0764518    0.0007272    4.3195194  
H    2.8919952    0.0005619    5.0905303  
H    2.8036267   -0.0088181    0.8841339  
H   -3.0835639   -0.0000348    2.1118817  
H   -2.4360050    0.0011527    5.0545920  
H   -0.1304098    0.0013421    5.4019087  
H    4.3715549   -0.0004895    2.8367138  
