60

C    7.7660703   -1.1095983   -4.0406105  
C    6.9454050   -0.0095700   -4.1350277  
C    7.7791832    1.1070308   -4.4393556  
C    9.1100904    0.6230866   -4.5194252  
N    9.0666993   -0.7262296   -4.2702657  
C   10.2000241    1.4510821   -4.8044837  
C    9.9416708    2.7919901   -5.0128015  
O   10.9692356    3.6449550   -5.2948921  
C    8.6206230    3.2938581   -4.9368020  
O    8.5273113    4.6507087   -5.1683028  
C    7.5449278    2.4776477   -4.6553612  
H    9.8596178   -1.3420699   -4.2696330  
H   11.2167883    1.0884363   -4.8667736  
H   10.5755617    4.5205859   -5.4023890  
H    7.6030004    4.9083213   -5.0983882  
H    6.5443445    2.8907119   -4.6035161  
H    7.5267271   -2.1370735   -3.8262076  
C    4.3047787   -2.1086497   -1.2859243  
C    5.3774559   -1.6442158   -1.9771117  
C    4.8701585   -0.7486136   -2.9897228  
C    3.4034921   -0.7291861   -2.8306570  
N    3.1250156   -1.5744515   -1.7814352  
C    2.5562217   -0.0001543   -3.6003001  
C    3.1269048    0.8199331   -4.6559101  
O    2.4474936    1.5122577   -5.4024942  
C    4.6776928    0.8144235   -4.8425423  
O    5.1696069    1.5006860   -5.7281633  
C    5.4870227   -0.0121789   -3.9505975  
H    6.4066157   -1.8999862   -1.7981561  
H    4.2768480   -2.7963881   -0.4563908  
H    2.2064273   -1.7712342   -1.4285625  
C    0.0000000    0.0000000    0.0000000  
C    1.0541688   -0.0001719   -0.8560391  
C    0.5103141   -0.0000449   -2.1935955  
C   -0.9576367    0.0002461   -2.0455733  
N   -1.2018459   -0.0001392   -0.6915970  
C   -1.8348306    0.0008319   -3.0810611  
C   -1.2972842    0.0009739   -4.4314605  
O   -2.0050664    0.0014267   -5.4301321  
C    0.2542628    0.0004190   -4.6117571  
O    0.7184677    0.0002263   -5.7439119  
C    1.0974556    0.0000880   -3.4189127  
H    2.0940752   -0.0005479   -0.5817978  
H   -2.9081050    0.0011669   -2.9507065  
H   -2.1128195    0.0014911   -0.2706793  
C    1.0672568    0.0000697    2.3021913  
C    0.0000000    0.0000000    1.4700000  
C   -1.1601224    0.0000736    2.3478473  
C   -0.5938729    0.0000769    3.7138435  
N    0.7113367    0.0001554    3.6934124  
C   -1.4286986    0.0001879    4.8835240  
C   -2.7683114    0.0006799    4.6970523  
O   -3.6653903    0.0008304    5.6976972  
C   -3.3702025    0.0010610    3.3310774  
O   -4.5974910    0.0013779    3.2362962  
C   -2.4926826    0.0008943    2.1470656  
H   -0.9878360   -0.0000190    5.8697035  
H   -4.5324246    0.0012261    5.2533954  
H   -2.9677772    0.0012974    1.1752040  
H    2.1134392    0.0000545    2.0405121  
