62

C    4.8512569   -4.2107239   -7.4522059  
C    3.7743808   -3.4094687   -7.1508837  
C    3.5327589   -3.5455394   -5.7517044  
C    4.5021329   -4.4502533   -5.2479847  
N    5.2855168   -4.8364627   -6.3071208  
C    4.5641281   -4.8195195   -3.9009186  
C    3.6307294   -4.2651537   -3.0467391  
O    3.6461392   -4.5910552   -1.7213844  
C    2.6554646   -3.3608894   -3.5304558  
O    1.7966663   -2.8959234   -2.5559740  
C    2.5935430   -2.9963578   -4.8592934  
H    3.2292753   -2.8025200   -7.8533548  
H    6.0646768   -5.4673050   -6.2530164  
H    5.3003848   -5.5086492   -3.5107551  
H    2.9214697   -4.1011989   -1.3113107  
H    1.1702219   -2.2915986   -2.9658062  
H    5.3430377   -4.3864814   -8.3935986  
C    1.5647264   -2.0539602   -5.3222425  
C    1.3415388   -1.5772672   -6.5740516  
C    0.2114924   -0.6825498   -6.4885504  
C   -0.2083733   -0.6770012   -5.0741692  
N    0.6518897   -1.5286393   -4.4202963  
C   -1.2456329    0.0471727   -4.5828766  
C   -1.9989045    0.8763049   -5.5089741  
O   -2.9500478    1.5652086   -5.1639542  
C   -1.5719704    0.8855380   -7.0114543  
O   -2.1988676    1.5795080   -7.8005467  
C   -0.4365516    0.0630007   -7.4214650  
H    1.9041930   -1.8243645   -7.4566485  
H   -0.1472088    0.0751448   -8.4635098  
H    0.6225289   -1.7350432   -3.4386737  
C    1.1243410    0.0099923   -0.7919003  
C    0.7474076    0.0234544   -2.1148543  
C   -0.6787381    0.0234490   -2.1414700  
C   -1.1201745    0.0098592   -0.7935546  
N    0.0000000    0.0000000    0.0000000  
C   -2.4730816    0.0063709   -0.4408240  
C   -3.3971958    0.0170982   -1.4675058  
O   -4.7313517    0.0146259   -1.1793471  
C   -2.9763648    0.0303504   -2.8186324  
O   -4.0166480    0.0395118   -3.7247624  
C   -1.6418562    0.0335260   -3.1673481  
H    1.4178717    0.0310972   -2.9571209  
H   -2.8160166   -0.0041111    0.5845966  
H   -5.1938818    0.0230867   -2.0274384  
H   -3.6464675    0.0482293   -4.6127343  
H    2.1062467    0.0052819   -0.3505407  
C    2.5128556    2.1077716    2.9199648  
C    1.9592212    1.6432552    4.0696553  
C    0.8915788    0.7479214    3.6910360  
C    0.8684491    0.7287414    2.2159470  
N    1.8754542    1.5738793    1.8102719  
C    0.0000000    0.0000000    1.4700000  
C   -0.9772830   -0.8200135    2.1664417  
O   -1.8021297   -1.5120829    1.5842315  
C   -0.9711318   -0.8147624    3.7284083  
O   -1.7894187   -1.5009653    4.3257297  
C    0.0140216    0.0115358    4.4216297  
H    2.2638494    1.8988021    5.0689105  
H    0.0117648    0.0094386    5.5031631  
H    3.3327358    2.7953732    2.7900019  
H    2.1123206    1.7707734    0.8551938  
