62

C   -0.4370037   -0.0099621   -8.8142440  
C    0.3360870   -0.6848322   -9.7304047  
C   -0.1410011   -0.3226868  -11.0249456  
C   -1.2151670    0.5837731  -10.8340937  
N   -1.3696690    0.7502894   -9.4802042  
C   -1.9257839    1.1489524  -11.8972895  
C   -1.5449045    0.7928089  -13.1764580  
O   -2.2046582    1.3154769  -14.2509609  
C   -0.4759378   -0.1103521  -13.3872349  
O   -0.2179779   -0.3653689  -14.7183129  
C    0.2253720   -0.6685113  -12.3388332  
H    1.1437421   -1.3564728   -9.4946384  
H   -2.0490347    1.3460161   -9.0425365  
H   -2.7455141    1.8403142  -11.7584967  
H   -1.7858558    0.9412556  -15.0369809  
H    0.5170573   -0.9837349  -14.7726324  
H    1.0394687   -1.3574960  -12.5312510  
C    2.1650268   -2.1089228   -5.9297630  
C    1.5723604   -1.6445165   -7.0598730  
C    0.5184572   -0.7489604   -6.6450207  
C    0.5459257   -0.7295297   -5.1700093  
N    1.5661289   -1.5747498   -4.7989577  
C   -0.2963293   -0.0005341   -4.3948471  
C   -1.2968018    0.8195080   -5.0575088  
O   -2.1011001    1.5117977   -4.4474759  
C   -1.3442161    0.8139944   -6.6187671  
O   -2.1824060    1.5002187   -7.1877956  
C   -0.3835313   -0.0125666   -7.3452196  
H    1.8425077   -1.9002762   -8.0689424  
H    2.9887830   -2.7966246   -5.8278722  
H    1.8355782   -1.7715191   -3.8525299  
C    3.1301146   -0.0010313   -1.7028256  
C    2.5367765   -0.0002766   -0.4864669  
C    1.1089901    0.0001027   -0.7656184  
C    1.0177865   -0.0004150   -2.2415133  
N    2.1993571   -0.0011612   -2.7963824  
C   -0.2459219   -0.0002879   -2.9257116  
C   -1.3675326   -0.0000606   -2.1698520  
O   -2.6129318    0.0000865   -2.6748483  
C   -1.3083588    0.0000910   -0.6783229  
O   -2.3693264    0.0004206   -0.0541685  
C    0.0000000    0.0000000    0.0000000  
H    3.0096016   -0.0001007    0.4807518  
H   -3.1967444    0.0002093   -1.8949026  
H    4.1849275   -0.0015114   -1.9271979  
C    2.5311839    2.1237619    3.0120429  
C    1.9795631    1.6616747    1.8395852  
C    0.9223175    0.7739173    2.1983588  
C    0.8753926    0.7337535    3.6154372  
N    1.8668922    1.5631002    4.0777464  
C   -0.0496243   -0.0427881    4.3197917  
C   -0.9437528   -0.7922060    3.5801400  
O   -1.8685244   -1.5680278    4.2172520  
C   -0.9124520   -0.7656372    2.1655264  
O   -1.8671164   -1.5663939    1.5732860  
C    0.0000000    0.0000000    1.4700000  
H    2.3005065    1.9304404    0.8477417  
H    2.0679347    1.7444845    5.0445261  
H   -0.0904770   -0.0778569    5.3997470  
H   -2.3849669   -2.0011402    3.5251786  
H   -1.7775064   -1.4909735    0.6183591  
H    3.3468514    2.8078103    3.1724291  
