62

C    0.0000000    0.0000000    0.0000000  
C    1.0521671   -0.0011900   -0.8862338  
C    0.4917227   -0.0011956   -2.1979130  
C   -0.9187416    0.0003147   -2.0478688  
N   -1.1833166   -0.0009412   -0.7007918  
C   -1.7951691    0.0010348   -3.1372097  
C   -1.2375822    0.0005225   -4.4010429  
O   -2.0474193    0.0015357   -5.4997592  
C    0.1673600   -0.0013569   -4.5711965  
O    0.5673547   -0.0020690   -5.8915550  
C    1.0325783   -0.0023412   -3.4969888  
H    2.0953063   -0.0030647   -0.6200555  
H   -2.0989776    0.0102369   -0.2891834  
H   -2.8710921    0.0020417   -3.0295528  
H   -1.4634857    0.0006492   -6.2693603  
H    1.5290734   -0.0033155   -5.9180037  
C    4.1863646   -2.1477870   -1.3902869  
C    5.2964380   -1.7419933   -2.0495650  
C    4.8117036   -0.8307027   -3.0747877  
C    3.3454852   -0.8022262   -2.8851123  
N    2.9730544   -1.5722877   -1.8990645  
C    2.4861715   -0.0045380   -3.7159914  
C    3.0653213    0.7315528   -4.6917426  
O    2.3851023    1.5211674   -5.5401837  
C    4.5422563    0.7242591   -4.9080059  
O    5.0006616    1.4185849   -5.8151978  
C    5.4023468   -0.1022662   -4.0425438  
H    6.3180558   -2.0259185   -1.8631254  
H    3.0670354    1.9123003   -6.1156263  
H    6.4672357   -0.0798975   -4.2316006  
C    4.0967359   -3.0774171   -0.2550976  
C    5.1051799   -3.7257286    0.3728445  
C    4.4572254   -4.5073541    1.4148215  
C    3.0175917   -4.2031820    1.2681274  
N    2.8001561   -3.3655956    0.2908046  
C    2.0249014   -4.7888611    2.1263999  
C    2.4509945   -5.6400274    3.0872826  
O    1.6350263   -6.2583656    3.9578541  
C    3.8970533   -5.9673445    3.2603108  
O    4.2130117   -6.7503159    4.1560489  
C    4.8960058   -5.3536344    2.3673508  
H    6.1586401   -3.6793488    0.1557118  
H    0.9797483   -4.5485511    1.9967242  
H    2.2274535   -6.7953819    4.5144475  
H    5.9333568   -5.6166576    2.5253126  
C    1.1243417   -0.0099156    2.2619005  
C    0.7474090   -0.0234034    3.5848544  
C   -0.6787367   -0.0234952    3.6114698  
C   -1.1201739   -0.0099357    2.2635546  
N    0.0000000    0.0000000    1.4700000  
C   -2.4730812   -0.0065396    1.9108239  
C   -3.3971947   -0.0173298    2.9375057  
O   -4.7313508   -0.0149487    2.6493466  
C   -2.9763630   -0.0305536    4.2886322  
O   -4.0166453   -0.0397858    5.1947621  
C   -1.6418541   -0.0336380    4.6373480  
H    1.4178735   -0.0310004    4.4271209  
H   -2.8160170    0.0039190    0.8854031  
H   -5.1938803   -0.0234410    3.4974381  
H   -3.6464643   -0.0484781    6.0827341  
H   -1.3497443   -0.0436789    5.6809233  
H    2.1062470   -0.0051382    1.8205408  
