64

C   -8.3764271    0.9905916   -2.4121374  
C   -9.6882513    0.5771246   -2.3870117  
C   -9.6877514   -0.8255096   -2.6462728  
C   -8.3355085   -1.2156659   -2.8227531  
N   -7.5657081   -0.0885040   -2.6760230  
C   -7.9581685   -2.5340605   -3.0952231  
C   -8.9642136   -3.4758041   -3.1909858  
O   -8.6515831   -4.7779289   -3.4550811  
C  -10.3192911   -3.1059391   -3.0184097  
O  -11.2029647   -4.1578934   -3.1443286  
C  -10.6922967   -1.8054495   -2.7498579  
H  -10.5407635    1.2089686   -2.2053797  
H   -6.9293313   -2.8378367   -3.2309214  
H   -9.4883599   -5.2600813   -3.4795482  
H  -12.0953086   -3.8228061   -3.0137790  
H  -11.7383106   -1.5521116   -2.6227600  
H   -7.9550367    1.9701216   -2.2641197  
C   -4.4706944    2.1246862   -0.3281859  
C   -5.6599778    1.6264299   -0.8075742  
C   -5.3396889    0.7516500   -1.8877480  
C   -3.9276472    0.7558729   -2.0220872  
N   -3.4313258    1.6012781   -1.0610605  
C   -3.2578655    0.0024282   -2.9908505  
C   -4.0275333   -0.7695740   -3.8392615  
O   -3.4247947   -1.5249624   -4.8031638  
C   -5.4377033   -0.7867288   -3.7211790  
O   -6.0624936   -1.6048448   -4.6396926  
C   -6.0991482   -0.0434787   -2.7658800  
H   -6.6381202    1.8650658   -0.4264137  
H   -2.4588260    1.7971332   -0.9065740  
H   -4.1336020   -1.9789343   -5.2772601  
H   -7.0119839   -1.5590485   -4.4914533  
H   -4.2816969    2.8131210    0.4776036  
C    0.0000000    0.0000000    0.0000000  
C    1.0521666   -0.0011982   -0.8862343  
C    0.4917215   -0.0011996   -2.1979132  
C   -0.9187429    0.0003215   -2.0478682  
N   -1.1833171   -0.0009323   -0.7007913  
C   -1.7951703    0.0010483   -3.1372089  
C   -1.2375841    0.0005313   -4.4010422  
O   -2.0474218    0.0015510   -5.4997578  
C    0.1673576   -0.0013585   -4.5711963  
O    0.5673520   -0.0020735   -5.8915554  
C    1.0325768   -0.0023493   -3.4969892  
H    2.0953056   -0.0030808   -0.6200564  
H   -2.0989778    0.0102529   -0.2891822  
H   -1.4634888    0.0006601   -6.2693595  
H    1.5290707   -0.0033271   -5.9180047  
H    2.1042146   -0.0039770   -3.6584456  
C    1.0672568    0.0000697    2.3021913  
C    0.0000000    0.0000000    1.4700000  
C   -1.1601224    0.0000736    2.3478473  
C   -0.5938729    0.0000769    3.7138435  
N    0.7113367    0.0001554    3.6934124  
C   -1.4286986    0.0001879    4.8835240  
C   -2.7683114    0.0006799    4.6970523  
O   -3.6653903    0.0008304    5.6976972  
C   -3.3702025    0.0010610    3.3310774  
O   -4.5974910    0.0013779    3.2362962  
C   -2.4926826    0.0008943    2.1470656  
H   -0.9878360   -0.0000190    5.8697035  
H   -4.5324246    0.0012261    5.2533954  
H   -2.9677772    0.0012974    1.1752040  
H    2.1134392    0.0000545    2.0405121  
