64

C    6.9675878   -3.0830428   -7.3606447  
C    6.4673522   -1.8500149   -7.0115391  
C    6.8755001   -0.9329725   -8.0249726  
C    7.6282955   -1.6701129   -8.9746301  
N    7.6664159   -2.9717106   -8.5398790  
C    8.1898315   -1.0847865  -10.1134277  
C    7.9874861    0.2692877  -10.2970511  
O    8.5133572    0.8913653  -11.3922627  
C    7.2395891    1.0218742   -9.3605251  
O    7.1274618    2.3583187   -9.6840778  
C    6.6855586    0.4451477   -8.2367091  
H    8.1217338   -3.7294458   -9.0158030  
H    8.7647347   -1.6410623  -10.8409206  
H    8.2579067    1.8207677  -11.3273054  
H    6.6083496    2.7940514   -9.0012423  
H    6.1177523    1.0471692   -7.5369628  
H    6.8823934   -4.0328264   -6.8610342  
C    5.8883845   -2.0954747   -4.5533061  
C    4.9762279   -1.6321311   -3.6603571  
C    4.1010833   -0.7362693   -4.3789590  
C    4.5815868   -0.7155464   -5.7737627  
N    5.6672530   -1.5597491   -5.8130037  
C    4.0183661    0.0134743   -6.7702647  
C    2.8618710    0.8325283   -6.4474560  
O    2.2840242    1.5248513   -7.2751528  
C    2.3361184    0.8260250   -4.9766244  
O    1.3633190    1.5118827   -4.6928611  
C    3.0267438   -0.0008951   -3.9901699  
H    4.9226753   -1.8885071   -2.6172761  
H    4.3863446    0.0144155   -7.7868769  
H    6.7036722   -2.7830650   -4.3970513  
C    3.3003547    0.0005277   -1.4738986  
C    2.5232816    0.0003497   -2.6090746  
C    1.1623203   -0.0001319   -2.1820102  
C    1.1711884    0.0000584   -0.7636141  
N    2.4852301   -0.0014919   -0.3662359  
C    0.0000000    0.0000000    0.0000000  
C   -1.2020383    0.0000520   -0.6806479  
O   -2.3759248    0.0003493    0.0157745  
C   -1.2314655   -0.0005115   -2.0955511  
O   -2.5054388   -0.0008040   -2.6250184  
C   -0.0764513   -0.0007274   -2.8495195  
H    2.8036266    0.0088183    0.5858662  
H   -3.0835639    0.0000346   -0.6418822  
H   -2.4360043   -0.0011529   -3.5845924  
H   -0.1304091   -0.0013423   -3.9319089  
H    4.3715553    0.0004897   -1.3667133  
C    2.5311839    2.1237619    3.0120429  
C    1.9795631    1.6616747    1.8395852  
C    0.9223175    0.7739173    2.1983588  
C    0.8753926    0.7337535    3.6154372  
N    1.8668922    1.5631002    4.0777464  
C   -0.0496243   -0.0427881    4.3197917  
C   -0.9437528   -0.7922060    3.5801400  
O   -1.8685244   -1.5680278    4.2172520  
C   -0.9124520   -0.7656372    2.1655264  
O   -1.8671164   -1.5663939    1.5732860  
C    0.0000000    0.0000000    1.4700000  
H    2.3005065    1.9304404    0.8477417  
H    2.0679347    1.7444845    5.0445261  
H   -0.0904770   -0.0778569    5.3997470  
H   -2.3849669   -2.0011402    3.5251786  
H   -1.7775064   -1.4909735    0.6183591  
H    3.3468514    2.8078103    3.1724291  
