62

C    0.9757159   -1.0721211   -9.5475654  
C    0.5183080    0.0274013   -8.8588733  
C    0.6278793    1.1448936   -9.7385355  
C    1.1627665    0.6619896  -10.9602664  
N    1.3640959   -0.6875931  -10.8095663  
C    1.4060561    1.4910439  -12.0594784  
C    1.1035912    2.8319616  -11.9229747  
O    1.3211185    3.6859375  -12.9652910  
C    0.5695828    3.3328003  -10.7118560  
O    0.3216891    4.6898014  -10.7328120  
C    0.3295666    2.5155444   -9.6269536  
H    1.7256264   -1.3028593  -11.5157705  
H    1.8136970    1.1291940  -12.9933391  
H    1.0465056    4.5613842  -12.6628923  
H   -0.0370933    4.9466781   -9.8778898  
H   -0.0799735    2.9278347   -8.7122023  
H    1.0569888   -2.0999723   -9.2379265  
C    1.8886554   -2.0886686   -5.2633577  
C    0.9763566   -1.6271610   -4.3696034  
C    0.1009362   -0.7303189   -5.0866450  
C    0.5814328   -0.7070199   -6.4814108  
N    1.6673588   -1.5508189   -6.5221211  
C    0.0179872    0.0235611   -7.4766416  
C   -1.1387598    0.8416956   -7.1524079  
O   -1.7168203    1.5352810   -7.9788982  
C   -1.6645101    0.8324701   -5.6815895  
O   -2.6375203    1.5175331   -5.3966331  
C   -0.9736297    0.0040464   -4.6965763  
H    0.9228833   -1.8853691   -3.3269707  
H    2.7041548   -2.7762787   -5.1083002  
H    2.2136191   -1.7473804   -7.3406622  
C    1.1188642    0.0008222   -0.8003808  
C    0.0000000    0.0000000    0.0000000  
C   -1.1323862    0.0008899   -0.8673528  
C   -0.6382663    0.0019679   -2.1969280  
N    0.7324016    0.0038481   -2.1202242  
C   -1.4770914    0.0027318   -3.3154808  
C   -2.8395473    0.0020945   -3.0876857  
O   -3.7039201    0.0024425   -4.1440349  
C   -3.3517868    0.0013931   -1.7684331  
O   -4.7300497    0.0012366   -1.7073121  
C   -2.5248543    0.0009123   -0.6644817  
H    1.3576314   -0.0056167   -2.9057046  
H   -4.5940032    0.0021826   -3.7685128  
H   -4.9934602    0.0007259   -0.7819913  
H   -2.9462577    0.0005603    0.3339659  
H    2.1619895    0.0009355   -0.5342068  
C    0.8400945    0.7047457    2.2710304  
C    0.0000000    0.0000000    1.4700000  
C   -0.8844236   -0.7423113    2.3369512  
C   -0.4878984   -0.4098547    3.7186280  
N    0.5629682    0.4714286    3.6095011  
C   -1.0836927   -0.9095027    4.8308716  
C   -2.1891196   -1.8367527    4.6554461  
O   -2.7906899   -2.3413415    5.5944904  
C   -2.6257283   -2.2031529    3.2011665  
O   -3.5549479   -2.9829990    3.0410059  
C   -1.9068976   -1.5999348    2.0816745  
H   -0.7774656   -0.6525820    5.8354244  
H   -2.2155208   -1.8586617    1.0779135  
H    1.6384792    1.3747609    1.9961646  
H    1.0518368    0.8833920    4.3830260  
