62

C    4.8298522   -1.1036128   -4.9087183  
C    5.6500351   -1.9890702   -4.2486184  
C    6.7605372   -2.2464788   -5.1060133  
C    6.5616376   -1.4835204   -6.2851060  
N    5.3791698   -0.8028685   -6.1331169  
C    7.4640225   -1.4926253   -7.3530043  
C    8.5878166   -2.2861573   -7.2282184  
O    9.5017596   -2.3319382   -8.2409505  
C    8.8037098   -3.0548683   -6.0597622  
O    9.9686899   -3.7933714   -6.0876397  
C    7.9137732   -3.0465808   -5.0059736  
H    5.4695226   -2.3998677   -3.2700210  
H    4.9824681   -0.1714183   -6.8053364  
H    7.3181257   -0.9135174   -8.2544200  
H   10.1978366   -2.9369734   -7.9534190  
H   10.0383821   -4.2827732   -5.2622710  
H    8.1058355   -3.6460033   -4.1237709  
C    2.9127944   -0.7214797   -3.3153362  
C    3.5543783   -0.5031937   -4.4921099  
C    2.7457297    0.4250582   -5.2466109  
C    1.5720421    0.7318925   -4.4069087  
N    1.7334695    0.0049281   -3.2500363  
C    0.5691430    1.5730721   -4.7651197  
C    0.6510615    2.2191848   -6.0644901  
O   -0.2019644    2.9933463   -6.4784003  
C    1.8850639    1.9086368   -6.9703614  
O    1.9647776    2.4464642   -8.0665592  
C    2.9022259    0.9847054   -6.4747973  
H   -0.2829824    1.7845577   -4.1341953  
H    3.7535956    0.7751533   -7.1080283  
H    3.2021854   -1.3520628   -2.4904076  
C    1.1319246    0.0015678   -0.8009268  
C    0.7969914    0.0034958   -2.1169401  
C   -0.6453340    0.0035696   -2.1842669  
C   -1.1266832    0.0015410   -0.7896025  
N    0.0000000    0.0000000    0.0000000  
C   -2.4346129    0.0013913   -0.4276292  
C   -3.4350111    0.0031335   -1.4820181  
O   -4.6384614    0.0030875   -1.2583914  
C   -2.9478961    0.0050442   -2.9661074  
O   -3.7809382    0.0062135   -3.8623773  
C   -1.5113825    0.0053055   -3.2312122  
H   -2.7664565    0.0000174    0.6013448  
H   -1.1823533    0.0068381   -4.2614848  
H    2.1104316    0.0009435   -0.3488059  
C    2.5285572    2.1210227    2.9438989  
C    1.9331703    1.6216660    4.0790748  
C    0.8903039    0.7472258    3.6520102  
C    0.8972198    0.7527806    2.2336141  
N    1.9028376    1.5986179    1.8362361  
C    0.0000000    0.0000000    1.4700000  
C   -0.9207814   -0.7726952    2.1506477  
O   -1.8198395   -1.5274828    1.4542253  
C   -0.9436862   -0.7911793    3.5655508  
O   -1.9197945   -1.6098497    4.0950179  
C   -0.0590329   -0.0485852    4.3195194  
H    2.2150357    1.8593692    5.0905303  
H    2.1533708    1.7953814    0.8841339  
H   -2.3621246   -1.9821033    2.1118817  
H   -1.8668290   -1.5649508    5.0545920  
H   -0.1007624   -0.0827977    5.4019087  
H    3.3491200    2.8096064    2.8367138  
