64

C    1.9382956   -2.3694141   -7.2185393  
C    1.5049148   -1.0663928   -7.3009057  
C    2.2868524   -0.4305552   -8.3103029  
C    3.1883099   -1.4034874   -8.8129983  
N    2.9512681   -2.5688060   -8.1270969  
C    4.1136773   -1.1264056   -9.8237966  
C    4.1291056    0.1561287  -10.3366757  
O    5.0123758    0.4807537  -11.3253449  
C    3.2378188    1.1407803   -9.8479155  
O    3.3768416    2.3693432  -10.4600026  
C    2.3248414    0.8682119   -8.8505666  
H    3.4326309   -3.4373881   -8.2748688  
H    4.8035187   -1.8634659  -10.2111753  
H    4.8577568    1.4110280  -11.5349807  
H    2.7389140    2.9762403  -10.0722804  
H    1.6549031    1.6429263   -8.4963387  
H    1.6059506   -3.1719536   -6.5825869  
C    0.2216277   -0.7182091   -5.1532605  
C   -0.8712826    0.0001710   -4.7267111  
C   -1.3561987    0.7285934   -5.8531470  
C   -0.5122259    0.4119091   -6.9482939  
N    0.4362932   -0.4675015   -6.4883310  
C   -0.6953619    0.9515860   -8.2250077  
C   -1.7498732    1.8266641   -8.3994263  
O   -1.9744425    2.3824391   -9.6256791  
C   -2.6027033    2.1552815   -7.3189133  
O   -3.6065572    3.0408902   -7.6525590  
C   -2.4224662    1.6234644   -6.0590675  
H   -0.0555487    0.7143589   -9.0637961  
H   -2.7470714    2.9542363   -9.5289478  
H   -4.1364908    3.2097554   -6.8675382  
H   -3.0918144    1.8939822   -5.2508155  
H    0.8658683   -1.3884856   -4.6104503  
C    1.0965514    0.0001359   -0.8010305  
C    0.0000000    0.0000000    0.0000000  
C   -1.1546563    0.0001470   -0.8669513  
C   -0.6372014    0.0003519   -2.2486282  
N    0.7342871    0.0007337   -2.1395014  
C   -1.4147739    0.0001352   -3.3608717  
C   -2.8576049   -0.0001048   -3.1854462  
O   -3.6427779   -0.0002494   -4.1244907  
C   -3.4275840   -0.0000725   -1.7311666  
O   -4.6406831    0.0000333   -1.5710060  
C   -2.4891867   -0.0001091   -0.6116744  
H   -2.8919122   -0.0002918    0.3920866  
H    2.1388272    0.0000663   -0.5261648  
H    1.3735872   -0.0006099   -2.9130262  
C    0.8576279    0.7185626    2.2703808  
C    0.0000000    0.0000000    1.4700000  
C   -0.8668858   -0.7285659    2.3373528  
C   -0.4876752   -0.4117774    3.6669281  
N    0.5635254    0.4678311    3.5902241  
C   -1.1297612   -0.9515493    4.7854808  
C   -2.1738724   -1.8268314    4.5576857  
O   -2.8357962   -2.3827064    5.6140350  
C   -2.5667212   -2.1555554    3.2384331  
O   -3.6226318   -3.0413663    3.1773122  
C   -1.9335634   -1.6236449    2.1344818  
H    1.0363952    0.8769718    4.3757045  
H   -0.8454472   -0.7142436    5.8013813  
H   -3.5178062   -2.9546422    5.2385129  
H   -3.8247440   -3.2102924    2.2519915  
H   -2.2566033   -1.8942483    1.1360343  
H    1.6567807    1.3889844    2.0042067  
