62

C    1.1188647    0.0008222   -0.8003809  
C    0.0000000    0.0000000    0.0000000  
C   -1.1323858    0.0008897   -0.8673529  
C   -0.6382654    0.0019677   -2.1969285  
N    0.7324023    0.0038481   -2.1202242  
C   -1.4770906    0.0027315   -3.3154813  
C   -2.8395469    0.0020940   -3.0876862  
O   -3.7039191    0.0024420   -4.1440354  
C   -3.3517865    0.0013925   -1.7684334  
O   -4.7300487    0.0012361   -1.7073134  
C   -2.5248542    0.0009120   -0.6644822  
H   -1.1067563    0.0036985   -4.3313815  
H   -4.5940025    0.0021823   -3.7685139  
H   -4.9934597    0.0007257   -0.7819921  
H   -2.9462573    0.0005599    0.3339647  
H    2.1619897    0.0009356   -0.5342067  
C    4.5154630   -2.1146754   -2.8156717  
C    4.7985782   -1.6646934   -4.0652465  
C    3.7280663   -0.7729176   -4.4441600  
C    2.7913715   -0.7399860   -3.3047266  
N    3.3260549   -1.5745769   -2.3505458  
C    1.6478442   -0.0100100   -3.2703000  
C    1.3174732    0.7969139   -4.4331690  
O    0.3100026    1.4889655   -4.4992703  
C    2.2949961    0.7769789   -5.6513050  
O    2.0272072    1.4520882   -6.6360779  
C    3.4969332   -0.0492778   -5.5706860  
H    5.6590353   -1.9276269   -4.6543934  
H    5.0755446   -2.7955783   -2.1955354  
H    2.9164740   -1.7608863   -1.4535624  
C    5.8946464   -3.1520267   -7.6892621  
C    5.0586328   -2.5591622   -6.8054222  
C    5.0371642   -1.1568265   -7.1920656  
C    5.9410007   -1.0782846   -8.3597535  
N    6.4465574   -2.2447670   -8.6559312  
C    6.1933444    0.1595808   -9.0446609  
C    5.5707446    1.2685014   -8.5842276  
O    5.7143016    2.4897062   -9.1265302  
C    4.6525369    1.2215152   -7.4082818  
O    4.1201088    2.2698177   -7.0438612  
C    4.4099732   -0.0603058   -6.7226998  
H    4.5226384   -3.0169420   -5.9916510  
H    6.8586993    0.1878835   -9.8951977  
H    5.1501652    3.0698136   -8.5839634  
H    6.1778062   -4.1913035   -7.7411967  
C    2.5311839    2.1237619    3.0120429  
C    1.9795631    1.6616747    1.8395852  
C    0.9223175    0.7739173    2.1983588  
C    0.8753926    0.7337535    3.6154372  
N    1.8668922    1.5631002    4.0777464  
C   -0.0496243   -0.0427881    4.3197917  
C   -0.9437528   -0.7922060    3.5801400  
O   -1.8685244   -1.5680278    4.2172520  
C   -0.9124520   -0.7656372    2.1655264  
O   -1.8671164   -1.5663939    1.5732860  
C    0.0000000    0.0000000    1.4700000  
H    2.3005065    1.9304404    0.8477417  
H    2.0679347    1.7444845    5.0445261  
H   -0.0904770   -0.0778569    5.3997470  
H   -2.3849669   -2.0011402    3.5251786  
H   -1.7775064   -1.4909735    0.6183591  
H    3.3468514    2.8078103    3.1724291  
