62

C    5.3935772   -0.8968080   -8.6516380  
C    5.8474007   -0.4948694   -9.8865295  
C    5.6074410    0.9079547   -9.9819415  
C    5.0003659    1.3101023   -8.7647053  
N    4.8833646    0.1895903   -7.9802429  
C    4.6245054    2.6320023   -8.5076094  
C    4.8661583    3.5649870   -9.4972167  
O    4.5192906    4.8700439   -9.2984117  
C    5.4705454    3.1831084  -10.7185686  
O    5.6441336    4.2273995  -11.6032543  
C    5.8413534    1.8791545  -10.9729908  
H    6.2951954   -1.1343234  -10.6278602  
H    4.1612976    2.9449034   -7.5820105  
H    4.7713161    5.3448715  -10.1010864  
H    6.0577693    3.8843888  -12.4012847  
H    6.3022317    1.6165475  -11.9180351  
H    5.3921586   -1.8727462   -8.1972133  
C    6.1812373   -2.0122605   -4.4510963  
C    5.2702187   -1.6303461   -3.5260204  
C    4.3856200   -0.7126510   -4.2273195  
C    4.9238565   -0.6545500   -5.6033682  
N    5.9763881   -1.4143797   -5.7405736  
C    4.3191903    0.1574945   -6.6231959  
C    3.2262690    0.8784137   -6.2838837  
O    2.5612865    1.6787218   -7.1343809  
C    2.6590319    0.8406141   -4.9036753  
O    1.6623422    1.5226360   -4.6656073  
C    3.2973506   -0.0000934   -3.8752374  
H    5.2063282   -1.9339561   -2.4950913  
H    1.8346677    2.0540005   -6.6049057  
H    7.0103757   -2.6904146   -4.3261563  
C    3.3321174    0.0004714   -1.3379332  
C    2.6974186    0.0000115   -2.5332308  
C    1.2800441   -0.0002119   -2.2052838  
C    1.2395035    0.0000643   -0.7271293  
N    2.4394063    0.0005458   -0.2131034  
C    0.0000000    0.0000000    0.0000000  
C   -1.1468701    0.0000634   -0.7169542  
O   -2.3742201    0.0000072   -0.1695492  
C   -1.1388767    0.0001606   -2.2096354  
O   -2.2206229    0.0000903   -2.7970413  
C    0.1454526    0.0001815   -2.9324239  
H   -2.9844344    0.0001023   -0.9290168  
H    0.1083580    0.0003680   -4.0135594  
H    4.3940040    0.0007617   -1.1498630  
C    0.8576279    0.7185626    2.2703808  
C    0.0000000    0.0000000    1.4700000  
C   -0.8668858   -0.7285659    2.3373528  
C   -0.4876752   -0.4117774    3.6669281  
N    0.5635254    0.4678311    3.5902241  
C   -1.1297612   -0.9515493    4.7854808  
C   -2.1738724   -1.8268314    4.5576857  
O   -2.8357962   -2.3827064    5.6140350  
C   -2.5667212   -2.1555554    3.2384331  
O   -3.6226318   -3.0413663    3.1773122  
C   -1.9335634   -1.6236449    2.1344818  
H    1.0363952    0.8769718    4.3757045  
H   -0.8454472   -0.7142436    5.8013813  
H   -3.5178062   -2.9546422    5.2385129  
H   -3.8247440   -3.2102924    2.2519915  
H   -2.2566033   -1.8942483    1.1360343  
H    1.6567807    1.3889844    2.0042067  
