62

C    8.3598388    0.7074079   -3.9093895  
C    9.1179770    0.4563105   -5.0294980  
C   10.1471933   -0.4515266   -4.6407228  
C    9.9646203   -0.7212565   -3.2602017  
N    8.8719481   -0.0001311   -2.8470892  
C   10.8011259   -1.5795648   -2.5402330  
C   11.8406962   -2.1766921   -3.2264621  
O   12.6874434   -3.0238850   -2.5720200  
C   12.0393998   -1.9198202   -4.6039062  
O   13.1176552   -2.5896179   -5.1443521  
C   11.2147195   -1.0729803   -5.3147452  
H    8.9505360    0.8767127   -6.0063395  
H   10.6674035   -1.7891785   -1.4879106  
H   13.3314211   -3.3253347   -3.2259976  
H   13.1813414   -2.3612192   -6.0767590  
H   11.3918307   -0.8954060   -6.3690593  
H    7.4951752    1.3363397   -3.7838508  
C    4.7795901    0.0008674   -1.0815733  
C    5.7862016    0.0008772   -1.9861798  
C    7.0047290    0.0013415   -1.1913902  
C    6.5351379    0.0016830    0.2107753  
N    5.2316823    0.0013266    0.2814336  
C    7.4495166    0.0021412    1.3193773  
C    8.7728605    0.0018640    1.0399208  
O    9.7375504    0.0022381    1.9755566  
C    9.2780077    0.0011456   -0.3647098  
O   10.4956961    0.0010514   -0.5448642  
C    8.3200392    0.0007295   -1.4846298  
H    5.7111077    0.0005129   -3.0601616  
H    7.0785145    0.0025903    2.3339055  
H   10.5714828    0.0018725    1.4718605  
C    3.3321168    0.0004716   -1.3379341  
C    2.6974177    0.0000118   -2.5332316  
C    1.2800432   -0.0002116   -2.2052842  
C    1.2395033    0.0000644   -0.7271298  
N    2.4394059    0.0005460   -0.2131041  
C    0.0000000    0.0000000    0.0000000  
C   -1.1468704    0.0000635   -0.7169542  
O   -2.3742206    0.0000074   -0.1695488  
C   -1.1388774    0.0001608   -2.2096352  
O   -2.2206238    0.0000906   -2.7970409  
C    0.1454514    0.0001818   -2.9324241  
H    3.1367978   -0.0000649   -3.5160956  
H   -2.9844350    0.0001027   -0.9290164  
H    0.1083567    0.0003684   -4.0135594  
C    0.8676693    0.7151171    2.2619005  
C    0.5875920    0.4624972    3.5848544  
C   -0.5048400   -0.4542819    3.6114698  
C   -0.8517165   -0.7276451    2.2635546  
N    0.0000000    0.0000000    1.4700000  
C   -1.8902865   -1.5946756    1.9108239  
C   -2.5912627   -2.1969500    2.9375057  
O   -3.6148162   -3.0527051    2.6493466  
C   -2.2603868   -1.9365747    4.2886322  
O   -3.0513550   -2.6123276    5.1947621  
C   -1.2361111   -1.0811317    4.6373480  
H    1.1060808    0.8876438    4.4271209  
H   -2.1597133   -1.8070987    0.8854031  
H   -3.9636755   -3.3565188    3.4974381  
H   -2.7621927   -2.3810384    6.0827341  
H   -1.0058879   -0.9010589    5.6809233  
H    1.6167816    1.3499334    1.8205408  
