64

C    4.3172221   -2.1275323   -1.4345756  
C    5.3517574   -1.6299265   -2.1925942  
C    4.7753719   -0.7549433   -3.1604702  
C    3.3738289   -0.7583777   -2.9423148  
N    3.1294665   -1.6035295   -1.8884538  
C    2.4861703   -0.0045376   -3.7159919  
C    3.0231730    0.7670563   -4.7281424  
O    2.2016855    1.5228026   -5.5136479  
C    4.4188992    0.7834238   -4.9615918  
O    4.7982327    1.6012136   -6.0059425  
C    5.2951623    0.0397835   -4.1989070  
H    6.3935691   -1.8691157   -2.0644883  
H    2.2250274   -1.7988472   -1.4988094  
H    2.7718764    1.9763908   -6.1480015  
H    5.7549222    1.5548856   -6.0965133  
H    6.3593036    0.0723747   -4.4014375  
H    4.3324737   -2.8158804   -0.6069876  
C    0.0000000    0.0000000    0.0000000  
C    1.0521669   -0.0011899   -0.8862338  
C    0.4917222   -0.0011953   -2.1979129  
C   -0.9187426    0.0003152   -2.0478681  
N   -1.1833169   -0.0009409   -0.7007913  
C   -1.7951697    0.0010354   -3.1372090  
C   -1.2375835    0.0005230   -4.4010425  
O   -2.0474206    0.0015366   -5.4997579  
C    0.1673585   -0.0013561   -4.5711965  
O    0.5673529   -0.0020681   -5.8915554  
C    1.0325774   -0.0023407   -3.4969889  
H    2.0953060   -0.0030646   -0.6200560  
H   -2.0989776    0.0102374   -0.2891826  
H   -1.4634880    0.0006503   -6.2693594  
H    1.5290717   -0.0033145   -5.9180047  
C   -4.4707104    2.1246527   -0.3281857  
C   -5.6599899    1.6263875   -0.8075747  
C   -5.3396938    0.7516102   -1.8877486  
C   -3.9276524    0.7558438   -2.0220875  
N   -3.4313378    1.6012527   -1.0610606  
C   -3.2578649    0.0024042   -2.9908508  
C   -4.0275270   -0.7696037   -3.8392621  
O   -3.4247821   -1.5249875   -4.8031643  
C   -5.4376969   -0.7867689   -3.7211798  
O   -6.0624810   -1.6048896   -4.6396938  
C   -6.0991476   -0.0435241   -2.7658806  
H   -6.6381342    1.8650161   -0.4264142  
H   -2.4588394    1.7971151   -0.9065738  
H   -4.1335864   -1.9789642   -5.2772606  
H   -7.0119716   -1.5591003   -4.4914544  
H   -7.1803449   -0.0767263   -2.6996351  
H   -4.2817181    2.8130889    0.4776037  
C    0.0000000    0.0000000    1.4700000  
C    1.0541688    0.0001722    2.3260392  
C    0.5103138    0.0000454    3.6635956  
C   -0.9576371   -0.0002459    3.5155732  
N   -1.2018458    0.0001392    2.1615969  
C   -1.8348311   -0.0008317    4.5510609  
C   -1.2972847   -0.0009736    5.9014604  
O   -2.0050672   -0.0014265    6.9001319  
C    0.2542623   -0.0004184    6.0817573  
O    0.7184670   -0.0002256    7.2139121  
C    1.0974552   -0.0000873    4.8889129  
H    2.0940752    0.0005483    2.0517982  
H   -2.9081052   -0.0011668    4.4207061  
H    2.1707277    0.0000911    5.0223670  
H   -2.1128194   -0.0014912    1.7406791  
