66

C    1.1188644    0.0008222   -0.8003806  
C    0.0000000    0.0000000    0.0000000  
C   -1.1323860    0.0008898   -0.8673529  
C   -0.6382658    0.0019678   -2.1969281  
N    0.7324021    0.0038481   -2.1202240  
C   -1.4770909    0.0027314   -3.3154811  
C   -2.8395471    0.0020942   -3.0876861  
O   -3.7039190    0.0024420   -4.1440351  
C   -3.3517864    0.0013927   -1.7684337  
O   -4.7300491    0.0012363   -1.7073130  
C   -2.5248541    0.0009122   -0.6644822  
H   -1.1067562    0.0036985   -4.3313812  
H   -4.5940031    0.0021824   -3.7685135  
H   -4.9934598    0.0007258   -0.7819921  
H   -2.9462584    0.0005601    0.3339659  
H    2.1619896    0.0009357   -0.5342067  
C    4.5426439   -2.1280475   -2.8244668  
C    4.7840763   -1.6433670   -4.0890863  
C    3.7027659   -0.7718628   -4.4144294  
C    2.8248675   -0.7639998   -3.3003562  
N    3.3636323   -1.5993775   -2.3535226  
C    1.6478440   -0.0100101   -3.2702997  
C    1.3518127    0.7501216   -4.3850836  
O    0.2151955    1.5054726   -4.4087632  
C    2.2150343    0.7551142   -5.5065290  
O    1.7815979    1.5622770   -6.5380160  
C    3.3762260    0.0113180   -5.5369817  
H    5.6343327   -1.8887237   -4.7021579  
H    2.9665976   -1.7854937   -1.4503584  
H    0.2007697    1.9502732   -5.2662069  
H    2.4205826    1.5086856   -7.2552539  
H    5.1174439   -2.8101427   -2.2217148  
C    5.6414051   -3.1694545   -7.6131635  
C    6.1901543   -2.3805128   -8.5974968  
C    5.7216047   -1.0516805   -8.3755372  
C    4.8836504   -1.0914246   -7.2317807  
N    4.8552037   -2.3925390   -6.7948488  
C    4.2462774    0.0435059   -6.7214121  
C    4.4589262    1.2404164   -7.3774330  
O    3.8611758    2.3795358   -6.9212359  
C    5.2912642    1.3002330   -8.5204340  
O    5.4027762    2.5645070   -9.0612863  
C    5.9201517    0.1809464   -9.0246397  
H    6.8464424   -2.7210967   -9.3799811  
H    4.3502230   -2.7246138   -5.9931617  
H    4.1381758    3.0897203   -7.5146776  
H    5.9814344    2.5171785   -9.8284355  
H    6.5517615    0.2575944   -9.9019503  
H    5.7474753   -4.2251494   -7.4309084  
C    0.0000000    0.0000000    1.4700000  
C    1.0521667    0.0011902    2.3562342  
C    0.4917218    0.0011957    3.6679131  
C   -0.9187428   -0.0003148    3.5178682  
N   -1.1833171    0.0009411    2.1707914  
C   -1.7951701   -0.0010350    4.6072090  
C   -1.2375837   -0.0005224    5.8710424  
O   -2.0474215   -0.0015360    6.9697579  
C    0.1673580    0.0013566    6.0411963  
O    0.5673524    0.0020687    7.3615553  
C    1.0325770    0.0023412    4.9669890  
H    2.0953057    0.0030649    2.0900562  
H   -2.0989778   -0.0102372    1.7591824  
H   -2.8710934   -0.0020419    4.4995513  
H   -1.4634884   -0.0006497    7.7393593  
H    1.5290710    0.0033153    7.3880045  
H    2.1042148    0.0039609    5.1284455  
