60

C    0.0123498   -0.0076597   -8.8432614  
C    0.8140383   -0.6820502   -9.7348680  
C    0.3778050   -0.3196055  -11.0436586  
C   -0.7020587    0.5865344  -10.8863977  
N   -0.8991023    0.7525800   -9.5379845  
C   -1.3790313    1.1518827  -11.9712381  
C   -0.9580246    0.7962404  -13.2379075  
O   -1.5837930    1.3190934  -14.3324632  
C    0.1172684   -0.1065954  -13.4152460  
O    0.4170235   -0.3611240  -14.7376331  
C    0.7854020   -0.6649211  -12.3454828  
H    1.6140483   -1.3535716   -9.4740294  
H   -1.5920450    1.3480030   -9.1217115  
H   -2.2028944    1.8430025  -11.8580764  
H   -1.1403854    0.9452245  -15.1050410  
H    1.1535585   -0.9792954  -14.7690039  
H    1.6053200   -1.3536480  -12.5124194  
C    2.5229108   -2.1069164   -5.8790356  
C    1.9659599   -1.6422912   -7.0270794  
C    0.8993074   -0.7471221   -6.6452951  
C    0.8803722   -0.7281568   -5.1701434  
N    1.8886143   -1.5732496   -4.7674566  
C    0.0139741    0.0003876   -4.4216236  
C   -0.9653704    0.8204006   -5.1151637  
O   -1.7886285    1.5123013   -4.5305094  
C   -0.9636624    0.8153753   -6.6771425  
O   -1.7837156    1.5015798   -7.2720341  
C    0.0195996   -0.0107216   -7.3732829  
H    2.2677702   -1.8976628   -8.0272341  
H    3.3432283   -2.7944525   -5.7515051  
H    2.1282171   -1.7702570   -3.8130849  
C    3.2798085    0.0005853   -1.4499648  
C    2.5571144    0.0005562   -2.5996554  
C    1.1637436    0.0001546   -2.2210360  
C    1.1336965   -0.0000201   -0.7459470  
N    2.4483513   -0.0001430   -0.3402717  
C    0.0000000    0.0000000    0.0000000  
C   -1.2757367   -0.0000188   -0.6964414  
O   -2.3524597   -0.0000640   -0.1142313  
C   -1.2676494   -0.0000875   -2.2584081  
O   -2.3355762   -0.0004102   -2.8557294  
C    0.0181562    0.0001757   -2.9516296  
H    2.9547357    0.0006072   -3.5989105  
H    4.3498550    0.0008609   -1.3200021  
H    2.7563627    0.0012824    0.6148063  
C    0.8400945    0.7047457    2.2710304  
C    0.0000000    0.0000000    1.4700000  
C   -0.8844236   -0.7423113    2.3369512  
C   -0.4878984   -0.4098547    3.7186280  
N    0.5629682    0.4714286    3.6095011  
C   -1.0836927   -0.9095027    4.8308716  
C   -2.1891196   -1.8367527    4.6554461  
O   -2.7906899   -2.3413415    5.5944904  
C   -2.6257283   -2.2031529    3.2011665  
O   -3.5549479   -2.9829990    3.0410059  
C   -1.9068976   -1.5999348    2.0816745  
H   -0.7774656   -0.6525820    5.8354244  
H   -2.2155208   -1.8586617    1.0779135  
H    1.6384792    1.3747609    1.9961646  
H    1.0518368    0.8833920    4.3830260  
