60

C    4.8298522   -1.1036128   -4.9087183  
C    5.6500351   -1.9890702   -4.2486184  
C    6.7605372   -2.2464788   -5.1060133  
C    6.5616376   -1.4835204   -6.2851060  
N    5.3791698   -0.8028685   -6.1331169  
C    7.4640225   -1.4926253   -7.3530043  
C    8.5878166   -2.2861573   -7.2282184  
O    9.5017596   -2.3319382   -8.2409505  
C    8.8037098   -3.0548683   -6.0597622  
O    9.9686899   -3.7933714   -6.0876397  
C    7.9137732   -3.0465808   -5.0059736  
H    5.4695226   -2.3998677   -3.2700210  
H    4.9824681   -0.1714183   -6.8053364  
H    7.3181257   -0.9135174   -8.2544200  
H   10.1978366   -2.9369734   -7.9534190  
H   10.0383821   -4.2827732   -5.2622710  
H    8.1058355   -3.6460033   -4.1237709  
C    2.9127944   -0.7214797   -3.3153362  
C    3.5543783   -0.5031937   -4.4921099  
C    2.7457297    0.4250582   -5.2466109  
C    1.5720421    0.7318925   -4.4069087  
N    1.7334695    0.0049281   -3.2500363  
C    0.5691430    1.5730721   -4.7651197  
C    0.6510615    2.2191848   -6.0644901  
O   -0.2019644    2.9933463   -6.4784003  
C    1.8850639    1.9086368   -6.9703614  
O    1.9647776    2.4464642   -8.0665592  
C    2.9022259    0.9847054   -6.4747973  
H   -0.2829824    1.7845577   -4.1341953  
H    3.7535956    0.7751533   -7.1080283  
H    3.2021854   -1.3520628   -2.4904076  
C    1.1319246    0.0015678   -0.8009268  
C    0.7969914    0.0034958   -2.1169401  
C   -0.6453340    0.0035696   -2.1842669  
C   -1.1266832    0.0015410   -0.7896025  
N    0.0000000    0.0000000    0.0000000  
C   -2.4346129    0.0013913   -0.4276292  
C   -3.4350111    0.0031335   -1.4820181  
O   -4.6384614    0.0030875   -1.2583914  
C   -2.9478961    0.0050442   -2.9661074  
O   -3.7809382    0.0062135   -3.8623773  
C   -1.5113825    0.0053055   -3.2312122  
H   -2.7664565    0.0000174    0.6013448  
H   -1.1823533    0.0068381   -4.2614848  
H    2.1104316    0.0009435   -0.3488059  
C    2.4951002    2.0940188    2.9809380  
C    1.9440701    1.6314916    1.8291961  
C    0.8759964    0.7350050    2.2038498  
C    0.8497377    0.7130254    3.6788474  
N    1.8560616    1.5571714    4.0882609  
C   -0.0205033   -0.0168748    4.4215661  
C   -0.9962600   -0.8356168    3.7214979  
O   -1.8224391   -1.5286685    4.3006425  
C   -0.9864710   -0.8277881    2.1595606  
O   -1.8030528   -1.5133726    1.5592035  
C    0.0000000    0.0000000    1.4700000  
H    2.2509283    1.8888011    0.8310761  
H   -0.0229599   -0.0187323    5.5027230  
H    3.3143982    2.7817323    3.1139444  
H    2.0889452    1.7545833    5.0442112  
