58

C    3.0623779   -0.7272681   -7.3485016  
C    4.3218510   -0.5112495   -7.8080000  
C    4.2146212    0.4145491   -8.9108305  
C    2.7791473    0.7224149   -9.0571964  
N    2.1349317   -0.0016716   -8.0806843  
C    2.2641305    1.5619226   -9.9908387  
C    3.1850655    2.2050185  -10.9132510  
O    2.8192662    2.9774989  -11.7894728  
C    4.7095327    1.8933317  -10.7766635  
O    5.4944177    2.4286224  -11.5478172  
C    5.1443864    0.9714097   -9.7303298  
H    5.2231321   -0.9504777   -7.4189194  
H    1.2078653    1.7742071  -10.0811091  
H    6.2016112    0.7610526   -9.6422951  
H    2.7336851   -1.3556565   -6.5367263  
C   -0.2963294   -0.0005341   -4.3948471  
C    0.7278651   -0.0010062   -5.2865309  
C    0.1384644   -0.0010223   -6.6046515  
C   -1.3235472   -0.0004880   -6.4063792  
N   -1.5211839   -0.0006101   -5.0448251  
C   -2.2357329    0.0000549   -7.4111788  
C   -1.7448089   -0.0001089   -8.7792175  
O   -2.4864203    0.0002821   -9.7530304  
C   -0.2003571   -0.0009250   -9.0126110  
O    0.2247524   -0.0013763  -10.1600176  
C    0.6832434   -0.0011819   -7.8493819  
H    1.7765638   -0.0014911   -5.0481103  
H   -3.3039063    0.0005715   -7.2440972  
H   -2.4171880    0.0012260   -4.5929174  
C    3.1301143   -0.0010313   -1.7028257  
C    2.5367765   -0.0002767   -0.4864669  
C    1.1089900    0.0001027   -0.7656184  
C    1.0177864   -0.0004150   -2.2415133  
N    2.1993571   -0.0011613   -2.7963824  
C   -0.2459220   -0.0002879   -2.9257116  
C   -1.3675327   -0.0000606   -2.1698519  
O   -2.6129319    0.0000866   -2.6748482  
C   -1.3083588    0.0000910   -0.6783229  
O   -2.3693264    0.0004206   -0.0541685  
C    0.0000000    0.0000000    0.0000000  
H    3.0096014   -0.0001008    0.4807517  
H   -3.1967445    0.0002093   -1.8949025  
H    4.1849272   -0.0015113   -1.9271980  
C    0.8175213    0.6860729    2.3021913  
C    0.0000000    0.0000000    1.4700000  
C   -0.8887526   -0.7456559    2.3478473  
C   -0.4549825   -0.3816753    3.7138435  
N    0.5448156    0.4573574    3.6934124  
C   -1.0945674   -0.9182058    4.8835240  
C   -2.1210866   -1.7789155    4.6970523  
O   -2.8083856   -2.3554314    5.6976972  
C   -2.5824069   -2.1655116    3.3310774  
O   -3.5227682   -2.9541547    3.2362962  
C   -1.9100805   -1.6015804    2.1470656  
H   -0.7567140   -0.6349833    5.8697035  
H   -3.4728268   -2.9124471    5.2533954  
H   -2.2742832   -1.9066565    1.1752040  
H    1.6189533    1.3585343    2.0405121  
