58

C    3.1148409   -0.7140063   -6.4878406  
C    4.4496673   -0.4968899   -6.6110258  
C    4.6262510    0.4308810   -7.7032238  
C    3.2751945    0.7387079   -8.2098587  
N    2.4039879    0.0127183   -7.4308672  
C    3.0144060    1.5797955   -9.2424601  
C    4.1394799    2.2247549   -9.8987926  
O    4.0084071    2.9987429  -10.8379749  
C    5.5790872    1.9131434   -9.3789527  
O    6.5341453    2.4499955   -9.9238515  
C    5.7337101    0.9894209   -8.2579353  
H    5.2224163   -0.9366313   -6.0059645  
H    2.0158278    1.7920197   -9.5984270  
H    6.7337840    0.7791278   -7.9038826  
H    2.5906457   -1.3439328   -5.7876251  
C   -1.0641738    0.0073911   -4.6315339  
C    0.2051250    0.0079405   -5.1010654  
C    0.0692344    0.0101845   -6.5495227  
C   -1.3902928    0.0106356   -6.7869340  
N   -2.0598284    0.0090848   -5.6663498  
C   -1.9455301    0.0127602   -8.1123750  
C   -1.0819568    0.0147505   -9.1533229  
O   -1.4606988    0.0168498  -10.4427381  
C    0.3963100    0.0147277   -8.9462282  
O    1.1228030    0.0164809   -9.9399210  
C    0.9412638    0.0124825   -7.5769419  
H    1.1205720    0.0070362   -4.5344688  
H   -3.0161069    0.0128371   -8.2565139  
H   -0.6265995    0.0179429  -10.9461568  
C    1.1319245    0.0015656   -0.8009271  
C    0.7969914    0.0034943   -2.1169404  
C   -0.6453340    0.0035712   -2.1842672  
C   -1.1266833    0.0015434   -0.7896027  
N    0.0000000    0.0000000    0.0000000  
C   -2.4346131    0.0013965   -0.4276296  
C   -3.4350110    0.0031409   -1.4820182  
O   -4.6384610    0.0030975   -1.2583916  
C   -2.9478961    0.0050507   -2.9661073  
O   -3.7809383    0.0062220   -3.8623773  
C   -1.5113824    0.0053091   -3.2312124  
H    1.4821237    0.0045409   -2.9459193  
H   -2.7664564    0.0000233    0.6013449  
H    2.1104315    0.0009392   -0.3488061  
C    0.0000000    0.0000000    1.4700000  
C    1.0662921    0.0000102    2.3034270  
C    0.4961870   -0.0000064    3.6418889  
C   -0.9663858    0.0000850    3.4240247  
N   -1.2632773    0.0000084    2.1528658  
C   -1.8985362    0.0000517    4.5177257  
C   -1.3925775   -0.0004564    5.7720543  
O   -2.1456383   -0.0005410    6.8851312  
C    0.0786232   -0.0009323    6.0245000  
O    0.4683759   -0.0012588    7.1921102  
C    1.0143166   -0.0008442    4.8859032  
H    2.1107198   -0.0000632    2.0421868  
H   -2.9622183    0.0003270    4.3293377  
H   -1.5042274   -0.0009692    7.6184419  
H    2.0724152   -0.0013148    5.1109744  
