58

C   -1.0965411   -0.0047682   -0.8010304  
C    0.0000000    0.0000000    0.0000000  
C    1.1546467    0.0047310   -0.8669507  
C    0.6371974    0.0023400   -2.2486280  
N   -0.7342774   -0.0038359   -2.1395010  
C    1.4147618    0.0058416   -3.3608711  
C    2.8575794    0.0121770   -3.1854457  
O    3.6427446    0.0156386   -4.1244900  
C    3.4275535    0.0145528   -1.7311659  
O    4.6406411    0.0195718   -1.5710053  
C    2.4891633    0.0106250   -0.6116745  
H    1.0150363    0.0041267   -4.3654243  
H    2.8918856    0.0125091    0.3920872  
H   -2.1388077   -0.0091019   -0.5261643  
C   -1.6707544   -0.0058239   -3.2725972  
C   -3.0236022   -0.0105688   -3.2357226  
C   -3.4368403   -0.0104559   -4.6306178  
C   -2.1706870   -0.0050937   -5.3944315  
N   -1.1320373   -0.0024410   -4.6037422  
C   -2.1489311   -0.0034348   -6.8313065  
C   -3.3380071   -0.0073608   -7.4758348  
O   -3.4666386   -0.0063886   -8.8135546  
C   -4.6328403   -0.0131836   -6.7331811  
O   -5.6771004   -0.0164153   -7.3848963  
C   -4.6287263   -0.0147391   -5.2594430  
H   -3.6622287   -0.0138423   -2.3689921  
H   -1.2090241    0.0007142   -7.3637227  
H   -4.4282033   -0.0099908   -8.9701840  
C   -6.2940457    0.6628163   -3.4687024  
C   -5.9318556   -0.0206841   -4.5792090  
C   -7.1183064   -0.7707526   -4.9616109  
C   -8.1299834   -0.4118756   -3.9446046  
N   -7.6526085    0.4282098   -3.0669038  
C   -9.4606829   -0.9537571   -3.9708674  
C   -9.7669203   -1.8147086   -4.9680218  
O  -10.9696903   -2.3959381   -5.1148429  
C   -8.7679191   -2.1962278   -6.0094636  
O   -9.1158600   -2.9854000   -6.8877373  
C   -7.4094754   -1.6268559   -5.9607802  
H  -10.1797175   -0.6741952   -3.2147298  
H  -10.8810420   -2.9518017   -5.9100220  
H   -6.7152377   -1.9283549   -6.7336726  
H   -5.6939286    1.3371136   -2.8786545  
C    0.8400945    0.7047457    2.2710304  
C    0.0000000    0.0000000    1.4700000  
C   -0.8844236   -0.7423113    2.3369512  
C   -0.4878984   -0.4098547    3.7186280  
N    0.5629682    0.4714286    3.6095011  
C   -1.0836927   -0.9095027    4.8308716  
C   -2.1891196   -1.8367527    4.6554461  
O   -2.7906899   -2.3413415    5.5944904  
C   -2.6257283   -2.2031529    3.2011665  
O   -3.5549479   -2.9829990    3.0410059  
C   -1.9068976   -1.5999348    2.0816745  
H   -0.7774656   -0.6525820    5.8354244  
H   -2.2155208   -1.8586617    1.0779135  
H    1.6384792    1.3747609    1.9961646  
H    1.0518368    0.8833920    4.3830260  
