62

C   -3.3040484    0.0228424   -1.5420434  
C   -2.5844716    0.0184377   -0.3695858  
C   -1.2039716    0.0083672   -0.7283592  
C   -1.1422143    0.0073335   -2.1454376  
N   -2.4348231    0.0143087   -2.6077468  
C    0.0655103   -0.0013352   -2.8497921  
C    1.2321455   -0.0087950   -2.1101400  
O    2.4392213   -0.0170653   -2.7472521  
C    1.1910917   -0.0082763   -0.6955266  
O    2.4370954   -0.0167037   -0.1032865  
C    0.0000000    0.0000000    0.0000000  
H   -3.0030804    0.0209348    0.6222580  
H   -2.7053480    0.0259096   -3.5745264  
H    0.1193420   -0.0023140   -3.9297475  
H    3.1132241   -0.0215695   -2.0551786  
H    2.3199756   -0.0157147    0.8516408  
C   -5.7394854    0.0404727   -0.8296821  
C   -4.7576105    0.0325481   -1.7610466  
C   -5.4528177    0.0358522   -3.0390044  
C   -6.8878936    0.0461267   -2.6825828  
N   -7.0621272    0.0489567   -1.3888968  
C   -7.9201295    0.0521145   -3.6823526  
C   -7.5361775    0.0484128   -4.9792341  
O   -8.3919938    0.0531863   -6.0153790  
C   -6.0958101    0.0384441   -5.3709027  
O   -5.8192575    0.0354211   -6.5703732  
C   -5.0557638    0.0324004   -4.3267801  
H   -7.8234955    0.0487311   -6.8065441  
H   -4.0239920    0.0253361   -4.6517832  
H   -5.6365821    0.0410432    0.2438089  
C   -9.3365037    0.0620203   -3.2890502  
C   -9.9088901    0.0682043   -2.0381295  
C  -11.3226669    0.0775697   -2.2271990  
C  -11.5554786    0.0763593   -3.6263854  
N  -10.3283231    0.0687837   -4.2417293  
C  -12.8395756    0.0837945   -4.1794043  
C  -13.9081164    0.0923053   -3.3040043  
O  -15.1834317    0.0994483   -3.7903526  
C  -13.6961545    0.0940248   -1.9047596  
O  -14.8613223    0.1032624   -1.1660830  
C  -12.4296364    0.0869664   -1.3584918  
H   -9.3733150    0.0673156   -1.1042386  
H  -10.1767926    0.0556832   -5.2341241  
H  -13.0237173    0.0830624   -5.2449055  
H  -15.7687195    0.1049778   -3.0218001  
H  -14.6294880    0.1037932   -0.2323506  
H  -12.2984731    0.0886778   -0.2827260  
C    0.8681109    0.7263879    2.2709268  
C    0.6127770    0.5096195    3.5869401  
C   -0.4920590   -0.4175482    3.6542670  
C   -0.8620974   -0.7254003    2.2596025  
N    0.0000000    0.0000000    1.4700000  
C   -1.8641242   -1.5660088    1.8976294  
C   -2.6293522   -2.2103885    2.9520183  
O   -3.5512764   -2.9839180    2.7283916  
C   -2.2549728   -1.8987399    4.4361073  
O   -2.8923672   -2.4351063    5.3323774  
C   -1.1543735   -0.9755647    4.7012123  
H    1.1382914    0.9492124    4.4159191  
H   -2.1192137   -1.7782617    0.8686553  
H   -0.9013378   -0.7652422    5.7314848  
H    1.6172880    1.3558399    1.8188057  
