58

C    5.9779326   -2.0928591   -4.4468277  
C    5.0400352   -1.6304885   -3.5804345  
C    4.1859902   -0.7341816   -4.3234529  
C    4.7069269   -0.7121368   -5.7036447  
N    5.7934745   -1.5560772   -5.7119679  
C    4.1728102    0.0176376   -6.7155010  
C    3.0072073    0.8361659   -6.4258163  
O    2.4535603    1.5290922   -7.2693979  
C    2.4388219    0.8282647   -4.9709350  
O    1.4580061    1.5136693   -4.7150421  
C    3.1006054    0.0006263   -3.9654951  
H    4.9561722   -1.8877887   -2.5395800  
H    4.5702547    0.0195460   -7.7209580  
H    6.7884831   -2.7804147   -4.2674805  
C    7.1400737   -3.0903071   -7.2190095  
C    7.8724707   -3.0267685   -8.3607768  
C    7.8397290   -1.6536414   -8.8060693  
C    7.0223842   -0.9171295   -7.8230689  
N    6.6282253   -1.8451256   -6.8869325  
C    6.7522965    0.4111883   -7.8888613  
C    7.3032017    1.1657740   -9.0022533  
O    7.1169059    2.3664834   -9.1502090  
C    8.1715131    0.4061135  -10.0552270  
O    8.6404009    1.0308182  -10.9971134  
C    8.3930189   -1.0267296   -9.8770452  
H    8.3778170   -3.8481132   -8.8368362  
H    6.1505133    0.9322166   -7.1572222  
H    8.9955308   -1.5452775  -10.6104007  
H    6.9310113   -3.9420591   -6.5923516  
C    3.2798083    0.0005857   -1.4499652  
C    2.5571142    0.0005565   -2.5996556  
C    1.1637432    0.0001548   -2.2210361  
C    1.1336964   -0.0000200   -0.7459473  
N    2.4483512   -0.0001428   -0.3402723  
C    0.0000000    0.0000000    0.0000000  
C   -1.2757368   -0.0000186   -0.6964415  
O   -2.3524598   -0.0000639   -0.1142311  
C   -1.2676497   -0.0000872   -2.2584083  
O   -2.3355766   -0.0004101   -2.8557295  
C    0.0181558    0.0001758   -2.9516296  
H    0.0150788    0.0003319   -4.0331631  
H    4.3498547    0.0008612   -1.3200026  
H    2.7563626    0.0012823    0.6148059  
C    2.4951002    2.0940188    2.9809380  
C    1.9440701    1.6314916    1.8291961  
C    0.8759964    0.7350050    2.2038498  
C    0.8497377    0.7130254    3.6788474  
N    1.8560616    1.5571714    4.0882609  
C   -0.0205033   -0.0168748    4.4215661  
C   -0.9962600   -0.8356168    3.7214979  
O   -1.8224391   -1.5286685    4.3006425  
C   -0.9864710   -0.8277881    2.1595606  
O   -1.8030528   -1.5133726    1.5592035  
C    0.0000000    0.0000000    1.4700000  
H    2.2509283    1.8888011    0.8310761  
H   -0.0229599   -0.0187323    5.5027230  
H    3.3143982    2.7817323    3.1139444  
H    2.0889452    1.7545833    5.0442112  
