58

C    6.8074685   -0.0007623    3.2193817  
C    7.4830558   -0.0026655    2.0413944  
C    8.8906027   -0.0047135    2.3633327  
C    8.9803041   -0.0038705    3.8359977  
N    7.6831407   -0.0010611    4.2945268  
C   10.1432493   -0.0056684    4.5354689  
C   11.3897625   -0.0084056    3.7879860  
O   12.4891570   -0.0101110    4.3261587  
C   11.3184897   -0.0090896    2.2276246  
O   12.3613740   -0.0110807    1.5875878  
C   10.0056923   -0.0072611    1.5869909  
H   10.1869902   -0.0051369    5.6157446  
H    9.9650096   -0.0079546    0.5062185  
H    5.7435577    0.0010506    3.3925285  
H    7.4140192   -0.0014340    5.2612853  
C    6.8847521   -0.0023785    0.6986611  
C    5.5715633   -0.0012904    0.3713800  
C    5.5475443   -0.0015350   -1.0832412  
C    6.9721656   -0.0027414   -1.4795197  
N    7.7607267   -0.0033210   -0.4392506  
C    7.3784669   -0.0033612   -2.8579262  
C    6.4057885   -0.0031903   -3.7977300  
O    6.6406190   -0.0037039   -5.1209443  
C    4.9592110   -0.0023543   -3.4295275  
O    4.1279730   -0.0021183   -4.3374175  
C    4.5679461   -0.0016854   -2.0086701  
H    4.7238856   -0.0005185    1.0350950  
H    8.4267357   -0.0040357   -3.1187771  
H    5.7562743   -0.0034384   -5.5297073  
C    3.1301149   -0.0010311   -1.7028252  
C    2.5367768   -0.0002767   -0.4864665  
C    1.1089904    0.0001028   -0.7656183  
C    1.0177872   -0.0004148   -2.2415132  
N    2.1993578   -0.0011611   -2.7963820  
C   -0.2459209   -0.0002877   -2.9257118  
C   -1.3675319   -0.0000605   -2.1698524  
O   -2.6129313    0.0000867   -2.6748490  
C   -1.3083584    0.0000910   -0.6783232  
O   -2.3693261    0.0004206   -0.0541692  
C    0.0000000    0.0000000    0.0000000  
H    3.0096017   -0.0001007    0.4807525  
H   -0.2829630   -0.0004687   -4.0053125  
H   -3.1967441    0.0002094   -1.8949034  
C    2.4951002    2.0940188    2.9809380  
C    1.9440701    1.6314916    1.8291961  
C    0.8759964    0.7350050    2.2038498  
C    0.8497377    0.7130254    3.6788474  
N    1.8560616    1.5571714    4.0882609  
C   -0.0205033   -0.0168748    4.4215661  
C   -0.9962600   -0.8356168    3.7214979  
O   -1.8224391   -1.5286685    4.3006425  
C   -0.9864710   -0.8277881    2.1595606  
O   -1.8030528   -1.5133726    1.5592035  
C    0.0000000    0.0000000    1.4700000  
H    2.2509283    1.8888011    0.8310761  
H   -0.0229599   -0.0187323    5.5027230  
H    3.3143982    2.7817323    3.1139444  
H    2.0889452    1.7545833    5.0442112  
