62

C    3.3041274    0.0001178   -1.5420424  
C    2.5845370   -0.0004780   -0.3695848  
C    1.2040008   -0.0000007   -0.7283588  
C    1.1422381    0.0006039   -2.1454372  
N    2.4348643    0.0026111   -2.6077460  
C   -0.0655178    0.0008800   -2.8497916  
C   -1.2321770    0.0002327   -2.1101400  
O   -2.4392813    0.0001149   -2.7472523  
C   -1.1911197   -0.0000007   -0.6955269  
O   -2.4371527   -0.0002319   -0.1032865  
C    0.0000000    0.0000000    0.0000000  
H    3.0031532   -0.0000660    0.6222587  
H    2.7054630   -0.0071097   -3.5745257  
H   -0.1193547    0.0014846   -3.9297470  
H   -3.1132988   -0.0000647   -2.0551792  
H   -2.3200292   -0.0004070    0.8516405  
C    6.7748105   -0.0036707    1.2764685  
C    5.5082320   -0.0035545    0.7395837  
C    5.6573262   -0.0010105   -0.6789945  
C    7.0493887    0.0000631   -0.9511860  
N    7.6991160    0.0003496    0.2581408  
C    7.5659491    0.0022523   -2.2503970  
C    6.6607409    0.0030713   -3.2938410  
O    7.1109062    0.0048476   -4.5823914  
C    5.2680310    0.0023992   -3.0424924  
O    4.4967640    0.0037872   -4.1863844  
C    4.7577219    0.0005130   -1.7610452  
H    4.5898232   -0.0040067    1.3012946  
H    8.6954213   -0.0094974    0.3816732  
H    6.3261402    0.0054440   -5.1457802  
H    3.5699438    0.0031881   -3.9283015  
H    7.0920029   -0.0048575    2.3052281  
C   10.9832903   -2.0921626   -0.3979296  
C    9.7449426   -1.6299915   -0.7093264  
C    9.9000949   -0.7318518   -1.8291961  
C   11.3406671   -0.7085143   -2.1469971  
N   11.9417924   -1.5535327   -1.2428500  
C   11.8958779    0.0231258   -3.1460708  
C   11.0159240    0.8424413   -3.9627333  
O   11.4195483    1.5370316   -4.8862761  
C    9.4868633    0.8331969   -3.6438396  
O    8.7362506    1.5192481   -4.3244096  
C    9.0068370    0.0035733   -2.5415003  
H    8.8275205   -1.8885762   -0.2112451  
H   12.9551363    0.0259579   -3.3625772  
H   11.2763460   -2.7807664    0.3778495  
H   12.9250548   -1.7503726   -1.2041588  
C    2.4951002    2.0940188    2.9809380  
C    1.9440701    1.6314916    1.8291961  
C    0.8759964    0.7350050    2.2038498  
C    0.8497377    0.7130254    3.6788474  
N    1.8560616    1.5571714    4.0882609  
C   -0.0205033   -0.0168748    4.4215661  
C   -0.9962600   -0.8356168    3.7214979  
O   -1.8224391   -1.5286685    4.3006425  
C   -0.9864710   -0.8277881    2.1595606  
O   -1.8030528   -1.5133726    1.5592035  
C    0.0000000    0.0000000    1.4700000  
H    2.2509283    1.8888011    0.8310761  
H   -0.0229599   -0.0187323    5.5027230  
H    3.3143982    2.7817323    3.1139444  
H    2.0889452    1.7545833    5.0442112  
