60

C    3.4548275   -0.7035792   -2.8642451  
C    2.5562222   -0.0001542   -3.6002998  
C    3.3073795    0.7404848   -4.5862270  
C    4.7274422    0.4084863   -4.3626449  
N    4.7488625   -0.4709617   -3.3048158  
C    5.7576439    0.9069207   -5.0919950  
C    5.4471117    1.8322880   -6.1689352  
O    6.3047248    2.3356815   -6.8826537  
C    3.9500528    2.1981726   -6.4233946  
O    3.6764178    2.9764380   -7.3271020  
C    2.9278449    1.5963822   -5.5708748  
H    6.7923193    0.6503639   -4.9116172  
H    1.8936598    1.8547409   -5.7537306  
H    3.2806111   -1.3721682   -2.0368841  
H    5.5768200   -0.8822071   -2.9144164  
C    0.0000000    0.0000000    0.0000000  
C    1.0541691   -0.0001719   -0.8560389  
C    0.5103143   -0.0000448   -2.1935953  
C   -0.9576364    0.0002464   -2.0455731  
N   -1.2018458   -0.0001389   -0.6915972  
C   -1.8348303    0.0008322   -3.0810611  
C   -1.2972837    0.0009745   -4.4314603  
O   -2.0050658    0.0014276   -5.4301322  
C    0.2542633    0.0004194   -4.6117570  
O    0.7184681    0.0002269   -5.7439118  
C    1.0974560    0.0000881   -3.4189126  
H    2.0940754   -0.0005481   -0.5817976  
H   -2.1128195    0.0014913   -0.2706792  
C   -3.2941065    0.0012879   -2.9038247  
C   -3.9928918    0.0012415   -1.7448258  
C   -5.3903265    0.0018082   -2.1493949  
C   -5.3503921    0.0022639   -3.6275656  
N   -4.1243028    0.0018810   -4.0755538  
C   -6.5485032    0.0028449   -4.4210498  
C   -7.7326787    0.0025762   -3.7675487  
O   -8.9284316    0.0030589   -4.3809133  
C   -7.8059014    0.0017441   -2.2766436  
O   -8.9180018    0.0016644   -1.7489567  
C   -6.5627955    0.0012029   -1.4850558  
H   -3.6076319    0.0007787   -0.7395147  
H   -6.4897365    0.0033759   -5.4996854  
H   -9.5790587    0.0026686   -3.6557672  
H   -6.6586509    0.0004897   -0.4075397  
C    0.0000000    0.0000000    1.4700000  
C    1.0521667    0.0011902    2.3562342  
C    0.4917218    0.0011957    3.6679131  
C   -0.9187428   -0.0003148    3.5178682  
N   -1.1833171    0.0009411    2.1707914  
C   -1.7951701   -0.0010350    4.6072090  
C   -1.2375837   -0.0005224    5.8710424  
O   -2.0474215   -0.0015360    6.9697579  
C    0.1673580    0.0013566    6.0411963  
O    0.5673524    0.0020687    7.3615553  
C    1.0325770    0.0023412    4.9669890  
H    2.0953057    0.0030649    2.0900562  
H   -2.0989778   -0.0102372    1.7591824  
H   -2.8710934   -0.0020419    4.4995513  
H   -1.4634884   -0.0006497    7.7393593  
H    1.5290710    0.0033153    7.3880045  
H    2.1042148    0.0039609    5.1284455  
