58

C   -1.0965411   -0.0047682   -0.8010304  
C    0.0000000    0.0000000    0.0000000  
C    1.1546467    0.0047310   -0.8669507  
C    0.6371974    0.0023400   -2.2486280  
N   -0.7342774   -0.0038359   -2.1395010  
C    1.4147618    0.0058416   -3.3608711  
C    2.8575794    0.0121770   -3.1854457  
O    3.6427446    0.0156386   -4.1244900  
C    3.4275535    0.0145528   -1.7311659  
O    4.6406411    0.0195718   -1.5710053  
C    2.4891633    0.0106250   -0.6116745  
H    1.0150363    0.0041267   -4.3654243  
H    2.8918856    0.0125091    0.3920872  
H   -2.1388077   -0.0091019   -0.5261643  
C   -1.6707544   -0.0058239   -3.2725972  
C   -3.0236022   -0.0105688   -3.2357226  
C   -3.4368403   -0.0104559   -4.6306178  
C   -2.1706870   -0.0050937   -5.3944315  
N   -1.1320373   -0.0024410   -4.6037422  
C   -2.1489311   -0.0034348   -6.8313065  
C   -3.3380071   -0.0073608   -7.4758348  
O   -3.4666386   -0.0063886   -8.8135546  
C   -4.6328403   -0.0131836   -6.7331811  
O   -5.6771004   -0.0164153   -7.3848963  
C   -4.6287263   -0.0147391   -5.2594430  
H   -3.6622287   -0.0138423   -2.3689921  
H   -1.2090241    0.0007142   -7.3637227  
H   -4.4282033   -0.0099908   -8.9701840  
C   -6.1251374    2.0696447   -1.6660422  
C   -5.3572567    1.6112409   -2.6879525  
C   -6.1800061    0.7122029   -3.4623221  
C   -7.4996281    0.6842325   -2.8030759  
N   -7.4003040    1.5276990   -1.7206764  
C   -8.5577875   -0.0495158   -3.2315818  
C   -8.3854095   -0.8663732   -4.4213568  
O   -9.2783225   -1.5625686   -4.8864580  
C   -6.9962811   -0.8522181   -5.1354486  
O   -6.8391753   -1.5361667   -6.1378420  
C   -5.9318556   -0.0206841   -4.5792090  
H   -4.3314825    1.8728848   -2.8775408  
H   -9.5173436   -0.0557481   -2.7334618  
H   -5.8666960    2.7576153   -0.8775026  
H   -8.1407686    1.7214709   -1.0716680  
C    2.5128556    2.1077716    2.9199648  
C    1.9592212    1.6432552    4.0696553  
C    0.8915788    0.7479214    3.6910360  
C    0.8684491    0.7287414    2.2159470  
N    1.8754542    1.5738793    1.8102719  
C    0.0000000    0.0000000    1.4700000  
C   -0.9772830   -0.8200135    2.1664417  
O   -1.8021297   -1.5120829    1.5842315  
C   -0.9711318   -0.8147624    3.7284083  
O   -1.7894187   -1.5009653    4.3257297  
C    0.0140216    0.0115358    4.4216297  
H    2.2638494    1.8988021    5.0689105  
H    0.0117648    0.0094386    5.5031631  
H    3.3327358    2.7953732    2.7900019  
H    2.1123206    1.7707734    0.8551938  
