58

C    1.9999919   -2.1070893   -5.1447766  
C    1.9105667   -1.6426498   -6.4177158  
C    0.7784254   -0.7475275   -6.4606980  
C    0.2115581   -0.7283877   -5.0986827  
N    0.9973787   -1.5733448   -4.3494008  
C   -0.8712826    0.0001710   -4.7267111  
C   -1.5219798    0.8200163   -5.7351666  
O   -2.5037636    1.5119150   -5.4992073  
C   -0.9387700    0.8148042   -7.1841813  
O   -1.4783591    1.5008665   -8.0417493  
C    0.2330299   -0.0112904   -7.4640108  
H    2.5631034   -1.8981146   -7.2335263  
H    0.6307989   -0.0091673   -8.4697430  
H    0.8643844   -1.7702171   -3.3744131  
C    4.0156839   -3.6441853   -5.2574124  
C    4.7343853   -4.4590490   -4.4428335  
C    4.1256718   -4.3904413   -3.1353178  
C    2.9852316   -3.4621781   -3.2557934  
N    2.9735223   -3.0445984   -4.5666635  
C    2.1532112   -3.1300072   -2.2364265  
C    2.3973565   -3.7263832   -0.9336356  
O    1.7042176   -3.4906084    0.0473175  
C    3.5997010   -4.7120335   -0.7830847  
O    3.8152711   -5.2200786    0.3090151  
C    4.4257407   -4.9924609   -1.9547806  
H    5.5930744   -5.0415564   -4.7255914  
H    1.3222789   -2.4470375   -2.3460299  
H    5.2561642   -5.6761626   -1.8422045  
H    4.1598176   -3.4310751   -6.3041693  
C    1.0965514    0.0001359   -0.8010305  
C    0.0000000    0.0000000    0.0000000  
C   -1.1546563    0.0001470   -0.8669513  
C   -0.6372014    0.0003519   -2.2486282  
N    0.7342871    0.0007337   -2.1395014  
C   -1.4147739    0.0001352   -3.3608717  
C   -2.8576049   -0.0001048   -3.1854462  
O   -3.6427779   -0.0002494   -4.1244907  
C   -3.4275840   -0.0000725   -1.7311666  
O   -4.6406831    0.0000333   -1.5710060  
C   -2.4891867   -0.0001091   -0.6116744  
H   -2.8919122   -0.0002918    0.3920866  
H    2.1388272    0.0000663   -0.5261648  
H    1.3735872   -0.0006099   -2.9130262  
C    0.8681109    0.7263879    2.2709268  
C    0.6127770    0.5096195    3.5869401  
C   -0.4920590   -0.4175482    3.6542670  
C   -0.8620974   -0.7254003    2.2596025  
N    0.0000000    0.0000000    1.4700000  
C   -1.8641242   -1.5660088    1.8976294  
C   -2.6293522   -2.2103885    2.9520183  
O   -3.5512764   -2.9839180    2.7283916  
C   -2.2549728   -1.8987399    4.4361073  
O   -2.8923672   -2.4351063    5.3323774  
C   -1.1543735   -0.9755647    4.7012123  
H    1.1382914    0.9492124    4.4159191  
H   -2.1192137   -1.7782617    0.8686553  
H   -0.9013378   -0.7652422    5.7314848  
H    1.6172880    1.3558399    1.8188057  
