58

C   -3.8542020    0.7269243   -8.0071063  
C   -5.0615951    0.5104493   -8.5896999  
C   -4.8449442   -0.4161192   -9.6756870  
C   -3.4020200   -0.7239394   -9.6780237  
N   -2.8583697    0.0009056   -8.6426812  
C   -2.7964798   -1.5640549  -10.5550824  
C   -3.6208663   -2.2078995  -11.5642333  
O   -3.1695254   -2.9809624  -12.3990797  
C   -5.1513661   -1.8962744  -11.5805006  
O   -5.8554597   -2.4321929  -12.4256651  
C   -5.6883778   -0.9736568  -10.5833821  
H   -5.9971837    0.9498596   -8.2927060  
H   -1.7364699   -1.7762939  -10.5394677  
H   -6.7491187   -0.7633471  -10.6013143  
H   -3.6080799    1.3559216   -7.1670613  
C   -0.8712823    0.0001712   -4.7267111  
C    0.4246872    0.0002195   -5.1323438  
C    0.4138924    0.0002758   -6.5761999  
C   -1.0047702    0.0002857   -6.9813996  
N   -1.7322698   -0.0001786   -5.8136522  
C   -1.4369659    0.0007305   -8.2678326  
C   -0.4382364    0.0010073   -9.3238038  
O   -0.7266369    0.0013504  -10.5133939  
C    1.0700316    0.0007501   -8.9176841  
O    1.9199265    0.0006730   -9.7979910  
C    1.4124573    0.0005497   -7.4976147  
H    1.2895156    0.0000338   -4.4930590  
H    2.4590211    0.0005778   -7.2248003  
H   -2.7343169    0.0012690   -5.7593665  
C    1.0965515    0.0001358   -0.8010304  
C    0.0000000    0.0000000    0.0000000  
C   -1.1546562    0.0001470   -0.8669514  
C   -0.6372012    0.0003520   -2.2486282  
N    0.7342873    0.0007338   -2.1395014  
C   -1.4147737    0.0001354   -3.3608717  
C   -2.8576047   -0.0001047   -3.1854463  
O   -3.6427778   -0.0002491   -4.1244908  
C   -3.4275837   -0.0000725   -1.7311667  
O   -4.6406828    0.0000333   -1.5710061  
C   -2.4891866   -0.0001090   -0.6116745  
H   -2.8919121   -0.0002919    0.3920865  
H    2.1388272    0.0000662   -0.5261647  
H    1.3735873   -0.0006098   -2.9130261  
C    0.8681109    0.7263879    2.2709268  
C    0.6127770    0.5096195    3.5869401  
C   -0.4920590   -0.4175482    3.6542670  
C   -0.8620974   -0.7254003    2.2596025  
N    0.0000000    0.0000000    1.4700000  
C   -1.8641242   -1.5660088    1.8976294  
C   -2.6293522   -2.2103885    2.9520183  
O   -3.5512764   -2.9839180    2.7283916  
C   -2.2549728   -1.8987399    4.4361073  
O   -2.8923672   -2.4351063    5.3323774  
C   -1.1543735   -0.9755647    4.7012123  
H    1.1382914    0.9492124    4.4159191  
H   -2.1192137   -1.7782617    0.8686553  
H   -0.9013378   -0.7652422    5.7314848  
H    1.6172880    1.3558399    1.8188057  
