62

C    2.3136490   -2.1180454   -5.9171367  
C    1.6624058   -1.6181603   -7.0209775  
C    0.6419643   -0.7441454   -6.5420236  
C    0.7194931   -0.7504920   -5.1257342  
N    1.7437763   -1.5963719   -4.7793976  
C   -0.1387076    0.0017013   -4.3179688  
C   -1.0923522    0.7746125   -4.9514892  
O   -1.9557343    1.5288496   -4.2107393  
C   -1.1856781    0.7938835   -6.3634862  
O   -2.1870605    1.6126752   -6.8432323  
C   -0.3395494    0.0518690   -7.1609868  
H    1.8935983   -1.8552478   -8.0453475  
H    2.0414326   -1.7936228   -3.8410620  
H   -2.5301596    1.9837411   -4.8403221  
H   -2.1819304    1.5683225   -7.8042792  
H   -0.4351235    0.0866792   -8.2399362  
C    3.3041274    0.0001172   -1.5420427  
C    2.5845373   -0.0004783   -0.3695849  
C    1.2040007   -0.0000010   -0.7283594  
C    1.1422375    0.0006035   -2.1454372  
N    2.4348642    0.0026105   -2.6077466  
C   -0.0655178    0.0008795   -2.8497920  
C   -1.2321766    0.0002324   -2.1101404  
O   -2.4392813    0.0001144   -2.7472526  
C   -1.1911206   -0.0000009   -0.6955271  
O   -2.4371529   -0.0002318   -0.1032865  
C    0.0000000    0.0000000    0.0000000  
H    3.0031533   -0.0000662    0.6222585  
H    2.7054633   -0.0071104   -3.5745263  
H   -3.1132989   -0.0000648   -2.0551791  
H   -2.3200283   -0.0004072    0.8516406  
H    4.3686628    0.0004068   -1.7024291  
C    4.6402591   -4.1916190   -9.0107617  
C    5.5016252   -4.8815471   -8.2194829  
C    5.1737801   -4.5517131   -6.8525286  
C    4.0426783   -3.6063160   -6.9127257  
N    3.7676927   -3.4292237   -8.2491054  
C    3.4401446   -3.0581696   -5.8272795  
C    3.9391026   -3.4235512   -4.5119572  
O    3.4636384   -2.9836441   -3.4733446  
C    5.1363390   -4.4229465   -4.4245491  
O    5.5651951   -4.7377364   -3.3226187  
C    5.7024295   -4.9471290   -5.6649627  
H    6.2781772   -5.5455865   -8.5550901  
H    6.5310501   -5.6387396   -5.5957768  
H    4.5696389   -4.1758205  -10.0862397  
H    3.0432699   -2.8388214   -8.6147333  
C    0.0000000    0.0000000    1.4700000  
C    1.0662921    0.0000102    2.3034270  
C    0.4961870   -0.0000064    3.6418889  
C   -0.9663858    0.0000850    3.4240247  
N   -1.2632773    0.0000084    2.1528658  
C   -1.8985362    0.0000517    4.5177257  
C   -1.3925775   -0.0004564    5.7720543  
O   -2.1456383   -0.0005410    6.8851312  
C    0.0786232   -0.0009323    6.0245000  
O    0.4683759   -0.0012588    7.1921102  
C    1.0143166   -0.0008442    4.8859032  
H    2.1107198   -0.0000632    2.0421868  
H   -2.9622183    0.0003270    4.3293377  
H   -1.5042274   -0.0009692    7.6184419  
H    2.0724152   -0.0013148    5.1109744  
