58

C    3.9949859    0.7277536   -7.7939951  
C    3.9241168    0.5117721   -9.1328022  
C    4.9800079   -0.4149260   -9.4662082  
C    5.6768179   -0.7233600   -8.2028344  
N    5.0313853    0.0012894   -7.2275447  
C    6.7368885   -1.5637631   -8.0947694  
C    7.2241989   -2.2072921   -9.3034609  
O    8.1730333   -2.9805757   -9.3101890  
C    6.5015224   -1.8950163  -10.6525455  
O    6.9030622   -2.4306647  -11.6768041  
C    5.3692477   -0.9721361  -10.6427065  
H    3.2133994    0.9515905   -9.8095991  
H    7.2335980   -1.7764525   -7.1583118  
H    4.8742177   -0.7613758  -11.5809220  
H    3.3774200    1.3566752   -7.1735441  
C    2.5562217   -0.0001551   -3.6003001  
C    3.5357958   -0.0006720   -2.6598164  
C    4.7960229   -0.0006609   -3.3645605  
C    4.4679970   -0.0000616   -4.8030278  
N    3.0942340   -0.0001761   -4.8782995  
C    5.3873315    0.0005227   -5.8012902  
C    6.7937409    0.0003382   -5.4344817  
O    7.6974453    0.0007629   -6.2600838  
C    7.1641096   -0.0005465   -3.9170389  
O    8.3448915   -0.0010156   -3.5960816  
C    6.0844249   -0.0008436   -2.9331010  
H    3.3919675   -0.0012036   -1.5940179  
H    6.3492934   -0.0012512   -1.8844982  
H    2.5641257    0.0016995   -5.7303728  
C    0.0000000    0.0000000    0.0000000  
C    1.0541688   -0.0001722   -0.8560390  
C    0.5103141   -0.0000453   -2.1935955  
C   -0.9576367    0.0002460   -2.0455731  
N   -1.2018459   -0.0001392   -0.6915969  
C   -1.8348307    0.0008318   -3.0810611  
C   -1.2972843    0.0009738   -4.4314606  
O   -2.0050665    0.0014267   -5.4301321  
C    0.2542628    0.0004186   -4.6117570  
O    0.7184676    0.0002258   -5.7439117  
C    1.0974555    0.0000874   -3.4189127  
H    2.0940752   -0.0005483   -0.5817978  
H   -2.9081051    0.0011670   -2.9507061  
H   -2.1128194    0.0014912   -0.2706792  
C    3.2798086   -0.0005857    2.9199648  
C    2.5571146   -0.0005566    4.0696553  
C    1.1637436   -0.0001548    3.6910360  
C    1.1336965    0.0000200    2.2159470  
N    2.4483514    0.0001428    1.8102719  
C    0.0000000    0.0000000    1.4700000  
C   -1.2757367    0.0000186    2.1664417  
O   -2.3524596    0.0000640    1.5842315  
C   -1.2676493    0.0000873    3.7284083  
O   -2.3355761    0.0004100    4.3257297  
C    0.0181563   -0.0001760    4.4216297  
H    2.9547357   -0.0006076    5.0689105  
H    0.0150794   -0.0003319    5.5031631  
H    4.3498549   -0.0008612    2.7900019  
H    2.7563627   -0.0012824    0.8551938  
