62

C    1.1243404    0.0100101   -0.7919010  
C    0.7474060    0.0234663   -2.1148549  
C   -0.6787396    0.0234385   -2.1414699  
C   -1.1201749    0.0098418   -0.7935544  
N    0.0000000    0.0000000    0.0000000  
C   -2.4730823    0.0063321   -0.4408230  
C   -3.3971967    0.0170447   -1.4675047  
O   -4.7313524    0.0145515   -1.1793448  
C   -2.9763671    0.0303042   -2.8186310  
O   -4.0166497    0.0394489   -3.7247605  
C   -1.6418584    0.0335006   -3.1673477  
H   -2.8160162   -0.0041554    0.5845978  
H   -5.1938829    0.0230052   -2.0274358  
H   -3.6464702    0.0481723   -4.6127325  
H   -1.3497496    0.0435660   -4.2109228  
H    2.1062462    0.0053151   -0.3505420  
C    4.5575643   -2.0610707   -2.9109879  
C    3.4088202   -1.6041454   -2.3491333  
C    2.8058341   -0.6999826   -3.2997819  
C    3.7038723   -0.6673939   -4.4699334  
N    4.7468088   -1.5133522   -4.1707223  
C    3.4850154    0.0718708   -5.5867569  
C    2.2849994    0.8902155   -5.6397509  
O    1.9987724    1.5912618   -6.6014727  
C    1.3199204    0.8712369   -4.4117165  
O    0.3066376    1.5563858   -4.4447249  
C    1.6628928    0.0339168   -3.2649309  
H    3.0274839   -1.8699907   -1.3793280  
H    5.2819174   -2.7516843   -2.5106676  
H    5.5245077   -1.7050614   -4.7752714  
C    5.8114148   -3.1578992   -7.6229578  
C    4.9835862   -2.4591641   -6.7750555  
C    5.0162952   -1.0953135   -7.1915195  
C    5.8882442   -1.0218161   -8.3078655  
N    6.3552155   -2.2913495   -8.5420439  
C    6.1592399    0.1747686   -8.9783397  
C    5.5384661    1.3179323   -8.5135863  
O    5.7674898    2.5132150   -9.1315351  
C    4.6654774    1.2649279   -7.4009773  
O    4.1256179    2.4876915   -7.0592997  
C    4.3978831    0.0848623   -6.7388868  
H    4.4257228   -2.8804307   -5.9563275  
H    6.9854155   -2.5511404   -9.2791586  
H    6.8229291    0.2374744   -9.8296824  
H    5.2445884    3.1713512   -8.6554106  
H    3.5486327    2.3637894   -6.2994702  
H    6.0580993   -4.2055944   -7.6439510  
C    0.8681109    0.7263879    2.2709268  
C    0.6127770    0.5096195    3.5869401  
C   -0.4920590   -0.4175482    3.6542670  
C   -0.8620974   -0.7254003    2.2596025  
N    0.0000000    0.0000000    1.4700000  
C   -1.8641242   -1.5660088    1.8976294  
C   -2.6293522   -2.2103885    2.9520183  
O   -3.5512764   -2.9839180    2.7283916  
C   -2.2549728   -1.8987399    4.4361073  
O   -2.8923672   -2.4351063    5.3323774  
C   -1.1543735   -0.9755647    4.7012123  
H    1.1382914    0.9492124    4.4159191  
H   -2.1192137   -1.7782617    0.8686553  
H   -0.9013378   -0.7652422    5.7314848  
H    1.6172880    1.3558399    1.8188057  
