58

C    1.0965515    0.0001360   -0.8010307  
C    0.0000000    0.0000000    0.0000000  
C   -1.1546563    0.0001472   -0.8669511  
C   -0.6372017    0.0003524   -2.2486278  
N    0.7342869    0.0007340   -2.1395012  
C   -1.4147741    0.0001358   -3.3608716  
C   -2.8576051   -0.0001044   -3.1854456  
O   -3.6427780   -0.0002487   -4.1244900  
C   -3.4275842   -0.0000722   -1.7311660  
O   -4.6406833    0.0000335   -1.5710051  
C   -2.4891865   -0.0001088   -0.6116743  
H   -2.8919121   -0.0002918    0.3920869  
H    2.1388271    0.0000664   -0.5261648  
H    1.3735870   -0.0006094   -2.9130262  
C    1.9957409   -2.1407946   -5.0258946  
C    1.9855622   -1.7332332   -6.3163865  
C    0.8551744   -0.8225474   -6.4132066  
C    0.2799730   -0.7963189   -5.0512082  
N    0.9444049   -1.5670709   -4.2336137  
C   -0.8712830    0.0001717   -4.7267109  
C   -1.4226090    0.7372654   -5.7177037  
O   -2.4987602    1.5259561   -5.5567517  
C   -0.8649837    0.7322393   -7.1023299  
O   -1.4179259    1.4273760   -7.9545387  
C    0.3165519   -0.0930913   -7.4101073  
H   -2.6523128    1.9181971   -6.4352280  
H    0.6899756   -0.0690833   -8.4250994  
H    2.6823199   -2.8229899   -4.5502983  
C    2.9087503   -2.1188225   -7.3933934  
C    3.9644399   -2.9627805   -7.3238645  
C    4.5204362   -2.9795102   -8.6681443  
C    3.6534503   -2.0646930   -9.4414677  
N    2.7069771   -1.5570871   -8.6995009  
C    3.8750105   -1.8048826  -10.8373526  
C    4.9156284   -2.4302352  -11.4334933  
O    5.2387887   -2.2804970  -12.7293278  
C    5.8088690   -3.3588887  -10.6799122  
O    6.7369080   -3.8934836  -11.2866845  
C    5.5608484   -3.6090422   -9.2488862  
H    4.3217928   -3.5067145   -6.4662454  
H    3.2255505   -1.1318714  -11.3778779  
H    6.0197664   -2.8486821  -12.8573597  
H    6.2306753   -4.2882513   -8.7387523  
C    2.4951002    2.0940188    2.9809380  
C    1.9440701    1.6314916    1.8291961  
C    0.8759964    0.7350050    2.2038498  
C    0.8497377    0.7130254    3.6788474  
N    1.8560616    1.5571714    4.0882609  
C   -0.0205033   -0.0168748    4.4215661  
C   -0.9962600   -0.8356168    3.7214979  
O   -1.8224391   -1.5286685    4.3006425  
C   -0.9864710   -0.8277881    2.1595606  
O   -1.8030528   -1.5133726    1.5592035  
C    0.0000000    0.0000000    1.4700000  
H    2.2509283    1.8888011    0.8310761  
H   -0.0229599   -0.0187323    5.5027230  
H    3.3143982    2.7817323    3.1139444  
H    2.0889452    1.7545833    5.0442112  
