60

C   -3.3003551   -0.0028503   -1.4738957  
C   -2.5232834   -0.0021257   -2.6090724  
C   -1.1623227   -0.0006863   -2.1820091  
C   -1.1711895   -0.0008826   -0.7636129  
N   -2.4852315   -0.0002571   -0.3662339  
C    0.0000000    0.0000000    0.0000000  
C    1.2020373    0.0007939   -0.6806491  
O    2.3759234    0.0013225    0.0157722  
C    1.2314624    0.0013777   -2.0955521  
O    2.5054347    0.0025666   -2.6250202  
C    0.0764478    0.0007808   -2.8495194  
H   -2.8919989   -0.0014735   -3.6205275  
H   -2.8036197   -0.0107913    0.5858688  
H    3.0835618    0.0021352   -0.6418847  
H    2.4359995    0.0028668   -3.5845943  
H    0.1304052    0.0014336   -3.9319088  
C   -4.7630509   -0.0038276   -1.3275358  
C   -5.7197932   -0.0056258   -2.2912351  
C   -6.9965550   -0.0058430   -1.6169097  
C   -6.7031138   -0.0039818   -0.1709913  
N   -5.3315507   -0.0032219   -0.0628039  
C   -7.6461193   -0.0032052    0.8049406  
C   -9.0433290   -0.0045000    0.4045173  
O   -9.9665687   -0.0040015    1.2082141  
C   -9.3772065   -0.0067303   -1.1213681  
O  -10.5499535   -0.0081411   -1.4705437  
C   -8.2742412   -0.0071136   -2.0791355  
H   -5.5504516   -0.0068620   -3.3532783  
H   -7.4095533   -0.0017075    1.8599023  
H   -4.8220256   -0.0003985    0.8017328  
C   -7.9304657   -0.7360229   -4.4851430  
C   -8.4711904   -0.5209764   -5.7121095  
C   -9.5640452    0.4057278   -5.5340024  
C   -9.6160396    0.7151845   -4.0923628  
N   -8.5999679   -0.0089389   -3.5125927  
C  -10.5134627    1.5558980   -3.5183095  
C  -11.4936948    2.1987051   -4.3776569  
O  -12.3436215    2.9721953   -3.9561842  
C  -11.4572808    1.8853426   -5.9074555  
O  -12.2777559    2.4203767   -6.6408173  
C  -10.4422205    0.9622166   -6.4087963  
H   -8.1421588   -0.9614180   -6.6364276  
H  -10.5343378    1.7693408   -2.4586322  
H  -10.4236376    0.7507018   -7.4692877  
H   -7.0993458   -1.3646558   -4.2095524  
C    0.0000000    0.0000000    1.4700000  
C    1.0541688    0.0001722    2.3260392  
C    0.5103138    0.0000454    3.6635956  
C   -0.9576371   -0.0002459    3.5155732  
N   -1.2018458    0.0001392    2.1615969  
C   -1.8348311   -0.0008317    4.5510609  
C   -1.2972847   -0.0009736    5.9014604  
O   -2.0050672   -0.0014265    6.9001319  
C    0.2542623   -0.0004184    6.0817573  
O    0.7184670   -0.0002256    7.2139121  
C    1.0974552   -0.0000873    4.8889129  
H    2.0940752    0.0005483    2.0517982  
H   -2.9081052   -0.0011668    4.4207061  
H    2.1707277    0.0000911    5.0223670  
H   -2.1128194   -0.0014912    1.7406791  
