58

C   -0.4717745    0.0181293   -8.8129927  
C    0.3037487   -0.6583167   -9.6990284  
C   -0.1613757   -0.3065439  -11.0199189  
C   -1.2794451    0.6370792  -10.8294276  
N   -1.4171232    0.7916669   -9.4692667  
C   -1.9883907    1.2030125  -11.8387933  
C   -1.6261977    0.8596695  -13.2038815  
O   -2.2042036    1.3165425  -14.1813671  
C   -0.4454878   -0.1378429  -13.4290448  
O   -0.1316712   -0.4346353  -14.5739009  
C    0.2433479   -0.6819686  -12.2614475  
H    1.1095478   -1.3275035   -9.4551231  
H   -2.8049658    1.8929902  -11.6774054  
H    1.0599089   -1.3718202  -12.4259363  
H   -2.0980069    1.3778558   -9.0222463  
C    2.1451928   -2.0951773   -5.9900943  
C    1.6340471   -1.6323753   -4.8202142  
C    0.5538824   -0.7357923   -5.1581773  
C    0.4770636   -0.7140558   -6.6314112  
N    1.4686360   -1.5584203   -7.0749457  
C   -0.4180296    0.0158496   -7.3439773  
C   -1.3690895    0.8348539   -6.6110028  
O   -2.2145428    1.5279315   -7.1615959  
C   -1.3057474    0.8272854   -5.0503184  
O   -2.1011642    1.5130918   -4.4224310  
C   -0.2963293   -0.0005341   -4.3948471  
H    1.9749143   -1.8895633   -3.8331592  
H    2.9593495   -2.7830348   -6.1509984  
H    1.6685742   -1.7560269   -8.0382850  
C    3.1301146   -0.0010313   -1.7028256  
C    2.5367765   -0.0002766   -0.4864669  
C    1.1089901    0.0001027   -0.7656184  
C    1.0177865   -0.0004150   -2.2415133  
N    2.1993571   -0.0011612   -2.7963824  
C   -0.2459219   -0.0002879   -2.9257116  
C   -1.3675326   -0.0000606   -2.1698520  
O   -2.6129318    0.0000865   -2.6748483  
C   -1.3083588    0.0000910   -0.6783229  
O   -2.3693264    0.0004206   -0.0541685  
C    0.0000000    0.0000000    0.0000000  
H    3.0096016   -0.0001007    0.4807518  
H   -3.1967444    0.0002093   -1.8949026  
H    4.1849275   -0.0015114   -1.9271979  
C    0.8400945    0.7047457    2.2710304  
C    0.0000000    0.0000000    1.4700000  
C   -0.8844236   -0.7423113    2.3369512  
C   -0.4878984   -0.4098547    3.7186280  
N    0.5629682    0.4714286    3.6095011  
C   -1.0836927   -0.9095027    4.8308716  
C   -2.1891196   -1.8367527    4.6554461  
O   -2.7906899   -2.3413415    5.5944904  
C   -2.6257283   -2.2031529    3.2011665  
O   -3.5549479   -2.9829990    3.0410059  
C   -1.9068976   -1.5999348    2.0816745  
H   -0.7774656   -0.6525820    5.8354244  
H   -2.2155208   -1.8586617    1.0779135  
H    1.6384792    1.3747609    1.9961646  
H    1.0518368    0.8833920    4.3830260  
