62

C    3.3003550    0.0005278   -1.4738984  
C    2.5232817    0.0003499   -2.6090745  
C    1.1623206   -0.0001318   -2.1820103  
C    1.1711889    0.0000583   -0.7636144  
N    2.4852306   -0.0014919   -0.3662359  
C    0.0000000    0.0000000    0.0000000  
C   -1.2020381    0.0000520   -0.6806483  
O   -2.3759245    0.0003493    0.0157738  
C   -1.2314651   -0.0005111   -2.0955512  
O   -2.5054383   -0.0008038   -2.6250188  
C   -0.0764510   -0.0007272   -2.8495197  
H    2.8036267    0.0088181    0.5858666  
H   -3.0835634    0.0000346   -0.6418822  
H   -2.4360041   -0.0011525   -3.5845926  
H   -0.1304089   -0.0013420   -3.9319089  
H    4.3715552    0.0004896   -1.3667133  
C    5.8850902   -2.1080192   -4.4895965  
C    5.7585077   -1.6448894   -5.7598575  
C    4.6253937   -0.7500316   -5.7707353  
C    4.0984499   -0.7296199   -4.3928008  
N    4.9059588   -1.5736627   -3.6658823  
C    3.0267442   -0.0008948   -3.9901698  
C    2.3467548    0.8177996   -4.9800634  
O    1.3721080    1.5097466   -4.7162946  
C    2.8874962    0.8112304   -6.4454508  
O    2.3229945    1.4963169   -7.2876239  
C    4.0508303   -0.0149196   -6.7584727  
H    4.4191252   -0.0137400   -7.7753709  
H    6.6111559   -2.7948988   -4.0859696  
H    4.8014750   -1.7695716   -2.6872357  
C    7.5706890   -5.4798386   -7.0120737  
C    8.2125157   -5.0123962   -8.1354715  
C    7.9249178   -3.6184733   -8.2296344  
C    7.0963443   -3.2890052   -7.1265286  
N    6.8991571   -4.4424148   -6.4086283  
C    6.6176404   -1.9950314   -6.9001173  
C    6.9822625   -1.0157524   -7.8035771  
O    6.5430427    0.2648517   -7.6299337  
C    7.8079243   -1.3249429   -8.9106013  
O    8.0819228   -0.2414183   -9.7194541  
C    8.2803221   -2.6013172   -9.1347347  
H    8.8131053   -5.6036143   -8.8053571  
H    6.3598676   -4.5158615   -5.5649738  
H    6.9075944    0.7800762   -8.3613099  
H    8.6443762   -0.5359835  -10.4422836  
H    8.9109278   -2.8080230   -9.9915233  
H    7.5376180   -6.4714716   -6.5943071  
C    2.5128556    2.1077716    2.9199648  
C    1.9592212    1.6432552    4.0696553  
C    0.8915788    0.7479214    3.6910360  
C    0.8684491    0.7287414    2.2159470  
N    1.8754542    1.5738793    1.8102719  
C    0.0000000    0.0000000    1.4700000  
C   -0.9772830   -0.8200135    2.1664417  
O   -1.8021297   -1.5120829    1.5842315  
C   -0.9711318   -0.8147624    3.7284083  
O   -1.7894187   -1.5009653    4.3257297  
C    0.0140216    0.0115358    4.4216297  
H    2.2638494    1.8988021    5.0689105  
H    0.0117648    0.0094386    5.5031631  
H    3.3327358    2.7953732    2.7900019  
H    2.1123206    1.7707734    0.8551938  
