62

C    3.3003547    0.0005275   -1.4738980  
C    2.5232816    0.0003495   -2.6090742  
C    1.1623206   -0.0001320   -2.1820096  
C    1.1711889    0.0000583   -0.7636136  
N    2.4852300   -0.0014920   -0.3662353  
C    0.0000000    0.0000000    0.0000000  
C   -1.2020382    0.0000519   -0.6806479  
O   -2.3759247    0.0003494    0.0157745  
C   -1.2314650   -0.0005113   -2.0955508  
O   -2.5054383   -0.0008037   -2.6250181  
C   -0.0764510   -0.0007273   -2.8495192  
H    2.8919962   -0.0005621   -3.6205295  
H    2.8036265    0.0088181    0.5858667  
H   -3.0835641    0.0000347   -0.6418820  
H   -2.4360047   -0.0011529   -3.5845921  
C    4.7630506    0.0004754   -1.3275394  
C    5.7496393    0.0026152   -2.2862397  
C    6.9990004    0.0020518   -1.5979842  
C    6.7092702   -0.0007684   -0.2094690  
N    5.3425447    0.0002886   -0.0803284  
C    7.7059381   -0.0023442    0.7710610  
C    9.0190063   -0.0013564    0.3420781  
O   10.0316329   -0.0031639    1.2572828  
C    9.3281960    0.0018263   -1.0389393  
O   10.6818189    0.0028645   -1.3054854  
C    8.3454703    0.0036555   -2.0068098  
H    5.5886424    0.0054718   -3.3506949  
H    4.8418148   -0.0117287    0.7897905  
H    7.4916922   -0.0043502    1.8309183  
H   10.8555478   -0.0017605    0.7528768  
H   10.8038896    0.0050067   -2.2597904  
H    8.6128214    0.0062685   -3.0570458  
C    2.2882822   -2.1097770   -5.8897962  
C    1.6780097   -1.6459966   -7.0107556  
C    0.6303825   -0.7506088   -6.5799497  
C    0.6807213   -0.7305953   -5.1055495  
N    1.7068267   -1.5753511   -4.7500425  
C   -0.1496409   -0.0015614   -4.3176961  
C   -1.1605334    0.8179096   -4.9650744  
O   -1.9554930    1.5101851   -4.3429047  
C   -1.2321577    0.8117731   -6.5254067  
O   -2.0792923    1.4975138   -7.0816293  
C   -0.2825933   -0.0147700   -7.2663562  
H    1.9325538   -1.9020645   -8.0237955  
H   -0.3386962   -0.0132868   -8.3464369  
H    3.1137391   -2.7971813   -5.8004310  
H    1.9909868   -1.7716677   -3.8078326  
C    0.0000000    0.0000000    1.4700000  
C    1.0541688    0.0001722    2.3260392  
C    0.5103138    0.0000454    3.6635956  
C   -0.9576371   -0.0002459    3.5155732  
N   -1.2018458    0.0001392    2.1615969  
C   -1.8348311   -0.0008317    4.5510609  
C   -1.2972847   -0.0009736    5.9014604  
O   -2.0050672   -0.0014265    6.9001319  
C    0.2542623   -0.0004184    6.0817573  
O    0.7184670   -0.0002256    7.2139121  
C    1.0974552   -0.0000873    4.8889129  
H    2.0940752    0.0005483    2.0517982  
H   -2.9081052   -0.0011668    4.4207061  
H    2.1707277    0.0000911    5.0223670  
H   -2.1128194   -0.0014912    1.7406791  
