60

C    3.3003544    0.0005269   -1.4738990  
C    2.5232812    0.0003489   -2.6090747  
C    1.1623201   -0.0001325   -2.1820101  
C    1.1711882    0.0000580   -0.7636141  
N    2.4852302   -0.0014924   -0.3662355  
C    0.0000000    0.0000000    0.0000000  
C   -1.2020381    0.0000517   -0.6806479  
O   -2.3759247    0.0003494    0.0157750  
C   -1.2314655   -0.0005119   -2.0955508  
O   -2.5054387   -0.0008042   -2.6250178  
C   -0.0764516   -0.0007279   -2.8495193  
H    2.8919951   -0.0005629   -3.6205305  
H    2.8036266    0.0088176    0.5858657  
H   -3.0835637    0.0000347   -0.6418815  
H   -2.4360050   -0.0011533   -3.5845917  
H    4.3715548    0.0004886   -1.3667139  
C    2.1623912   -2.0122276   -6.1367512  
C    1.7689757   -1.6301541   -4.8994865  
C    0.6617233   -0.7136681   -5.1243082  
C    0.5180516   -0.6563682   -6.5949061  
N    1.3949575   -1.4155876   -7.1937475  
C   -0.4838560    0.1543895   -7.2304691  
C   -1.3051619    0.8748424   -6.4331370  
O   -2.2841108    1.6739661   -6.8904135  
C   -1.1854794    0.8378275   -4.9457005  
O   -1.9668285    1.5193639   -4.2822079  
C   -0.1496418   -0.0015622   -4.3176961  
H    2.1794007   -1.9329297   -3.9513546  
H   -0.5660964    0.1774116   -8.3073238  
H   -2.6923638    2.0491943   -6.0893602  
C    3.2480351   -2.9357033   -6.4965716  
C    4.0856329   -3.6007873   -5.6673116  
C    4.9553984   -4.3659584   -6.5473804  
C    4.4898100   -4.0350679   -7.9113172  
N    3.4892286   -3.1970488   -7.8878659  
C    5.1034144   -4.5984177   -9.0823055  
C    6.1354858   -5.4531600   -8.8990655  
O    6.8007343   -6.0524093   -9.9012558  
C    6.6286578   -5.8066257   -7.5352456  
O    7.5723651   -6.5916085   -7.4433798  
C    5.9825996   -5.2155843   -6.3498331  
H    4.1102827   -3.5752202   -4.5912939  
H    4.7425590   -4.3391211  -10.0669159  
H    7.4761785   -6.5978779   -9.4592244  
H    6.3695084   -5.4970345   -5.3796181  
C    0.0000000    0.0000000    1.4700000  
C    1.0541688    0.0001722    2.3260392  
C    0.5103138    0.0000454    3.6635956  
C   -0.9576371   -0.0002459    3.5155732  
N   -1.2018458    0.0001392    2.1615969  
C   -1.8348311   -0.0008317    4.5510609  
C   -1.2972847   -0.0009736    5.9014604  
O   -2.0050672   -0.0014265    6.9001319  
C    0.2542623   -0.0004184    6.0817573  
O    0.7184670   -0.0002256    7.2139121  
C    1.0974552   -0.0000873    4.8889129  
H    2.0940752    0.0005483    2.0517982  
H   -2.9081052   -0.0011668    4.4207061  
H    2.1707277    0.0000911    5.0223670  
H   -2.1128194   -0.0014912    1.7406791  
