62

C    3.3041273    0.0001175   -1.5420435  
C    2.5845372   -0.0004779   -0.3695860  
C    1.2040005   -0.0000008   -0.7283593  
C    1.1422374    0.0006037   -2.1454377  
N    2.4348641    0.0026111   -2.6077466  
C   -0.0655181    0.0008798   -2.8497922  
C   -1.2321766    0.0002323   -2.1101403  
O   -2.4392816    0.0001146   -2.7472523  
C   -1.1911209   -0.0000007   -0.6955264  
O   -2.4371522   -0.0002319   -0.1032863  
C    0.0000000    0.0000000    0.0000000  
H    3.0031538   -0.0000661    0.6222575  
H    2.7054628   -0.0071099   -3.5745264  
H   -3.1132990   -0.0000647   -2.0551788  
H   -2.3200277   -0.0004070    0.8516402  
H    4.3686620    0.0004070   -1.7024297  
C    2.3129716   -2.1206346   -5.9853336  
C    1.8203210   -1.6593260   -4.7866025  
C    0.7463512   -0.7716031   -5.0917860  
C    0.6289215   -0.7306575   -6.5047477  
N    1.5963344   -1.5595250   -7.0163214  
C   -0.3301681    0.0460723   -7.1617305  
C   -1.1865065    0.7948777   -6.3780513  
O   -2.1420034    1.5708500   -6.9678874  
C   -1.0848074    0.7675251   -4.9667660  
O   -2.0089556    1.5677381   -4.3272724  
C   -0.1387083    0.0017018   -4.3179686  
H    2.1903016   -1.9285749   -3.8121219  
H   -0.4247473    0.0817359   -8.2382921  
H   -2.6234320    2.0034608   -6.2507130  
H   -1.8718974    1.4918036   -3.3780344  
H    3.1197745   -2.8044120   -6.1865217  
C    2.5606395   -5.2825724   -9.0648655  
C    2.6397327   -4.8850473  -10.3561039  
C    2.3613033   -3.4574211  -10.3267646  
C    2.1302331   -3.1520351   -8.8985036  
N    2.2458268   -4.2179990   -8.1539579  
C    1.8199029   -1.8242452   -8.4449015  
C    1.7442470   -0.8459309   -9.3757676  
O    1.4632164    0.4377602   -9.0943433  
C    1.9726473   -1.1224356  -10.8247458  
O    1.8876498   -0.1837002  -11.6164355  
C    2.2894963   -2.4927354  -11.2649844  
H    2.8599217   -5.4863211  -11.2215876  
H    1.4805109    0.8902319   -9.9569691  
H    2.4481295   -2.6515747  -12.3232076  
H    2.7033867   -6.2740029   -8.6652877  
C    0.0000000    0.0000000    1.4700000  
C    1.0541688    0.0001722    2.3260392  
C    0.5103138    0.0000454    3.6635956  
C   -0.9576371   -0.0002459    3.5155732  
N   -1.2018458    0.0001392    2.1615969  
C   -1.8348311   -0.0008317    4.5510609  
C   -1.2972847   -0.0009736    5.9014604  
O   -2.0050672   -0.0014265    6.9001319  
C    0.2542623   -0.0004184    6.0817573  
O    0.7184670   -0.0002256    7.2139121  
C    1.0974552   -0.0000873    4.8889129  
H    2.0940752    0.0005483    2.0517982  
H   -2.9081052   -0.0011668    4.4207061  
H    2.1707277    0.0000911    5.0223670  
H   -2.1128194   -0.0014912    1.7406791  
