58

C   -0.5423608   -0.5188704   -9.5224846  
C   -0.8736498    0.6910471   -9.0024636  
C   -0.8781988    1.6327372  -10.0970100  
C   -0.5198628    0.8667640  -11.3060065  
N   -0.3287576   -0.4305675  -10.8897137  
C   -0.4169519    1.3981682  -12.5504834  
C   -0.6762148    2.8194176  -12.7097565  
O   -0.6092476    3.3918023  -13.7896614  
C   -1.0570690    3.6500456  -11.4429454  
O   -1.2773012    4.8475207  -11.5646473  
C   -1.1367425    2.9653762  -10.1550281  
H   -0.1528949    0.8186353  -13.4241685  
H   -1.4012561    3.5476055   -9.2828089  
H   -0.4360798   -1.4675601   -9.0219032  
H   -0.0753401   -1.1958048  -11.4874091  
C    0.9350737   -0.7259376   -5.2319053  
C    0.6347947   -0.5089063   -6.5383532  
C   -0.4715638    0.4184292   -6.5675990  
C   -0.7935152    0.7260932   -5.1610144  
N    0.0950446    0.0004351   -4.4015596  
C   -1.7824164    1.5667807   -4.7647533  
C   -2.5832557    2.2114503   -5.7921734  
O   -3.4968556    2.9850717   -5.5369355  
C   -2.2600327    1.9000044   -7.2882799  
O   -2.9277074    2.4366153   -8.1620764  
C   -1.1693072    0.9767197   -7.5911240  
H    1.1315090   -0.9484305   -7.3849382  
H   -2.0020405    1.7788925   -3.7276013  
H    1.6992215   -1.3555734   -4.8058458  
C    3.3321173    0.0004713   -1.3379338  
C    2.6974181    0.0000116   -2.5332314  
C    1.2800438   -0.0002119   -2.2052841  
C    1.2395034    0.0000643   -0.7271299  
N    2.4394062    0.0005460   -0.2131038  
C    0.0000000    0.0000000    0.0000000  
C   -1.1468702    0.0000634   -0.7169543  
O   -2.3742203    0.0000074   -0.1695487  
C   -1.1388770    0.0001607   -2.2096355  
O   -2.2206234    0.0000905   -2.7970411  
C    0.1454522    0.0001815   -2.9324241  
H    3.1367984   -0.0000653   -3.5160950  
H   -2.9844346    0.0001026   -0.9290167  
H    4.3940038    0.0007618   -1.1498640  
C    2.4951002    2.0940188    2.9809380  
C    1.9440701    1.6314916    1.8291961  
C    0.8759964    0.7350050    2.2038498  
C    0.8497377    0.7130254    3.6788474  
N    1.8560616    1.5571714    4.0882609  
C   -0.0205033   -0.0168748    4.4215661  
C   -0.9962600   -0.8356168    3.7214979  
O   -1.8224391   -1.5286685    4.3006425  
C   -0.9864710   -0.8277881    2.1595606  
O   -1.8030528   -1.5133726    1.5592035  
C    0.0000000    0.0000000    1.4700000  
H    2.2509283    1.8888011    0.8310761  
H   -0.0229599   -0.0187323    5.5027230  
H    3.3143982    2.7817323    3.1139444  
H    2.0889452    1.7545833    5.0442112  
