60

C    0.5438764   -0.7269789   -5.2249517  
C    0.2435449   -0.5104541   -6.5314703  
C   -0.8630385    0.4166032   -6.5610253  
C   -1.1850645    0.7246559   -5.1545426  
N   -0.2963289   -0.0005348   -4.3948470  
C   -2.1741700    1.5652353   -4.7585602  
C   -2.9751652    2.2093694   -5.7861948  
O   -3.8889529    2.9828540   -5.5312132  
C   -2.6518670    1.8975060   -7.2821978  
O   -3.3196710    2.4336645   -8.1561721  
C   -1.5609170    0.9743850   -7.5847347  
H    0.7403659   -0.9501387   -7.3779103  
H   -2.3938454    1.7776376   -3.7214791  
H   -1.3433394    0.7639124   -8.6230439  
H    1.3081767   -1.3562881   -4.7986825  
C    3.1301148   -0.0010315   -1.7028253  
C    2.5367766   -0.0002767   -0.4864666  
C    1.1089903    0.0001025   -0.7656183  
C    1.0177867   -0.0004153   -2.2415131  
N    2.1993574   -0.0011616   -2.7963821  
C   -0.2459218   -0.0002884   -2.9257117  
C   -1.3675324   -0.0000610   -2.1698519  
O   -2.6129318    0.0000862   -2.6748483  
C   -1.3083588    0.0000908   -0.6783229  
O   -2.3693264    0.0004202   -0.0541688  
C    0.0000000    0.0000000    0.0000000  
H    3.0096015   -0.0001006    0.4807520  
H   -3.1967441    0.0002093   -1.8949029  
C    4.5679459   -0.0016858   -2.0086704  
C    5.6245800   -0.0018699   -1.1556762  
C    6.8197129   -0.0025289   -1.9659190  
C    6.3695107   -0.0026859   -3.3709487  
N    4.9943545   -0.0025539   -3.3281077  
C    7.1998306   -0.0028683   -4.4443882  
C    8.6325199   -0.0031392   -4.1995666  
O    9.4620772   -0.0033788   -5.0996420  
C    9.1316829   -0.0032312   -2.7194850  
O   10.3356432   -0.0037654   -2.5009923  
C    8.1403751   -0.0027360   -1.6465634  
H    5.5727012   -0.0017596   -0.0814685  
H    6.8490261   -0.0028511   -5.4670542  
H    8.4942119   -0.0025979   -0.6245440  
H    4.3931129   -0.0010552   -4.1315715  
C    0.0000000    0.0000000    1.4700000  
C    1.0521667    0.0011902    2.3562342  
C    0.4917218    0.0011957    3.6679131  
C   -0.9187428   -0.0003148    3.5178682  
N   -1.1833171    0.0009411    2.1707914  
C   -1.7951701   -0.0010350    4.6072090  
C   -1.2375837   -0.0005224    5.8710424  
O   -2.0474215   -0.0015360    6.9697579  
C    0.1673580    0.0013566    6.0411963  
O    0.5673524    0.0020687    7.3615553  
C    1.0325770    0.0023412    4.9669890  
H    2.0953057    0.0030649    2.0900562  
H   -2.0989778   -0.0102372    1.7591824  
H   -2.8710934   -0.0020419    4.4995513  
H   -1.4634884   -0.0006497    7.7393593  
H    1.5290710    0.0033153    7.3880045  
H    2.1042148    0.0039609    5.1284455  
