58

C    1.0343283   -0.0598044   -8.7440205  
C    2.1152820   -0.7170244   -9.2376555  
C    2.2408242   -0.3381492  -10.6252898  
C    1.1365017    0.6004253  -10.9015873  
N    0.4420745    0.7265117   -9.7205873  
C    0.9084221    1.1867287  -12.1040564  
C    1.8106844    0.8722058  -13.1992896  
O    1.6892965    1.3489099  -14.3201451  
C    2.9869063   -0.1194747  -12.9293319  
O    3.7528254   -0.3920870  -13.8438320  
C    3.1304455   -0.6872902  -11.5911116  
H    2.7519207   -1.3905232   -8.6920335  
H    0.0925841    1.8725548  -12.2856083  
H    3.9475638   -1.3729257  -11.4123793  
H   -0.3687468    1.3027221   -9.5879270  
C    2.0485057   -2.1404841   -4.9352597  
C    2.0920575   -1.7327544   -6.2250030  
C    0.9665701   -0.8221932   -6.3687264  
C    0.3351124   -0.7962138   -5.0318758  
N    0.9649966   -1.5669927   -4.1874018  
C   -0.8287665    0.0000939   -4.7555305  
C   -1.3384137    0.7372507   -5.7685430  
O   -2.4204377    1.5257894   -5.6524722  
C   -0.7235766    0.7324748   -7.1287316  
O   -1.2406167    1.4276566   -8.0031531  
C    0.4698625   -0.0926717   -7.3871127  
H    2.8005017   -2.0149674   -6.9849629  
H   -2.5373015    1.9181276   -6.5365349  
H    2.7147576   -2.8226586   -4.4315535  
C    1.0672569   -0.0000698   -0.8321910  
C    0.0000000    0.0000000    0.0000000  
C   -1.1601223   -0.0000736   -0.8778472  
C   -0.5938729   -0.0000768   -2.2438435  
N    0.7113367   -0.0001553   -2.2234123  
C   -1.4286985   -0.0001877   -3.4135239  
C   -2.7683113   -0.0006798   -3.2270524  
O   -3.6653902   -0.0008302   -4.2276970  
C   -3.3702024   -0.0010610   -1.8610774  
O   -4.5974910   -0.0013779   -1.7662963  
C   -2.4926825   -0.0008943   -0.6770658  
H   -4.5324245   -0.0012258   -3.7833954  
H   -2.9677772   -0.0012974    0.2947961  
H    2.1134391   -0.0000547   -0.5705119  
C    2.5128556    2.1077716    2.9199648  
C    1.9592212    1.6432552    4.0696553  
C    0.8915788    0.7479214    3.6910360  
C    0.8684491    0.7287414    2.2159470  
N    1.8754542    1.5738793    1.8102719  
C    0.0000000    0.0000000    1.4700000  
C   -0.9772830   -0.8200135    2.1664417  
O   -1.8021297   -1.5120829    1.5842315  
C   -0.9711318   -0.8147624    3.7284083  
O   -1.7894187   -1.5009653    4.3257297  
C    0.0140216    0.0115358    4.4216297  
H    2.2638494    1.8988021    5.0689105  
H    0.0117648    0.0094386    5.5031631  
H    3.3327358    2.7953732    2.7900019  
H    2.1123206    1.7707734    0.8551938  
