58

C    3.9404946   -0.7293549   -4.5163119  
C    4.0976525   -0.5146855   -5.8479626  
C    3.0657855    0.4119876   -6.2496624  
C    2.2890365    0.7218372   -5.0341600  
N    2.8699638   -0.0020525   -4.0185828  
C    1.2244920    1.5626425   -4.9954967  
C    0.8163860    2.2051420   -6.2337132  
O   -0.1297734    2.9786859   -6.3023647  
C    1.6244746    1.8913611   -7.5330745  
O    1.2900269    2.4261332   -8.5816085  
C    2.7534399    0.9681715   -7.4493443  
H    4.8503965   -0.9553573   -6.4770881  
H    0.6684827    1.7763755   -4.0932316  
H    4.5165360   -1.3578515   -3.8567220  
C    3.2573670   -0.0002920   -1.5109384  
C    2.5379466   -0.0001708   -0.3591964  
C    1.1435042    0.0000333   -0.7338500  
C    1.1092606   -0.0000082   -2.2088477  
N    2.4227559    0.0001910   -2.6182614  
C   -0.0265533   -0.0002524   -2.9515665  
C   -1.3003040   -0.0002640   -2.2514980  
O   -2.3786785   -0.0004135   -2.8306426  
C   -1.2877727    0.0000313   -0.6895608  
O   -2.3539959    0.0003306   -0.0892036  
C    0.0000000    0.0000000    0.0000000  
H    2.9384090   -0.0000368    0.6389239  
H   -0.0296293   -0.0004086   -4.0327231  
H    4.3270391   -0.0004761   -1.6439451  
C    4.5024303   -2.7471370   -9.0722889  
C    3.8632709   -1.8299442   -8.3013753  
C    3.9608734   -0.5627269   -8.9865535  
C    4.7146673   -0.8186739  -10.2287586  
N    5.0138668   -2.1615442  -10.2204408  
C    5.0181269    0.1277430  -11.1528329  
C    4.5727824    1.4893615  -10.9074783  
O    4.7963650    2.4126117  -11.6794373  
C    3.7731621    1.7832571   -9.5982655  
O    3.3932850    2.9259021   -9.3807428  
C    3.5070317    0.6802910   -8.6782152  
H    3.3788802   -2.0194344   -7.3600605  
H    5.5720368   -0.0810607  -12.0575396  
H    4.6430536   -3.8015512   -8.8981462  
H    5.5233406   -2.6425450  -10.9388564  
C    2.5528530    2.1414826    2.8079335  
C    2.0663498    1.7338582    4.0032312  
C    0.9804344    0.8229586    3.6752840  
C    0.9495562    0.7966882    2.1971295  
N    1.8690446    1.5676019    1.6831036  
C    0.0000000    0.0000000    1.4700000  
C   -0.8785127   -0.7372425    2.1869543  
O   -1.8187535   -1.5261249    1.6395491  
C   -0.8723269   -0.7321790    3.6796354  
O   -1.7010379   -1.4274584    4.2670412  
C    0.1115397    0.0933559    4.4024240  
H    2.4028853    2.0163452    4.9860947  
H   -2.2861435   -1.9184361    2.3990168  
H    0.0832434    0.0693689    5.4835595  
H    3.3664920    2.8238276    2.6198634  
