60

C    1.1188648    0.0008219   -0.8003803  
C    0.0000000    0.0000000    0.0000000  
C   -1.1323859    0.0008905   -0.8673531  
C   -0.6382653    0.0019685   -2.1969280  
N    0.7324026    0.0038483   -2.1202236  
C   -1.4770902    0.0027330   -3.3154810  
C   -2.8395463    0.0020962   -3.0876863  
O   -3.7039186    0.0024449   -4.1440360  
C   -3.3517862    0.0013949   -1.7684340  
O   -4.7300486    0.0012388   -1.7073134  
C   -2.5248542    0.0009135   -0.6644822  
H    1.3576326   -0.0056167   -2.9057036  
H   -4.5940017    0.0021852   -3.7685142  
H   -4.9934593    0.0007283   -0.7819930  
H   -2.9462580    0.0005616    0.3339644  
H    2.1619896    0.0009347   -0.5342064  
C    1.8844591   -2.1024764   -5.2000019  
C    1.7579335   -1.6369210   -6.4693814  
C    0.6249295   -0.7419050   -6.4785607  
C    0.0979881   -0.7240436   -5.1005897  
N    0.9053934   -1.5695639   -4.3752747  
C   -0.9736279    0.0040475   -4.6965766  
C   -1.6535166    0.8247030   -5.6849142  
O   -2.6280780    1.5162674   -5.4198324  
C   -1.1127759    0.8208485   -7.1503118  
O   -1.6771933    1.5076014   -7.9911827  
C    0.0504565   -0.0048491   -7.4649008  
H    2.3864479   -1.8915802   -7.3040861  
H    0.4187514   -0.0017845   -8.4817951  
H    0.8008852   -1.7673167   -3.3970014  
C    3.8963319   -3.6390084   -5.3726309  
C    4.6384982   -4.4545634   -4.5800816  
C    4.0679275   -4.3874549   -3.2554004  
C    2.9242976   -3.4593184   -3.3417940  
N    2.8745163   -3.0403734   -4.6513346  
C    2.1221112   -3.1283956   -2.2983900  
C    2.4040304   -3.7260770   -1.0038503  
O    1.7395716   -3.4914792   -0.0029709  
C    3.6104215   -4.7116186   -0.8892484  
O    3.8576532   -5.2207550    0.1956098  
C    4.4022046   -4.9906403   -2.0846895  
H    5.4887416   -5.0365858   -4.8882224  
H    1.2882206   -2.4454953   -2.3831451  
H    5.2356721   -5.6742757   -1.9969489  
H    4.0100230   -3.4247743   -6.4229013  
C    2.5128556    2.1077716    2.9199648  
C    1.9592212    1.6432552    4.0696553  
C    0.8915788    0.7479214    3.6910360  
C    0.8684491    0.7287414    2.2159470  
N    1.8754542    1.5738793    1.8102719  
C    0.0000000    0.0000000    1.4700000  
C   -0.9772830   -0.8200135    2.1664417  
O   -1.8021297   -1.5120829    1.5842315  
C   -0.9711318   -0.8147624    3.7284083  
O   -1.7894187   -1.5009653    4.3257297  
C    0.0140216    0.0115358    4.4216297  
H    2.2638494    1.8988021    5.0689105  
H    0.0117648    0.0094386    5.5031631  
H    3.3327358    2.7953732    2.7900019  
H    2.1123206    1.7707734    0.8551938  
