62

C    3.3003550    0.0005276   -1.4738975  
C    2.5232820    0.0003499   -2.6090737  
C    1.1623204   -0.0001317   -2.1820092  
C    1.1711886    0.0000584   -0.7636135  
N    2.4852302   -0.0014919   -0.3662348  
C    0.0000000    0.0000000    0.0000000  
C   -1.2020384    0.0000521   -0.6806477  
O   -2.3759248    0.0003495    0.0157741  
C   -1.2314652   -0.0005110   -2.0955506  
O   -2.5054382   -0.0008034   -2.6250183  
C   -0.0764511   -0.0007269   -2.8495189  
H    2.8036264    0.0088181    0.5858673  
H   -3.0835638    0.0000349   -0.6418814  
H   -2.4360037   -0.0011524   -3.5845926  
H   -0.1304085   -0.0013419   -3.9319083  
H    4.3715551    0.0004897   -1.3667120  
C    5.9080451   -2.1212785   -4.5066903  
C    5.7372501   -1.6233274   -5.7776507  
C    4.6108303   -0.7493040   -5.7345060  
C    4.1315415   -0.7536525   -4.3995192  
N    4.9405890   -1.5984030   -3.6808702  
C    3.0267444   -0.0008948   -3.9901686  
C    2.3944499    0.7705369   -4.9458224  
O    1.3109375    1.5252433   -4.6002322  
C    2.8575152    0.7878059   -6.2830173  
O    2.1214428    1.6052997   -7.1156311  
C    3.9471981    0.0452335   -6.6876202  
H    6.3485808   -1.8616767   -6.6311481  
H    4.8499642   -1.7941733   -2.7003387  
H    1.0265043    1.9789025   -5.4043193  
H    2.4998696    1.5596278   -7.9989837  
H    6.6425533   -2.8091590   -4.1242283  
C    5.4180070   -3.0926460   -9.3846138  
C    5.6424797   -2.3461697  -10.4965761  
C    5.2811171   -0.9866667  -10.1709930  
C    4.8244703   -1.0024056   -8.7681329  
N    4.9315936   -2.3086109   -8.3495138  
C    4.3968374    0.0903546   -8.0864368  
C    4.3853689    1.3671615   -8.7808200  
O    4.0177833    2.4088693   -8.2535386  
C    4.8644977    1.4071348  -10.2669707  
O    4.8589920    2.4763434  -10.8619695  
C    5.3030333    0.1631174  -10.8946333  
H    6.0181414   -2.7067819  -11.4375590  
H    5.6334541    0.1993700  -11.9238232  
H    5.5667959   -4.1496033   -9.2343042  
H    4.6949877   -2.6407866   -7.4326036  
C    2.5128556    2.1077716    2.9199648  
C    1.9592212    1.6432552    4.0696553  
C    0.8915788    0.7479214    3.6910360  
C    0.8684491    0.7287414    2.2159470  
N    1.8754542    1.5738793    1.8102719  
C    0.0000000    0.0000000    1.4700000  
C   -0.9772830   -0.8200135    2.1664417  
O   -1.8021297   -1.5120829    1.5842315  
C   -0.9711318   -0.8147624    3.7284083  
O   -1.7894187   -1.5009653    4.3257297  
C    0.0140216    0.0115358    4.4216297  
H    2.2638494    1.8988021    5.0689105  
H    0.0117648    0.0094386    5.5031631  
H    3.3327358    2.7953732    2.7900019  
H    2.1123206    1.7707734    0.8551938  
