58

C    7.6968083   -3.3617331   -6.5780251  
C    7.1853688   -2.1191540   -6.3818050  
C    7.7725449   -1.2594107   -7.3822553  
C    8.6744360   -2.1090646   -8.1831743  
N    8.5832066   -3.3716728   -7.6442979  
C    9.4173270   -1.6687935   -9.2300644  
C    9.3224469   -0.2643295   -9.5920229  
O    9.9515321    0.2285529  -10.5191787  
C    8.3737150    0.6538763   -8.7573908  
O    8.2858380    1.8381055   -9.0525834  
C    7.6235524    0.0640297   -7.6514118  
H   10.0726198   -2.3087009   -9.8045382  
H    6.9687058    0.7065173   -7.0786024  
H    7.5009104   -4.2709850   -6.0332553  
H    9.0820040   -4.1768252   -7.9759279  
C    6.1745029   -2.1408800   -4.0544034  
C    6.2180775   -1.7334918   -5.3442539  
C    5.0926412   -0.8229053   -5.4882169  
C    4.4611847   -0.7965391   -4.1513727  
N    5.0910257   -1.5671311   -3.3066964  
C    3.2973506   -0.0000934   -3.8752374  
C    2.7877444    0.7368257   -4.8884434  
O    1.7057652    1.5254555   -4.7725803  
C    3.4025815    0.7316574   -6.2486306  
O    2.8855805    1.4266378   -7.1232349  
C    4.5959743   -0.0936240   -6.5067945  
H    1.5889229    1.9175677   -5.6567458  
H    5.0113657   -0.0697227   -7.5053481  
H    6.8407164   -2.8229592   -3.5505179  
C    3.3321174    0.0004714   -1.3379332  
C    2.6974186    0.0000115   -2.5332308  
C    1.2800441   -0.0002119   -2.2052838  
C    1.2395035    0.0000643   -0.7271293  
N    2.4394063    0.0005458   -0.2131034  
C    0.0000000    0.0000000    0.0000000  
C   -1.1468701    0.0000634   -0.7169542  
O   -2.3742201    0.0000072   -0.1695492  
C   -1.1388767    0.0001606   -2.2096354  
O   -2.2206229    0.0000903   -2.7970413  
C    0.1454526    0.0001815   -2.9324239  
H   -2.9844344    0.0001023   -0.9290168  
H    0.1083580    0.0003680   -4.0135594  
H    4.3940040    0.0007617   -1.1498630  
C    0.8400945    0.7047457    2.2710304  
C    0.0000000    0.0000000    1.4700000  
C   -0.8844236   -0.7423113    2.3369512  
C   -0.4878984   -0.4098547    3.7186280  
N    0.5629682    0.4714286    3.6095011  
C   -1.0836927   -0.9095027    4.8308716  
C   -2.1891196   -1.8367527    4.6554461  
O   -2.7906899   -2.3413415    5.5944904  
C   -2.6257283   -2.2031529    3.2011665  
O   -3.5549479   -2.9829990    3.0410059  
C   -1.9068976   -1.5999348    2.0816745  
H   -0.7774656   -0.6525820    5.8354244  
H   -2.2155208   -1.8586617    1.0779135  
H    1.6384792    1.3747609    1.9961646  
H    1.0518368    0.8833920    4.3830260  
