58

C    2.5229104   -2.1069161   -5.8790361  
C    1.9659599   -1.6422912   -7.0270794  
C    0.8993071   -0.7471218   -6.6452951  
C    0.8803722   -0.7281568   -5.1701439  
N    1.8886141   -1.5732495   -4.7674576  
C    0.0139741    0.0003876   -4.4216236  
C   -0.9653706    0.8204009   -5.1151637  
O   -1.7886285    1.5123013   -4.5305090  
C   -0.9636627    0.8153755   -6.6771425  
O   -1.7837160    1.5015801   -7.2720341  
C    0.0195993   -0.0107214   -7.3732829  
H    2.2677699   -1.8976625   -8.0272351  
H    3.3432283   -2.7944525   -5.7515060  
H    2.1282169   -1.7702568   -3.8130854  
C    0.5774485   -3.2111511  -10.3636818  
C    0.4567313   -2.5053238   -9.2098582  
C    0.2098586   -1.1318029   -9.5804385  
C    0.1965212   -1.0950281  -11.0553139  
N    0.4256887   -2.3871595  -11.4685559  
C   -0.0071253    0.0245839  -11.7947075  
C   -0.2276851    1.2770174  -11.0909319  
O   -0.4203304    2.3397616  -11.6669217  
C   -0.2174874    1.2614800   -9.5290557  
O   -0.4017371    2.3098841   -8.9255967  
C    0.0123494   -0.0076593   -8.8432614  
H    0.5322110   -2.9015988   -8.2129213  
H   -0.0131522    0.0298365  -12.8758393  
H    0.7647227   -4.2639037  -10.4998068  
H    0.4731550   -2.6859715  -12.4253762  
C    3.2798085    0.0005853   -1.4499648  
C    2.5571144    0.0005562   -2.5996554  
C    1.1637436    0.0001546   -2.2210360  
C    1.1336965   -0.0000201   -0.7459470  
N    2.4483513   -0.0001430   -0.3402717  
C    0.0000000    0.0000000    0.0000000  
C   -1.2757367   -0.0000188   -0.6964414  
O   -2.3524597   -0.0000640   -0.1142313  
C   -1.2676494   -0.0000875   -2.2584081  
O   -2.3355762   -0.0004102   -2.8557294  
C    0.0181562    0.0001757   -2.9516296  
H    2.9547357    0.0006072   -3.5989105  
H    4.3498550    0.0008609   -1.3200021  
H    2.7563627    0.0012824    0.6148063  
C    2.5128556    2.1077716    2.9199648  
C    1.9592212    1.6432552    4.0696553  
C    0.8915788    0.7479214    3.6910360  
C    0.8684491    0.7287414    2.2159470  
N    1.8754542    1.5738793    1.8102719  
C    0.0000000    0.0000000    1.4700000  
C   -0.9772830   -0.8200135    2.1664417  
O   -1.8021297   -1.5120829    1.5842315  
C   -0.9711318   -0.8147624    3.7284083  
O   -1.7894187   -1.5009653    4.3257297  
C    0.0140216    0.0115358    4.4216297  
H    2.2638494    1.8988021    5.0689105  
H    0.0117648    0.0094386    5.5031631  
H    3.3327358    2.7953732    2.7900019  
H    2.1123206    1.7707734    0.8551938  
