58

C    7.5541064    0.0021293   -5.2292169  
C    6.8984548    0.0018606   -6.4184169  
C    7.9047069    0.0024853   -7.4539332  
C    9.2096925    0.0031155   -6.7656000  
N    8.9276875    0.0032623   -5.4189885  
C   10.4114862    0.0034113   -7.3959937  
C   10.4202695    0.0033138   -8.8494243  
O   11.4512232    0.0036205   -9.5093006  
C    9.0499207    0.0029022   -9.5990567  
O    9.0447412    0.0031233  -10.8226715  
C    7.8205619    0.0023276   -8.8100517  
H    5.8316621    0.0014723   -6.5546698  
H   11.3573018    0.0037435   -6.8722163  
H    6.8759116    0.0018397   -9.3367006  
H    9.6139856    0.0021068   -4.6868400  
C    7.0021973    0.0016962   -3.8667574  
C    5.7010034    0.0007395   -3.4946387  
C    5.7268785    0.0007366   -2.0400491  
C    7.1642509    0.0016709   -1.6928548  
N    7.9166766    0.0023172   -2.7595521  
C    7.6175803    0.0019949   -0.3291911  
C    6.6777004    0.0018009    0.6434139  
O    6.9577664    0.0020527    1.9577974  
C    5.2193472    0.0012353    0.3250318  
O    4.4197302    0.0009616    1.2608916  
C    4.7795901    0.0008674   -1.0815733  
H    4.8310648    0.0002032   -4.1288958  
H    8.6741765    0.0024744   -0.1044396  
H    6.0879590    0.0018432    2.3966452  
C    3.3321168    0.0004716   -1.3379341  
C    2.6974177    0.0000118   -2.5332316  
C    1.2800432   -0.0002116   -2.2052842  
C    1.2395033    0.0000644   -0.7271298  
N    2.4394059    0.0005460   -0.2131041  
C    0.0000000    0.0000000    0.0000000  
C   -1.1468704    0.0000635   -0.7169542  
O   -2.3742206    0.0000074   -0.1695488  
C   -1.1388774    0.0001608   -2.2096352  
O   -2.2206238    0.0000906   -2.7970409  
C    0.1454514    0.0001818   -2.9324241  
H    3.1367978   -0.0000649   -3.5160956  
H   -2.9844350    0.0001027   -0.9290164  
H    0.1083567    0.0003684   -4.0135594  
C    2.5128556    2.1077716    2.9199648  
C    1.9592212    1.6432552    4.0696553  
C    0.8915788    0.7479214    3.6910360  
C    0.8684491    0.7287414    2.2159470  
N    1.8754542    1.5738793    1.8102719  
C    0.0000000    0.0000000    1.4700000  
C   -0.9772830   -0.8200135    2.1664417  
O   -1.8021297   -1.5120829    1.5842315  
C   -0.9711318   -0.8147624    3.7284083  
O   -1.7894187   -1.5009653    4.3257297  
C    0.0140216    0.0115358    4.4216297  
H    2.2638494    1.8988021    5.0689105  
H    0.0117648    0.0094386    5.5031631  
H    3.3327358    2.7953732    2.7900019  
H    2.1123206    1.7707734    0.8551938  
