62

C   -1.0431249    0.4196812   -0.7919009  
C   -0.6998319    0.2634427   -2.1148551  
C    0.6184642   -0.2806037   -2.1414699  
C    1.0317008   -0.4364422   -0.7935545  
N    0.0000000    0.0000000    0.0000000  
C    2.2836259   -0.9493301   -0.4408234  
C    3.1337624   -1.3117809   -1.4675050  
O    4.3679665   -1.8184544   -1.1793451  
C    2.7397015   -1.1634914   -2.8186313  
O    3.6978189   -1.5688111   -3.7247610  
C    1.5049035   -0.6573333   -3.1673477  
H    2.6046246   -1.0704647    0.5845977  
H    4.7922907   -2.0027236   -2.0274360  
H    3.3523079   -1.4356516   -4.6127329  
H    1.2310468   -0.5551985   -4.2109231  
H   -1.9489777    0.7986165   -0.3505420  
C   -3.4568246    3.6911737   -2.9144241  
C   -2.5572344    2.8256409   -2.3364467  
C   -2.3411156    1.7668091   -3.2674503  
C   -3.1422291    2.0428023   -4.4049790  
N   -3.8081335    3.2173583   -4.1567723  
C   -3.1789038    1.2067701   -5.5250207  
C   -2.3923020    0.0715994   -5.4963346  
O   -2.3899863   -0.7792271   -6.5636217  
C   -1.5865349   -0.2211362   -4.3703403  
O   -0.8611319   -1.3880938   -4.4942146  
C   -1.5500667    0.6030395   -3.2649309  
H   -2.1124379    2.9424203   -1.3630446  
H   -4.4430703    3.6694266   -4.7896000  
H   -3.7874629    1.4114353   -6.3950611  
H   -1.7825568   -1.4963151   -6.3398371  
H   -0.3446495   -1.5117673   -3.6919962  
C   -3.7469665    5.5066420   -1.1656372  
C   -4.4383603    6.6617439   -0.9873420  
C   -5.2252011    6.8697904   -2.1800001  
C   -4.9334695    5.7330433   -3.0741421  
N   -4.0302212    4.9434421   -2.4006721  
C   -5.4818207    5.5614454   -4.3036011  
C   -6.4219161    6.5633132   -4.7779599  
O   -6.9692196    6.4985989   -5.8709258  
C   -6.7454002    7.7756973   -3.8477519  
O   -7.5351414    8.6256710   -4.2364854  
C   -6.0915473    7.8512796   -2.5436756  
H   -4.4012446    7.2958005   -0.1194658  
H   -5.2543939    4.7202640   -4.9436017  
H   -6.3210846    8.6937806   -1.9055292  
H   -3.0541819    5.0195502   -0.4987934  
C    0.0000000    0.0000000    1.4700000  
C    1.0541688    0.0001722    2.3260392  
C    0.5103138    0.0000454    3.6635956  
C   -0.9576371   -0.0002459    3.5155732  
N   -1.2018458    0.0001392    2.1615969  
C   -1.8348311   -0.0008317    4.5510609  
C   -1.2972847   -0.0009736    5.9014604  
O   -2.0050672   -0.0014265    6.9001319  
C    0.2542623   -0.0004184    6.0817573  
O    0.7184670   -0.0002256    7.2139121  
C    1.0974552   -0.0000873    4.8889129  
H    2.0940752    0.0005483    2.0517982  
H   -2.9081052   -0.0011668    4.4207061  
H    2.1707277    0.0000911    5.0223670  
H   -2.1128194   -0.0014912    1.7406791  
