58

C    6.2285351   -3.2354321   -9.0043783  
C    6.5793748   -2.5217585  -10.1051311  
C    6.2012746   -1.1506855   -9.8560655  
C    5.5970918   -1.1238874   -8.5103168  
N    5.6434815   -2.4190166   -8.0483885  
C    5.1118931   -0.0090902   -7.9073959  
C    5.1897440    1.2482401   -8.6323762  
O    4.7801546    2.3072379   -8.1751441  
C    5.8254683    1.2431823  -10.0591325  
O    5.8961805    2.2956736  -10.6792306  
C    6.3139511   -0.0214238  -10.6031994  
H    7.0492329   -2.9113634  -10.9905998  
H    6.7529263   -0.0163477  -11.5916317  
H    6.3479672   -4.2891466   -8.8112137  
H    5.3063044   -2.7238044   -7.1537024  
C    6.1837010   -2.1071894   -4.1730100  
C    6.1473624   -1.6429265   -5.4486332  
C    5.0179318   -0.7478965   -5.5388751  
C    4.3948021   -0.7286186   -4.2016659  
N    5.1487785   -1.5734154   -3.4201754  
C    3.2973506   -0.0000934   -3.8752374  
C    2.6891816    0.8195676   -4.9100425  
O    1.6983689    1.5114228   -4.7152918  
C    3.3322636    0.8142071   -6.3334965  
O    2.8288281    1.5001137   -7.2128968  
C    4.5147646   -0.0118351   -6.5641428  
H    6.8333445   -1.8984502   -6.2365098  
H    6.8793287   -2.7945273   -3.7196245  
H    4.9752873   -1.7701682   -2.4515493  
C    3.3321174    0.0004714   -1.3379332  
C    2.6974186    0.0000115   -2.5332308  
C    1.2800441   -0.0002119   -2.2052838  
C    1.2395035    0.0000643   -0.7271293  
N    2.4394063    0.0005458   -0.2131034  
C    0.0000000    0.0000000    0.0000000  
C   -1.1468701    0.0000634   -0.7169542  
O   -2.3742201    0.0000072   -0.1695492  
C   -1.1388767    0.0001606   -2.2096354  
O   -2.2206229    0.0000903   -2.7970413  
C    0.1454526    0.0001815   -2.9324239  
H   -2.9844344    0.0001023   -0.9290168  
H    0.1083580    0.0003680   -4.0135594  
H    4.3940040    0.0007617   -1.1498630  
C    0.8400945    0.7047457    2.2710304  
C    0.0000000    0.0000000    1.4700000  
C   -0.8844236   -0.7423113    2.3369512  
C   -0.4878984   -0.4098547    3.7186280  
N    0.5629682    0.4714286    3.6095011  
C   -1.0836927   -0.9095027    4.8308716  
C   -2.1891196   -1.8367527    4.6554461  
O   -2.7906899   -2.3413415    5.5944904  
C   -2.6257283   -2.2031529    3.2011665  
O   -3.5549479   -2.9829990    3.0410059  
C   -1.9068976   -1.5999348    2.0816745  
H   -0.7774656   -0.6525820    5.8354244  
H   -2.2155208   -1.8586617    1.0779135  
H    1.6384792    1.3747609    1.9961646  
H    1.0518368    0.8833920    4.3830260  
