58

C    1.4616884   -1.0924713   -9.4550007  
C    1.9441923   -0.7598136  -10.6799917  
C    1.7408410    0.6605892  -10.8410509  
C    1.0957148    1.1315592   -9.6005705  
N    0.9539741    0.0203355   -8.8018333  
C    0.7393513    2.4187634   -9.3601249  
C    1.0089913    3.4061745  -10.3920407  
O    0.7256098    4.5907797  -10.2707682  
C    1.6912435    2.9296772  -11.7138909  
O    1.9229405    3.7518901  -12.5899851  
C    2.0289474    1.5156902  -11.8568920  
H    2.3913471   -1.4326996  -11.3898434  
H    0.2672189    2.7433265   -8.4432498  
H    2.5012992    1.1939285  -12.7750845  
H    1.4340966   -2.0569814   -8.9745327  
C    2.0663728   -2.0930018   -5.1167673  
C    1.0931323   -1.6308353   -4.2901597  
C    0.2706810   -0.7345479   -5.0680273  
C    0.8486737   -0.7122925   -6.4253117  
N    1.9347265   -1.5561046   -6.3884397  
C    0.3570947    0.0175291   -7.4584692  
C   -0.8196660    0.8358892   -7.2175209  
O   -1.3377655    1.5288423   -8.0833674  
C   -1.4481800    0.8277637   -5.7875875  
O   -2.4388901    1.5130258   -5.5727158  
C   -0.8287665    0.0000939   -4.7555305  
H    0.9660022   -1.8882583   -3.2537306  
H    2.8688295   -2.7804818   -4.9038726  
H    2.5375336   -1.7532742   -7.1661248  
C    1.0672569   -0.0000698   -0.8321910  
C    0.0000000    0.0000000    0.0000000  
C   -1.1601223   -0.0000736   -0.8778472  
C   -0.5938729   -0.0000768   -2.2438435  
N    0.7113367   -0.0001553   -2.2234123  
C   -1.4286985   -0.0001877   -3.4135239  
C   -2.7683113   -0.0006798   -3.2270524  
O   -3.6653902   -0.0008302   -4.2276970  
C   -3.3702024   -0.0010610   -1.8610774  
O   -4.5974910   -0.0013779   -1.7662963  
C   -2.4926825   -0.0008943   -0.6770658  
H   -4.5324245   -0.0012258   -3.7833954  
H   -2.9677772   -0.0012974    0.2947961  
H    2.1134391   -0.0000547   -0.5705119  
C    0.0000000    0.0000000    1.4700000  
C    1.0662921    0.0000102    2.3034270  
C    0.4961870   -0.0000064    3.6418889  
C   -0.9663858    0.0000850    3.4240247  
N   -1.2632773    0.0000084    2.1528658  
C   -1.8985362    0.0000517    4.5177257  
C   -1.3925775   -0.0004564    5.7720543  
O   -2.1456383   -0.0005410    6.8851312  
C    0.0786232   -0.0009323    6.0245000  
O    0.4683759   -0.0012588    7.1921102  
C    1.0143166   -0.0008442    4.8859032  
H    2.1107198   -0.0000632    2.0421868  
H   -2.9622183    0.0003270    4.3293377  
H   -1.5042274   -0.0009692    7.6184419  
H    2.0724152   -0.0013148    5.1109744  
