62

C   -3.8806665    2.9507169   -1.4420380  
C   -2.7551687    2.2520642   -1.8129921  
C   -3.1242330    1.4213273   -2.9122050  
C   -4.4988329    1.6581329   -3.1697387  
N   -4.9275639    2.5905122   -2.2578854  
C   -5.2001481    1.0079489   -4.1896439  
C   -4.5010017    0.1024362   -4.9638655  
O   -5.1370356   -0.5602051   -5.9735104  
C   -3.1292000   -0.1476681   -4.7221533  
O   -2.5742540   -1.0763965   -5.5782143  
C   -2.4367654    0.4931902   -3.7159918  
H   -1.7874958    2.3306079   -1.3477688  
H   -5.8580708    2.9635151   -2.2030548  
H   -6.2478696    1.1838981   -4.3909470  
H   -4.4765524   -1.1353450   -6.3812363  
H   -1.6468491   -1.1868844   -5.3473114  
C    0.0000000    0.0000000    0.0000000  
C   -1.0314018    0.2080059   -0.8862340  
C   -0.4818919    0.0978367   -2.1979128  
C    0.9007536   -0.1809191   -2.0478684  
N    1.1604121   -0.2316984   -0.7007913  
C    1.7599370   -0.3539170   -3.1372090  
C    1.2133315   -0.2438022   -4.4010427  
O    2.0071673   -0.4039968   -5.4997578  
C   -0.1638260    0.0342294   -4.5711964  
O   -0.5558753    0.1135601   -5.8915552  
C   -1.0119682    0.2052831   -3.4969890  
H   -2.0538172    0.4149084   -0.6200559  
H    2.0560078   -0.4226628   -0.2891827  
H    2.8146677   -0.5664131   -3.0295513  
H    1.4348034   -0.2883361   -6.2693593  
H   -1.4985831    0.3038405   -5.9180045  
C   -3.0867566    4.3724105    0.5039470  
C   -3.5792565    5.2900690    1.3753951  
C   -4.9741713    5.4729915    1.0504533  
C   -5.2559936    4.5802584   -0.0898948  
N   -4.0707044    3.9416381   -0.3729915  
C   -6.4661896    4.4611341   -0.6923392  
C   -7.5643885    5.2660513   -0.1838087  
O   -8.6920822    5.2301432   -0.6584874  
C   -7.2885570    6.2186015    1.0229927  
O   -8.2053315    6.9013859    1.4595590  
C   -5.9422858    6.2600791    1.5883996  
H   -3.0282124    5.7827546    2.1565645  
H   -6.6517601    3.8001696   -1.5275633  
H   -5.7596266    6.9220714    2.4239389  
H   -2.0877296    3.9747495    0.4284464  
C    0.0000000    0.0000000    1.4700000  
C    1.0662921    0.0000102    2.3034270  
C    0.4961870   -0.0000064    3.6418889  
C   -0.9663858    0.0000850    3.4240247  
N   -1.2632773    0.0000084    2.1528658  
C   -1.8985362    0.0000517    4.5177257  
C   -1.3925775   -0.0004564    5.7720543  
O   -2.1456383   -0.0005410    6.8851312  
C    0.0786232   -0.0009323    6.0245000  
O    0.4683759   -0.0012588    7.1921102  
C    1.0143166   -0.0008442    4.8859032  
H    2.1107198   -0.0000632    2.0421868  
H   -2.9622183    0.0003270    4.3293377  
H   -1.5042274   -0.0009692    7.6184419  
H    2.0724152   -0.0013148    5.1109744  
