60

C    1.1188642    0.0008222   -0.8003805  
C    0.0000000    0.0000000    0.0000000  
C   -1.1323866    0.0008897   -0.8673518  
C   -0.6382672    0.0019680   -2.1969272  
N    0.7324011    0.0038482   -2.1202236  
C   -1.4770927    0.0027318   -3.3154800  
C   -2.8395487    0.0020942   -3.0876842  
O   -3.7039213    0.0024423   -4.1440332  
C   -3.3517874    0.0013925   -1.7684315  
O   -4.7300499    0.0012360   -1.7073101  
C   -2.5248545    0.0009119   -0.6644807  
H    1.3576305   -0.0056165   -2.9057042  
H   -4.5940047    0.0021823   -3.7685113  
H   -4.9934604    0.0007255   -0.7819892  
H   -2.9462581    0.0005600    0.3339675  
H    2.1619887    0.0009357   -0.5342071  
C    0.1166591   -0.7214345   -5.1522985  
C    0.3273789   -0.5035452   -6.4760039  
C   -0.6880539    0.4234400   -6.9169461  
C   -1.5135300    0.7299635   -5.7331290  
N   -0.9736314    0.0040464   -4.6965756  
C   -2.5793583    1.5700283   -5.7355896  
C   -2.9375183    2.2151830   -6.9878006  
O   -3.8806713    2.9883097   -7.0928574  
C   -2.0773346    1.9049439   -8.2541498  
O   -2.3694906    2.4419718   -9.3141059  
C   -0.9520291    0.9822474   -8.1269828  
H    1.1052538   -0.9422812   -7.0751997  
H   -3.1715431    1.7813050   -4.8560506  
H    0.6660022   -1.3511263   -4.4714163  
C    0.8637604   -2.7281771   -9.6864976  
C    0.1933099   -1.8131850   -8.9399322  
C    0.3176448   -0.5443044   -9.6176612  
C    1.1212278   -0.7968769  -10.8289641  
N    1.4207894   -2.1395805  -10.8116705  
C    1.4611349    0.1518910  -11.7378130  
C    1.0052779    1.5126585  -11.5075080  
O    1.2592406    2.4378536  -12.2676512  
C    0.1531711    1.8029943  -10.2310189  
O   -0.2359933    2.9448943  -10.0263832  
C   -0.1491658    0.6977102   -9.3250431  
H   -0.3286104   -2.0051786   -8.0194155  
H    2.0513183   -0.0544525  -12.6198659  
H    0.9979694   -3.7829115   -9.5092592  
H    1.9592321   -2.6185842  -11.5100136  
C    0.8681109    0.7263879    2.2709268  
C    0.6127770    0.5096195    3.5869401  
C   -0.4920590   -0.4175482    3.6542670  
C   -0.8620974   -0.7254003    2.2596025  
N    0.0000000    0.0000000    1.4700000  
C   -1.8641242   -1.5660088    1.8976294  
C   -2.6293522   -2.2103885    2.9520183  
O   -3.5512764   -2.9839180    2.7283916  
C   -2.2549728   -1.8987399    4.4361073  
O   -2.8923672   -2.4351063    5.3323774  
C   -1.1543735   -0.9755647    4.7012123  
H    1.1382914    0.9492124    4.4159191  
H   -2.1192137   -1.7782617    0.8686553  
H   -0.9013378   -0.7652422    5.7314848  
H    1.6172880    1.3558399    1.8188057  
