58

C   -3.9745864    0.7255885   -6.2066918  
C   -5.3149596    0.5084691   -6.2249341  
C   -5.5767436   -0.4180712   -7.3009584  
C   -4.2696347   -0.7251726   -7.9124694  
N   -3.3399630    0.0000194   -7.2034580  
C   -4.0907171   -1.5650506   -8.9633252  
C   -5.2638418   -2.2093803   -9.5300292  
O   -5.2069057   -2.9822798  -10.4774920  
C   -6.6581922   -1.8985192   -8.8983982  
O   -7.6530775   -2.4348506   -9.3672380  
C   -6.7243292   -0.9760958   -7.7676398  
H   -6.0378210    0.9474349   -5.5605587  
H   -3.1231690   -1.7767600   -9.3968466  
H   -7.6935183   -0.7663159   -7.3359122  
H   -3.3970389    1.3547704   -5.5490756  
C    0.0139742    0.0003878   -4.4216236  
C    1.0778908    0.0006076   -5.2580812  
C    0.5039801    0.0007587   -6.5949153  
C   -0.9579669    0.0004851   -6.3728912  
N   -1.2512409    0.0003478   -5.1008931  
C   -1.8932251    0.0005802   -7.4639358  
C   -1.3908370    0.0013214   -8.7196988  
O   -2.1470611    0.0014888   -9.8306290  
C    0.0796395    0.0019852   -8.9763293  
O    0.4660689    0.0025205  -10.1450435  
C    1.0185682    0.0018291   -7.8403984  
H    2.1230574    0.0007509   -4.9998131  
H   -1.5077394    0.0020886  -10.5657605  
H    2.0760226    0.0024414   -8.0684786  
C    3.2798085    0.0005856   -1.4499646  
C    2.5571146    0.0005565   -2.5996553  
C    1.1637435    0.0001548   -2.2210360  
C    1.1336964   -0.0000200   -0.7459470  
N    2.4483515   -0.0001429   -0.3402716  
C    0.0000000    0.0000000    0.0000000  
C   -1.2757368   -0.0000187   -0.6964415  
O   -2.3524594   -0.0000640   -0.1142314  
C   -1.2676495   -0.0000873   -2.2584081  
O   -2.3355761   -0.0004101   -2.8557295  
C    0.0181563    0.0001759   -2.9516296  
H    2.9547358    0.0006075   -3.5989104  
H    4.3498547    0.0008611   -1.3200019  
H    2.7563628    0.0012823    0.6148064  
C    0.8175213    0.6860729    2.3021913  
C    0.0000000    0.0000000    1.4700000  
C   -0.8887526   -0.7456559    2.3478473  
C   -0.4549825   -0.3816753    3.7138435  
N    0.5448156    0.4573574    3.6934124  
C   -1.0945674   -0.9182058    4.8835240  
C   -2.1210866   -1.7789155    4.6970523  
O   -2.8083856   -2.3554314    5.6976972  
C   -2.5824069   -2.1655116    3.3310774  
O   -3.5227682   -2.9541547    3.2362962  
C   -1.9100805   -1.6015804    2.1470656  
H   -0.7567140   -0.6349833    5.8697035  
H   -3.4728268   -2.9124471    5.2533954  
H   -2.2742832   -1.9066565    1.1752040  
H    1.6189533    1.3585343    2.0405121  
