58

C   -4.7161315    0.0019806   -1.6923275  
C   -5.6957059    0.0027954   -0.7518443  
C   -6.9559325    0.0031796   -1.4565888  
C   -6.6279059    0.0024877   -2.8950562  
N   -5.2541433    0.0021768   -2.9703270  
C   -7.5472407    0.0021949   -3.8933189  
C   -8.9536499    0.0028134   -3.5265108  
O   -9.8573540    0.0026741   -4.3521136  
C   -9.3240192    0.0038032   -2.0090688  
O  -10.5048011    0.0046365   -1.6881119  
C   -8.2443350    0.0037592   -1.0251305  
H   -5.5518779    0.0032758    0.3139539  
H   -8.5092033    0.0042424    0.0234721  
H   -4.7240348    0.0001421   -3.8224002  
C   -3.2573657    0.0012846   -1.5109392  
C   -2.5379457    0.0009443   -0.3591970  
C   -1.1435032    0.0003153   -0.7338501  
C   -1.1092595    0.0003463   -2.2088478  
N   -2.4227545    0.0005474   -2.6182617  
C    0.0265547    0.0002444   -2.9515659  
C    1.3003050   -0.0001322   -2.2514972  
O    2.3786795   -0.0003114   -2.8306412  
C    1.2877728   -0.0004235   -0.6895599  
O    2.3539962   -0.0010479   -0.0892025  
C    0.0000000    0.0000000    0.0000000  
H   -2.9384089    0.0009321    0.6389230  
H    0.0296320    0.0003996   -4.0327227  
H   -2.7280465    0.0021721   -3.5742123  
C   -4.4051852   -2.0939524   -6.1802561  
C   -5.2185684   -1.6306638   -5.1964647  
C   -6.1638814   -0.7342408   -5.8190745  
C   -5.8321955   -0.7131283   -7.2565476  
N   -4.7569246   -1.5576645   -7.4096525  
C   -6.4964872    0.0164619   -8.1882767  
C   -7.6124868    0.8357614   -7.7457529  
O   -8.2736471    1.5285931   -8.5080867  
C   -7.9812006    0.8288535   -6.2279229  
O   -8.9186564    1.5149130   -5.8435276  
C   -7.1912937    0.0013269   -5.3195731  
H   -5.1626010   -1.8874293   -4.1536065  
H   -6.2370778    0.0176814   -9.2378560  
H   -3.5782590   -2.7818655   -6.1105494  
H   -4.2995531   -1.7556754   -8.2806574  
C    2.5128556    2.1077716    2.9199648  
C    1.9592212    1.6432552    4.0696553  
C    0.8915788    0.7479214    3.6910360  
C    0.8684491    0.7287414    2.2159470  
N    1.8754542    1.5738793    1.8102719  
C    0.0000000    0.0000000    1.4700000  
C   -0.9772830   -0.8200135    2.1664417  
O   -1.8021297   -1.5120829    1.5842315  
C   -0.9711318   -0.8147624    3.7284083  
O   -1.7894187   -1.5009653    4.3257297  
C    0.0140216    0.0115358    4.4216297  
H    2.2638494    1.8988021    5.0689105  
H    0.0117648    0.0094386    5.5031631  
H    3.3327358    2.7953732    2.7900019  
H    2.1123206    1.7707734    0.8551938  
