58

C    0.8807936   -0.7246964   -5.2251247  
C    0.6214206   -0.5080871   -6.5403741  
C   -0.4848681    0.4175795   -6.6044203  
C   -0.8513575    0.7247245   -5.2086628  
N    0.0139734    0.0003888   -4.4216239  
C   -1.8534974    1.5639103   -4.8437161  
C   -2.6226025    2.2073963   -5.8958280  
O   -3.5449425    2.9796328   -5.6694648  
C   -2.2520214    1.8964737   -7.3810223  
O   -2.8926950    2.4320977   -8.2753961  
C   -1.1509204    0.9748416   -7.6493941  
H    1.1451744   -0.9468419   -7.3709103  
H   -2.1059483    1.7756660   -3.8139887  
H    1.6321137   -1.3531896   -4.7752303  
C    3.2798082    0.0005861   -1.4499653  
C    2.5571141    0.0005572   -2.5996559  
C    1.1637433    0.0001554   -2.2210362  
C    1.1336966   -0.0000198   -0.7459475  
N    2.4483514   -0.0001427   -0.3402724  
C    0.0000000    0.0000000    0.0000000  
C   -1.2757370   -0.0000185   -0.6964413  
O   -2.3524597   -0.0000641   -0.1142310  
C   -1.2676496   -0.0000871   -2.2584082  
O   -2.3355767   -0.0004097   -2.8557289  
C    0.0181556    0.0001766   -2.9516298  
H    2.9547351    0.0006083   -3.5989109  
H    4.3498546    0.0008617   -1.3200028  
H    2.7563630    0.0012823    0.6148051  
C   -0.8105958    0.6896488   -9.0507305  
C    0.1581383   -0.1215158   -9.5483661  
C    0.0702914   -0.0481790  -10.9877206  
C   -1.0369502    0.8788724  -11.2900154  
N   -1.5291921    1.2906703  -10.0730477  
C   -1.4381261    1.2151061  -12.5420969  
C   -0.7324212    0.6243481  -13.6670509  
O   -1.0183557    0.8639743  -14.8328646  
C    0.4432368   -0.3603124  -13.3702721  
O    1.0445832   -0.8641143  -14.3093280  
C    0.7832892   -0.6450199  -11.9784537  
H    0.8546399   -0.7048266   -8.9728254  
H   -2.2527169    1.8972951  -12.7420206  
H    1.5986971   -1.3276893  -11.7814861  
H   -2.2915695    1.9309270   -9.9469565  
C    2.3971438    2.0127888    3.1728260  
C    1.9431056    1.6308205    1.9564670  
C    0.8496017    0.7127664    2.2356185  
C    0.7794028    0.6545384    3.7115134  
N    1.6840587    1.4146091    4.2663826  
C   -0.1885723   -0.1578550    4.3957118  
C   -1.0476298   -0.8789867    3.6398520  
O   -2.0015663   -1.6796266    4.1448486  
C   -1.0022026   -0.8410666    2.1483229  
O   -1.8147390   -1.5232959    1.5241687  
C    0.0000000    0.0000000    1.4700000  
H    2.3054237    1.9346118    0.9892483  
H   -0.2170646   -0.1815267    5.4753125  
H   -2.4487139   -2.0549881    3.3649027  
H    3.2048689    2.6911772    3.3971983  
