60

C    1.1243405    0.0099912   -0.7919011  
C    0.7474067    0.0234534   -2.1148549  
C   -0.6787392    0.0234491   -2.1414699  
C   -1.1201751    0.0098600   -0.7935544  
N    0.0000000    0.0000000    0.0000000  
C   -2.4730819    0.0063728   -0.4408235  
C   -3.3971964    0.0171005   -1.4675046  
O   -4.7313522    0.0146296   -1.1793451  
C   -2.9763662    0.0303526   -2.8186311  
O   -4.0166493    0.0395145   -3.7247609  
C   -1.6418577    0.0335267   -3.1673478  
H    1.4178701    0.0310953   -2.9571214  
H   -2.8160167   -0.0041088    0.5845978  
H   -5.1938829    0.0230908   -2.0274364  
H   -3.6464695    0.0482315   -4.6127330  
H    2.1062461    0.0052800   -0.3505414  
C    1.5731279   -2.0887113   -5.2038816  
C    1.4268543   -1.6686911   -6.4820702  
C    0.2928339   -0.7579339   -6.4501487  
C   -0.1353193   -0.7453028   -5.0348361  
N    0.6115040   -1.5234452   -4.2994868  
C   -1.2456350    0.0471728   -4.5828762  
C   -1.8983059    0.7934183   -5.5029156  
O   -2.9512088    1.5797315   -5.2215851  
C   -1.4900133    0.8021949   -6.9386669  
O   -2.1296486    1.5051417   -7.7209414  
C   -0.3478302   -0.0192593   -7.3774781  
H    2.0158241   -1.9429533   -7.3405402  
H   -3.1965514    1.9803418   -6.0750904  
H    2.3058872   -2.7749763   -4.8100823  
C    0.9698366   -3.0017082  -10.4160952  
C    0.5704348   -2.4556489   -9.2439700  
C    0.3908823   -1.0408160   -9.5312133  
C    0.7349460   -0.9045725  -10.9628704  
N    1.0750308   -2.0507254  -11.4869551  
C    0.6825715    0.3614139  -11.6408243  
C    0.3033293    1.4420988  -10.9213595  
O    0.2103952    2.6844106  -11.4254082  
C   -0.0504670    1.3368403   -9.4750157  
O   -0.3869132    2.3619777   -8.8824638  
C    0.0111349    0.0270769   -8.8022229  
H    0.4165686   -2.9517066   -8.3009287  
H    0.9395947    0.4318895  -12.6876688  
H   -0.0813852    3.2347384  -10.6763039  
H    1.2074457   -4.0334122  -10.6212819  
C    0.8400945    0.7047457    2.2710304  
C    0.0000000    0.0000000    1.4700000  
C   -0.8844236   -0.7423113    2.3369512  
C   -0.4878984   -0.4098547    3.7186280  
N    0.5629682    0.4714286    3.6095011  
C   -1.0836927   -0.9095027    4.8308716  
C   -2.1891196   -1.8367527    4.6554461  
O   -2.7906899   -2.3413415    5.5944904  
C   -2.6257283   -2.2031529    3.2011665  
O   -3.5549479   -2.9829990    3.0410059  
C   -1.9068976   -1.5999348    2.0816745  
H   -0.7774656   -0.6525820    5.8354244  
H   -2.2155208   -1.8586617    1.0779135  
H    1.6384792    1.3747609    1.9961646  
H    1.0518368    0.8833920    4.3830260  
