58

C   -1.6707547   -0.0059435   -3.2725972  
C   -3.0286634   -0.0106125   -3.2608752  
C   -3.4615586   -0.0107290   -4.6383501  
C   -2.2357522   -0.0057382   -5.4594254  
N   -1.1849528   -0.0026160   -4.5713370  
C   -2.2192701   -0.0047389   -6.8164187  
C   -3.4938984   -0.0086271   -7.5148761  
O   -3.5845462   -0.0080291   -8.7355659  
C   -4.8047027   -0.0136881   -6.6654223  
O   -5.8837652   -0.0166830   -7.2423761  
C   -4.6947303   -0.0146046   -5.2087973  
H   -3.6555237   -0.0134483   -2.3870037  
H   -1.3089383   -0.0011811   -7.3996794  
H   -0.2146128   -0.0005084   -4.8272344  
C   -1.0965411   -0.0048466   -0.8010305  
C    0.0000000    0.0000000    0.0000000  
C    1.1546462    0.0048134   -0.8669513  
C    0.6371965    0.0023853   -2.2486285  
N   -0.7342777   -0.0038884   -2.1395013  
C    1.4147610    0.0059424   -3.3608716  
C    2.8575773    0.0123808   -3.1854462  
O    3.6427423    0.0158985   -4.1244910  
C    3.4275516    0.0147974   -1.7311672  
O    4.6406395    0.0199031   -1.5710067  
C    2.4891633    0.0108026   -0.6116745  
H    1.0150358    0.0041988   -4.3654248  
H    2.8918846    0.0127156    0.3920864  
H   -2.1388072   -0.0092547   -0.5261646  
C   -5.8156144    2.0860119   -1.5190319  
C   -7.0811171    1.6169068   -1.3689715  
C   -7.3319976    0.7216490   -2.4736927  
C   -6.1000776    0.7075145   -3.2854586  
N   -5.2200154    1.5552034   -2.6531591  
C   -5.9347124   -0.0196591   -4.4192918  
C   -7.0441692   -0.8431894   -4.8703335  
O   -6.9936313   -1.5342039   -5.8794151  
C   -8.3584421   -0.8433020   -4.0262415  
O   -9.2993666   -1.5324982   -4.3962838  
C   -8.4169969   -0.0182562   -2.8221970  
H   -7.7613046    1.8693675   -0.5751064  
H   -9.3305021   -0.0240748   -2.2432337  
H   -5.2680679    2.7750017   -0.8966366  
H   -4.2878599    1.7556535   -2.9661343  
C    0.0000000    0.0000000    1.4700000  
C    1.0662921    0.0000102    2.3034270  
C    0.4961870   -0.0000064    3.6418889  
C   -0.9663858    0.0000850    3.4240247  
N   -1.2632773    0.0000084    2.1528658  
C   -1.8985362    0.0000517    4.5177257  
C   -1.3925775   -0.0004564    5.7720543  
O   -2.1456383   -0.0005410    6.8851312  
C    0.0786232   -0.0009323    6.0245000  
O    0.4683759   -0.0012588    7.1921102  
C    1.0143166   -0.0008442    4.8859032  
H    2.1107198   -0.0000632    2.0421868  
H   -2.9622183    0.0003270    4.3293377  
H   -1.5042274   -0.0009692    7.6184419  
H    2.0724152   -0.0013148    5.1109744  
