62

C    1.1243411    0.0100026   -0.7919004  
C    0.7474071    0.0234613   -2.1148551  
C   -0.6787384    0.0234422   -2.1414704  
C   -1.1201745    0.0098483   -0.7935555  
N    0.0000000    0.0000000    0.0000000  
C   -2.4730816    0.0063472   -0.4408241  
C   -3.3971960    0.0170656   -1.4675060  
O   -4.7313522    0.0145808   -1.1793467  
C   -2.9763656    0.0303221   -2.8186324  
O   -4.0166481    0.0394731   -3.7247626  
C   -1.6418570    0.0335101   -3.1673484  
H    1.4178713    0.0311102   -2.9571212  
H   -2.8160166   -0.0041379    0.5845965  
H   -5.1938821    0.0230372   -2.0274390  
H   -3.6464680    0.0481939   -4.6127343  
H    2.1062466    0.0053018   -0.3505411  
C   -0.1936758   -0.6738947   -5.1271223  
C   -0.0848703   -0.4442870   -6.4611074  
C   -1.1307898    0.4861841   -6.8148177  
C   -1.8630904    0.7819826   -5.5686117  
N   -1.2456339    0.0471604   -4.5828770  
C   -2.9257077    1.6216592   -5.4820511  
C   -3.3784995    2.2776848   -6.6974298  
O   -4.3266797    3.0513724   -6.7231437  
C   -2.6179146    1.9789096   -8.0286130  
O   -2.9902086    2.5251438   -9.0583151  
C   -1.4864716    1.0555280   -7.9961202  
H    0.6446949   -0.8774561   -7.1219504  
H   -3.4487332    1.8249756   -4.5579212  
H    0.4059922   -1.3093613   -4.4958771  
C    0.1895701   -2.6747805   -9.6797366  
C    0.6763100   -2.1368948  -10.8485950  
C    0.3642918   -0.7451960  -10.8281217  
C   -0.3186465   -0.4896234   -9.6114854  
N   -0.4095003   -1.6829635   -8.9389511  
C   -0.7778009    0.7818322   -9.2546023  
C   -0.5429933    1.8141516  -10.1419342  
O   -0.9696545    3.0757660   -9.8430987  
C    0.1363386    1.5789827  -11.3609594  
O    0.2923753    2.7087471  -12.1372511  
C    0.5893478    0.3248667  -11.7138085  
H    1.1917664   -2.6809112  -11.6214753  
H   -0.8347690   -1.8107552   -8.0385084  
H   -0.7078469    3.6355836  -10.5856122  
H    0.7600646    2.4630698  -12.9413122  
H    1.1064275    0.1752510  -12.6544047  
H    0.2210711   -3.6877114   -9.3165044  
C    0.8400945    0.7047457    2.2710304  
C    0.0000000    0.0000000    1.4700000  
C   -0.8844236   -0.7423113    2.3369512  
C   -0.4878984   -0.4098547    3.7186280  
N    0.5629682    0.4714286    3.6095011  
C   -1.0836927   -0.9095027    4.8308716  
C   -2.1891196   -1.8367527    4.6554461  
O   -2.7906899   -2.3413415    5.5944904  
C   -2.6257283   -2.2031529    3.2011665  
O   -3.5549479   -2.9829990    3.0410059  
C   -1.9068976   -1.5999348    2.0816745  
H   -0.7774656   -0.6525820    5.8354244  
H   -2.2155208   -1.8586617    1.0779135  
H    1.6384792    1.3747609    1.9961646  
H    1.0518368    0.8833920    4.3830260  
