60

C    3.3003547    0.0005275   -1.4738980  
C    2.5232816    0.0003495   -2.6090742  
C    1.1623206   -0.0001320   -2.1820096  
C    1.1711889    0.0000583   -0.7636136  
N    2.4852300   -0.0014920   -0.3662353  
C    0.0000000    0.0000000    0.0000000  
C   -1.2020382    0.0000519   -0.6806479  
O   -2.3759247    0.0003494    0.0157745  
C   -1.2314650   -0.0005113   -2.0955508  
O   -2.5054383   -0.0008037   -2.6250181  
C   -0.0764510   -0.0007273   -2.8495192  
H    2.8919962   -0.0005621   -3.6205295  
H    2.8036265    0.0088181    0.5858667  
H   -3.0835641    0.0000347   -0.6418820  
H   -2.4360047   -0.0011529   -3.5845921  
C    6.5907968    0.0004118   -4.4182867  
C    5.3731496    0.0003983   -3.8171125  
C    5.6071060    0.0003103   -2.3922969  
C    7.0713653    0.0003027   -2.2113673  
N    7.6095207   -0.0000327   -3.4775735  
C    7.6973073    0.0006258   -1.0072490  
C    6.8738985    0.0007804    0.1904707  
O    7.3427981    0.0010092    1.3211495  
C    5.3209696    0.0005394    0.0224896  
O    4.6174382    0.0003600    1.0236411  
C    4.7630506    0.0004754   -1.3275394  
H    4.4198603    0.0002623   -4.3149615  
H    8.7727856    0.0007440   -0.8965445  
H    6.8296430    0.0004925   -5.4694015  
H    8.5911171    0.0014367   -3.6861718  
C    0.6496551   -0.7066351   -5.1591661  
C   -0.1496409   -0.0015614   -4.3176961  
C   -1.0762648    0.7401246   -5.1399522  
C   -0.7489643    0.4069438   -6.5394718  
N    0.3061897   -0.4741192   -6.4823089  
C   -1.3994864    0.9058708   -7.6209511  
C   -2.4949738    1.8330537   -7.3912235  
O   -3.1426423    2.3370192   -8.2994342  
C   -2.8586993    2.2002135   -5.9172141  
O   -3.7789314    2.9800105   -5.7114238  
C   -2.0849138    1.5977389   -4.8345637  
H   -1.1436090    0.6484263   -8.6393610  
H   -2.3432244    1.8569888   -3.8168263  
H    1.4608546   -1.3763740   -4.9240171  
H    0.7560126   -0.8864479   -7.2789846  
C    0.0000000    0.0000000    1.4700000  
C    1.0541688    0.0001722    2.3260392  
C    0.5103138    0.0000454    3.6635956  
C   -0.9576371   -0.0002459    3.5155732  
N   -1.2018458    0.0001392    2.1615969  
C   -1.8348311   -0.0008317    4.5510609  
C   -1.2972847   -0.0009736    5.9014604  
O   -2.0050672   -0.0014265    6.9001319  
C    0.2542623   -0.0004184    6.0817573  
O    0.7184670   -0.0002256    7.2139121  
C    1.0974552   -0.0000873    4.8889129  
H    2.0940752    0.0005483    2.0517982  
H   -2.9081052   -0.0011668    4.4207061  
H    2.1707277    0.0000911    5.0223670  
H   -2.1128194   -0.0014912    1.7406791  
