58

C   -2.8696924   -0.0395364   -4.0185831  
C   -4.1342080   -0.0565049   -4.5133425  
C   -4.0230872   -0.0529172   -5.9529518  
C   -2.5798306   -0.0323489   -6.2585309  
N   -1.9353303   -0.0246619   -5.0430273  
C   -2.0593051   -0.0237095   -7.5117999  
C   -2.9821249   -0.0352261   -8.6346567  
O   -2.6117650   -0.0287057   -9.8013143  
C   -4.5148284   -0.0567871   -8.3343896  
O   -5.3014021   -0.0663191   -9.2716578  
C   -4.9550946   -0.0647543   -6.9415671  
H   -5.0412955   -0.0698131   -3.9357371  
H   -0.9973520   -0.0087296   -7.7141391  
H   -0.9395568   -0.0123987   -4.9192025  
C   -3.2570294   -0.0469108   -1.5109388  
C   -2.5376829   -0.0366067   -0.3591965  
C   -1.1433837   -0.0166038   -0.7338501  
C   -1.1091445   -0.0160661   -2.2088482  
N   -2.4224991   -0.0352992   -2.6182617  
C    0.0265469    0.0006373   -2.9515663  
C    1.3001631    0.0191068   -2.2514981  
O    2.3784223    0.0348830   -2.8306429  
C    1.2876377    0.0186301   -0.6895611  
O    2.3537530    0.0337814   -0.0892041  
C    0.0000000    0.0000000    0.0000000  
H   -2.9381013   -0.0425441    0.6389230  
H    0.0296205    0.0008380   -4.0327235  
H   -4.3265918   -0.0622271   -1.6439453  
C   -7.3909942    2.0052753   -3.9308014  
C   -8.6164211    1.5239654   -4.2635845  
C   -8.4286095    0.6325960   -5.3838630  
C   -6.9829462    0.6340437   -5.6785596  
N   -6.4104599    1.4861240   -4.7625311  
C   -6.3997519   -0.0853397   -6.6705660  
C   -7.2528647   -0.9163303   -7.5037458  
O   -6.8230600   -1.6012800   -8.4226654  
C   -8.7868425   -0.9329448   -7.2097378  
O   -9.5151070   -1.6285375   -7.9047503  
C   -9.2980728   -0.1151199   -6.1126241  
H   -9.5458699    1.7659007   -3.7796363  
H  -10.3613472   -0.1323654   -5.9154590  
H   -7.1217569    2.6957240   -3.1480617  
H   -5.4309385    1.6966897   -4.7055484  
C    0.0000000    0.0000000    1.4700000  
C    1.0662921    0.0000102    2.3034270  
C    0.4961870   -0.0000064    3.6418889  
C   -0.9663858    0.0000850    3.4240247  
N   -1.2632773    0.0000084    2.1528658  
C   -1.8985362    0.0000517    4.5177257  
C   -1.3925775   -0.0004564    5.7720543  
O   -2.1456383   -0.0005410    6.8851312  
C    0.0786232   -0.0009323    6.0245000  
O    0.4683759   -0.0012588    7.1921102  
C    1.0143166   -0.0008442    4.8859032  
H    2.1107198   -0.0000632    2.0421868  
H   -2.9622183    0.0003270    4.3293377  
H   -1.5042274   -0.0009692    7.6184419  
H    2.0724152   -0.0013148    5.1109744  
