58

C    7.7520219   -2.1049232   -3.2898738  
C    9.0134072   -1.6407738   -3.4836452  
C    8.9635851   -0.7464958   -4.6161735  
C    7.5597052   -0.7275353   -5.0695519  
N    6.8772324   -1.5717797   -4.2243464  
C    7.1003450    0.0002888   -6.1188200  
C    8.0521884    0.8194759   -6.8505730  
O    7.7366593    1.5106908   -7.8102415  
C    9.5441163    0.8144400   -6.3880454  
O   10.3546681    1.4999526   -6.9966005  
C    9.9189221   -0.0108382   -5.2424943  
H    9.8799112   -1.8959001   -2.8999549  
H   10.9538647   -0.0085982   -4.9284689  
H    7.3879450   -2.7917706   -2.5431617  
H    5.8946034   -1.7685788   -4.2768603  
C    3.2973507   -0.0000930   -3.8752373  
C    4.6090968    0.0000009   -4.2265165  
C    4.6584752   -0.0001359   -5.6695676  
C    3.2579291   -0.0002893   -6.1335296  
N    2.4824026   -0.0006539   -4.9971104  
C    2.8797130   -0.0000493   -7.4368552  
C    3.9215762    0.0001635   -8.4502935  
O    3.6829951    0.0003259   -9.6508676  
C    5.4116113    0.0000766   -7.9816782  
O    6.2974493   -0.0000527   -8.8258056  
C    5.6945668    0.0000918   -6.5485739  
H    5.4465356   -0.0000332   -3.5517502  
H    1.8466888   -0.0000377   -7.7558720  
H    1.4789639    0.0007238   -4.9846265  
C    3.3321175    0.0004715   -1.3379331  
C    2.6974186    0.0000117   -2.5332308  
C    1.2800441   -0.0002117   -2.2052838  
C    1.2395036    0.0000644   -0.7271292  
N    2.4394065    0.0005460   -0.2131033  
C    0.0000000    0.0000000    0.0000000  
C   -1.1468701    0.0000635   -0.7169542  
O   -2.3742199    0.0000073   -0.1695491  
C   -1.1388766    0.0001607   -2.2096354  
O   -2.2206227    0.0000905   -2.7970412  
C    0.1454526    0.0001817   -2.9324239  
H   -2.9844344    0.0001026   -0.9290168  
H    0.1083579    0.0003683   -4.0135594  
H    4.3940038    0.0007619   -1.1498630  
C    2.5128556    2.1077716    2.9199648  
C    1.9592212    1.6432552    4.0696553  
C    0.8915788    0.7479214    3.6910360  
C    0.8684491    0.7287414    2.2159470  
N    1.8754542    1.5738793    1.8102719  
C    0.0000000    0.0000000    1.4700000  
C   -0.9772830   -0.8200135    2.1664417  
O   -1.8021297   -1.5120829    1.5842315  
C   -0.9711318   -0.8147624    3.7284083  
O   -1.7894187   -1.5009653    4.3257297  
C    0.0140216    0.0115358    4.4216297  
H    2.2638494    1.8988021    5.0689105  
H    0.0117648    0.0094386    5.5031631  
H    3.3327358    2.7953732    2.7900019  
H    2.1123206    1.7707734    0.8551938  
