60

C   -3.3003090   -0.0171687   -1.4738997  
C   -2.5232464   -0.0130727   -2.6090755  
C   -1.1623051   -0.0057288   -2.1820104  
C   -1.1711731   -0.0059637   -0.7636142  
N   -2.4852058   -0.0110393   -0.3662366  
C    0.0000000    0.0000000    0.0000000  
C    1.2020235    0.0060090   -0.6806472  
O    2.3758965    0.0116306    0.0157757  
C    1.2314485    0.0067205   -2.0955503  
O    2.5054043    0.0134367   -2.6250165  
C    0.0764482    0.0011127   -2.8495194  
H   -2.8919602   -0.0140202   -3.6205310  
H   -2.8035463   -0.0229546    0.5858655  
H    3.0835257    0.0155133   -0.6418803  
H    2.4359703    0.0134356   -3.5845910  
H    0.1304025    0.0019997   -3.9319083  
C   -6.5322608   -0.0358339   -4.4466898  
C   -7.6042747   -0.0405540   -3.6131201  
C   -7.0888190   -0.0370711   -2.2643692  
C   -5.6180856   -0.0298542   -2.3813360  
N   -5.3453136   -0.0298416   -3.7298482  
C   -4.7629867   -0.0244920   -1.3275418  
C   -5.3289504   -0.0261503    0.0111956  
O   -4.6424445   -0.0217509    1.0246013  
C   -6.8839412   -0.0340120    0.1586628  
O   -7.3719662   -0.0357787    1.2807542  
C   -7.7017225   -0.0390465   -1.0517345  
H   -8.7775633   -0.0442741   -0.9409923  
H   -6.5094774   -0.0364457   -5.5243587  
H   -4.4256657   -0.0241002   -4.1314209  
C   -9.5896770   -2.1945890   -6.8389239  
C  -10.8747962   -1.7934178   -6.7006893  
C  -10.8632196   -0.8816078   -5.5671248  
C   -9.4508725   -0.8478034   -5.1304109  
N   -8.6995866   -1.6154410   -5.8722272  
C   -9.0174196   -0.0480682   -4.0179237  
C   -9.9523297    0.6848898   -3.3713557  
O   -9.6890443    1.4759071   -2.3173096  
C  -11.3855484    0.6722005   -3.7883477  
O  -12.1819926    1.3638927   -3.1539504  
C  -11.8052334   -0.1563350   -4.9326022  
H  -11.7255291   -2.0806915   -7.2946614  
H  -10.5498485    1.8640063   -2.0774204  
H  -12.8524686   -0.1378944   -5.2031371  
H   -9.1813400   -2.8753986   -7.5688094  
C    2.4951002    2.0940188    2.9809380  
C    1.9440701    1.6314916    1.8291961  
C    0.8759964    0.7350050    2.2038498  
C    0.8497377    0.7130254    3.6788474  
N    1.8560616    1.5571714    4.0882609  
C   -0.0205033   -0.0168748    4.4215661  
C   -0.9962600   -0.8356168    3.7214979  
O   -1.8224391   -1.5286685    4.3006425  
C   -0.9864710   -0.8277881    2.1595606  
O   -1.8030528   -1.5133726    1.5592035  
C    0.0000000    0.0000000    1.4700000  
H    2.2509283    1.8888011    0.8310761  
H   -0.0229599   -0.0187323    5.5027230  
H    3.3143982    2.7817323    3.1139444  
H    2.0889452    1.7545833    5.0442112  
