62

C   -1.0431249    0.4196812   -0.7919009  
C   -0.6998319    0.2634427   -2.1148551  
C    0.6184642   -0.2806037   -2.1414699  
C    1.0317008   -0.4364422   -0.7935545  
N    0.0000000    0.0000000    0.0000000  
C    2.2836259   -0.9493301   -0.4408234  
C    3.1337624   -1.3117809   -1.4675050  
O    4.3679665   -1.8184544   -1.1793451  
C    2.7397015   -1.1634914   -2.8186313  
O    3.6978189   -1.5688111   -3.7247610  
C    1.5049035   -0.6573333   -3.1673477  
H    2.6046246   -1.0704647    0.5845977  
H    4.7922907   -2.0027236   -2.0274360  
H    3.3523079   -1.4356516   -4.6127329  
H    1.2310468   -0.5551985   -4.2109231  
H   -1.9489777    0.7986165   -0.3505420  
C   -3.4568246    3.6911737   -2.9144241  
C   -2.5572344    2.8256409   -2.3364467  
C   -2.3411156    1.7668091   -3.2674503  
C   -3.1422291    2.0428023   -4.4049790  
N   -3.8081335    3.2173583   -4.1567723  
C   -3.1789038    1.2067701   -5.5250207  
C   -2.3923020    0.0715994   -5.4963346  
O   -2.3899863   -0.7792271   -6.5636217  
C   -1.5865349   -0.2211362   -4.3703403  
O   -0.8611319   -1.3880938   -4.4942146  
C   -1.5500667    0.6030395   -3.2649309  
H   -2.1124379    2.9424203   -1.3630446  
H   -4.4430703    3.6694266   -4.7896000  
H   -3.7874629    1.4114353   -6.3950611  
H   -1.7825568   -1.4963151   -6.3398371  
H   -0.3446495   -1.5117673   -3.6919962  
C   -3.7920260    5.5408732   -1.2099084  
C   -4.0302212    4.9434421   -2.4006721  
C   -4.9843021    5.8125416   -3.0721590  
C   -5.2185514    6.9170364   -2.1172752  
N   -4.5223014    6.7632704   -1.0238487  
C   -6.1149133    8.0007682   -2.4124821  
C   -6.7481674    7.9821651   -3.6074625  
O   -7.6113898    8.9284242   -4.0142564  
C   -6.5324299    6.8816111   -4.5925499  
O   -7.1423540    6.9292892   -5.6606975  
C   -5.6080078    5.7811803   -4.2663277  
H   -6.2672826    8.7946990   -1.6959857  
H   -7.8949609    8.6407440   -4.9008112  
H   -5.4791253    5.0031248   -5.0067656  
H   -3.1383262    5.2086137   -0.4191788  
C    2.4951002    2.0940188    2.9809380  
C    1.9440701    1.6314916    1.8291961  
C    0.8759964    0.7350050    2.2038498  
C    0.8497377    0.7130254    3.6788474  
N    1.8560616    1.5571714    4.0882609  
C   -0.0205033   -0.0168748    4.4215661  
C   -0.9962600   -0.8356168    3.7214979  
O   -1.8224391   -1.5286685    4.3006425  
C   -0.9864710   -0.8277881    2.1595606  
O   -1.8030528   -1.5133726    1.5592035  
C    0.0000000    0.0000000    1.4700000  
H    2.2509283    1.8888011    0.8310761  
H   -0.0229599   -0.0187323    5.5027230  
H    3.3143982    2.7817323    3.1139444  
H    2.0889452    1.7545833    5.0442112  
