60

C   -3.3002999   -0.0190264   -1.4738986  
C   -2.5232400   -0.0144931   -2.6090748  
C   -1.1623027   -0.0063832   -2.1820101  
C   -1.1711699   -0.0066231   -0.7636139  
N   -2.4851996   -0.0124381   -0.3662358  
C    0.0000000    0.0000000    0.0000000  
C    1.2020195    0.0066854   -0.6806484  
O    2.3758894    0.0129678    0.0157741  
C    1.2314432    0.0074135   -2.0955511  
O    2.5053945    0.0148466   -2.6250181  
C    0.0764461    0.0011555   -2.8495196  
H   -2.8035333   -0.0245325    0.5858668  
H    3.0835151    0.0172487   -0.6418816  
H    2.4359593    0.0148064   -3.5845924  
H    0.1303994    0.0020727   -3.9319085  
H   -4.3714837   -0.0249924   -1.3667135  
C   -3.0267013   -0.0160703   -3.9901700  
C   -4.3102815   -0.0231540   -4.4333932  
C   -4.2574287   -0.0214464   -5.8763202  
C   -2.8275876   -0.0127540   -6.2400100  
N   -2.1344312   -0.0094480   -5.0515604  
C   -2.3581035   -0.0091773   -7.5133034  
C   -3.3256279   -0.0139997   -8.5979274  
O   -3.0026977   -0.0112691   -9.7786087  
C   -4.8450626   -0.0229654   -8.2359285  
O   -5.6689374   -0.0267780   -9.1406256  
C   -5.2287079   -0.0264235   -6.8264406  
H   -5.1933526   -0.0287353   -3.8195791  
H   -6.2827572   -0.0328405   -6.5842376  
H   -1.1343995   -0.0051502   -4.9681014  
C    0.9678173   -2.1327513   -5.6650117  
C    2.0193155   -1.7185254   -6.4095571  
C    1.4484537   -0.8102290   -7.3922136  
C    0.0016619   -0.7925332   -7.0871487  
N   -0.2860515   -1.5658245   -6.0755997  
C   -0.9264060   -0.0006700   -7.8465754  
C   -0.4315674    0.7401511   -8.8642461  
O   -1.1824369    1.5252547   -9.6553516  
C    1.0236516    0.7437302   -9.1966392  
O    1.4038510    1.4418707  -10.1364629  
C    1.9554374   -0.0769826   -8.4028310  
H    3.0545003   -1.9951057   -6.3048112  
H   -0.5509906    1.9216574  -10.2824824  
H    3.0018492   -0.0467571   -8.6754844  
H    0.9730567   -2.8156561   -4.8303941  
C    0.0000000    0.0000000    1.4700000  
C    1.0541688    0.0001722    2.3260392  
C    0.5103138    0.0000454    3.6635956  
C   -0.9576371   -0.0002459    3.5155732  
N   -1.2018458    0.0001392    2.1615969  
C   -1.8348311   -0.0008317    4.5510609  
C   -1.2972847   -0.0009736    5.9014604  
O   -2.0050672   -0.0014265    6.9001319  
C    0.2542623   -0.0004184    6.0817573  
O    0.7184670   -0.0002256    7.2139121  
C    1.0974552   -0.0000873    4.8889129  
H    2.0940752    0.0005483    2.0517982  
H   -2.9081052   -0.0011668    4.4207061  
H    2.1707277    0.0000911    5.0223670  
H   -2.1128194   -0.0014912    1.7406791  
