58

C   -8.4571978    1.1597255   -2.0233811  
C   -9.7651951    0.8009613   -1.9562542  
C   -9.8252182   -0.6201538   -2.2045779  
C   -8.4350003   -1.0630916   -2.4234194  
N   -7.6547243    0.0633916   -2.3005597  
C   -8.0684206   -2.3425033   -2.6888034  
C   -9.1128259   -3.3505110   -2.7641309  
O   -8.8844349   -4.5301292   -2.9978819  
C  -10.5920856   -2.9038322   -2.5359336  
O  -11.4799828   -3.7435598   -2.5972078  
C  -10.8628647   -1.4957619   -2.2568846  
H  -10.5934770    1.4570111   -1.7558515  
H   -7.0428282   -2.6463951   -2.8460287  
H  -11.8897205   -1.1946962   -2.0998784  
H   -8.0120051    2.1328267   -1.8938949  
C   -4.3137496    2.1424313   -0.2077327  
C   -5.5591243    1.7353215   -0.5466749  
C   -5.3648109    0.8246408   -1.6644416  
C   -3.9011718    0.7979212   -1.8733214  
N   -3.2797688    1.5684041   -1.0223196  
C   -3.2941076    0.0012878   -2.9038237  
C   -4.1120066   -0.7354730   -3.6896733  
O   -3.6822295   -1.5242475   -4.6892565  
C   -5.5930509   -0.7299484   -3.5035596  
O   -6.2763273   -1.4248009   -4.2555796  
C   -6.1916588    0.0955201   -2.4395132  
H   -6.4941452    2.0180139   -0.0940188  
H   -4.4926448   -1.9161851   -5.0617686  
H   -4.0287171    2.8244781    0.5774694  
C    0.0000000    0.0000000    0.0000000  
C    1.0541688   -0.0001723   -0.8560392  
C    0.5103136   -0.0000455   -2.1935956  
C   -0.9576373    0.0002461   -2.0455730  
N   -1.2018460   -0.0001389   -0.6915968  
C   -1.8348314    0.0008319   -3.0810607  
C   -1.2972851    0.0009739   -4.4314603  
O   -2.0050676    0.0014268   -5.4301316  
C    0.2542619    0.0004184   -4.6117572  
O    0.7184666    0.0002257   -5.7439122  
C    1.0974551    0.0000873   -3.4189129  
H    2.0940752   -0.0005484   -0.5817983  
H    2.1707276   -0.0000912   -3.5523673  
H   -2.1128194    0.0014915   -0.2706789  
C    0.0000000    0.0000000    1.4700000  
C    1.0541688    0.0001722    2.3260392  
C    0.5103138    0.0000454    3.6635956  
C   -0.9576371   -0.0002459    3.5155732  
N   -1.2018458    0.0001392    2.1615969  
C   -1.8348311   -0.0008317    4.5510609  
C   -1.2972847   -0.0009736    5.9014604  
O   -2.0050672   -0.0014265    6.9001319  
C    0.2542623   -0.0004184    6.0817573  
O    0.7184670   -0.0002256    7.2139121  
C    1.0974552   -0.0000873    4.8889129  
H    2.0940752    0.0005483    2.0517982  
H   -2.9081052   -0.0011668    4.4207061  
H    2.1707277    0.0000911    5.0223670  
H   -2.1128194   -0.0014912    1.7406791  
