60

C    0.8353407   -0.7266722   -5.2248496  
C    0.5761897   -0.5101812   -6.5401622  
C   -0.5291500    0.4165998   -6.6044784  
C   -0.8953242    0.7245273   -5.2088111  
N   -0.0307359   -0.0004648   -4.4215606  
C   -1.8966041    1.5648462   -4.8441094  
C   -2.6650489    2.2088125   -5.8964093  
O   -3.5865974    2.9820599   -5.6702711  
C   -2.2947869    1.8970770   -7.3815126  
O   -2.9349117    2.4330964   -8.2760428  
C   -1.1946309    0.9742393   -7.6496151  
H    1.0994937   -0.9497145   -7.3705699  
H   -2.1488378    1.7771609   -3.8144438  
H   -0.9444559    0.7638543   -8.6805735  
H    1.5860162   -1.3558034   -4.7747714  
C    3.2573667   -0.0002920   -1.5109386  
C    2.5379466   -0.0001709   -0.3591965  
C    1.1435040    0.0000332   -0.7338503  
C    1.1092604   -0.0000083   -2.2088478  
N    2.4227557    0.0001908   -2.6182616  
C   -0.0265538   -0.0002523   -2.9515663  
C   -1.3003040   -0.0002641   -2.2514979  
O   -2.3786787   -0.0004133   -2.8306426  
C   -1.2877728    0.0000312   -0.6895607  
O   -2.3539959    0.0003306   -0.0892033  
C    0.0000000    0.0000000    0.0000000  
H    2.9384091   -0.0000368    0.6389234  
H    2.7280486   -0.0013408   -3.5742120  
C    5.6506104    0.0006725   -0.6678807  
C    6.9152385    0.0024389   -1.1626410  
C    6.8040785    0.0027747   -2.6022517  
C    5.3606763    0.0010760   -2.9078309  
N    4.7161330   -0.0005435   -1.6923266  
C    4.8400797    0.0012364   -4.1611002  
C    5.7629691    0.0029880   -5.2839568  
O    5.3925540    0.0032086   -6.4506161  
C    7.2958234    0.0045524   -4.9836906  
O    8.0824528    0.0057265   -5.9209599  
C    7.7361581    0.0044960   -3.5908673  
H    7.8224236    0.0032149   -0.5850348  
H    3.7780218    0.0001015   -4.3634395  
H    8.7991583    0.0057897   -3.3914806  
H    5.3226857   -0.0000600    0.3589368  
C    0.0000000    0.0000000    1.4700000  
C    1.0521667    0.0011902    2.3562342  
C    0.4917218    0.0011957    3.6679131  
C   -0.9187428   -0.0003148    3.5178682  
N   -1.1833171    0.0009411    2.1707914  
C   -1.7951701   -0.0010350    4.6072090  
C   -1.2375837   -0.0005224    5.8710424  
O   -2.0474215   -0.0015360    6.9697579  
C    0.1673580    0.0013566    6.0411963  
O    0.5673524    0.0020687    7.3615553  
C    1.0325770    0.0023412    4.9669890  
H    2.0953057    0.0030649    2.0900562  
H   -2.0989778   -0.0102372    1.7591824  
H   -2.8710934   -0.0020419    4.4995513  
H   -1.4634884   -0.0006497    7.7393593  
H    1.5290710    0.0033153    7.3880045  
H    2.1042148    0.0039609    5.1284455  
