58

C    4.4245895   -3.7057062   -6.4911875  
C    5.3732746   -4.5021886   -5.9346914  
C    5.2358144   -4.3828882   -4.5023129  
C    4.1212714   -3.4449105   -4.2682564  
N    3.6731335   -3.0706763   -5.5140544  
C    3.6773584   -3.0689208   -3.0421747  
C    4.3417725   -3.6250139   -1.8751915  
O    4.0158858   -3.3483639   -0.7282111  
C    5.5246624   -4.6201253   -2.0995325  
O    6.0919021   -5.0945333   -1.1246291  
C    5.9121471   -4.9493527   -3.4689549  
H    6.0879322   -5.1043999   -6.4668762  
H    2.8580168   -2.3795965   -2.8924342  
H    6.7319989   -5.6393032   -3.6156991  
H    4.2113346   -3.5290538   -7.5329194  
C    2.5632298   -2.1406387   -5.7671242  
C    2.0732861   -1.7328921   -6.9609742  
C    0.9882146   -0.8221516   -6.6298070  
C    0.9615393   -0.7960978   -5.1515671  
N    1.8825654   -1.5669908   -4.6402708  
C    0.0139741    0.0003876   -4.4216236  
C   -0.8666506    0.7376431   -5.1359692  
O   -1.8054112    1.5263499   -4.5857773  
C   -0.8647112    0.7327957   -6.6286625  
O   -1.6951612    1.4280743   -7.2136077  
C    0.1171797   -0.0925334   -7.3543666  
H    2.4070530   -2.0152026   -7.9448323  
H   -2.2750004    1.9187226   -5.3438555  
H    0.0858053   -0.0683935   -8.4354135  
C    3.2798085    0.0005853   -1.4499648  
C    2.5571144    0.0005562   -2.5996554  
C    1.1637436    0.0001546   -2.2210360  
C    1.1336965   -0.0000201   -0.7459470  
N    2.4483513   -0.0001430   -0.3402717  
C    0.0000000    0.0000000    0.0000000  
C   -1.2757367   -0.0000188   -0.6964414  
O   -2.3524597   -0.0000640   -0.1142313  
C   -1.2676494   -0.0000875   -2.2584081  
O   -2.3355762   -0.0004102   -2.8557294  
C    0.0181562    0.0001757   -2.9516296  
H    2.9547357    0.0006072   -3.5989105  
H    4.3498550    0.0008609   -1.3200021  
H    2.7563627    0.0012824    0.6148063  
C    0.8175213    0.6860729    2.3021913  
C    0.0000000    0.0000000    1.4700000  
C   -0.8887526   -0.7456559    2.3478473  
C   -0.4549825   -0.3816753    3.7138435  
N    0.5448156    0.4573574    3.6934124  
C   -1.0945674   -0.9182058    4.8835240  
C   -2.1210866   -1.7789155    4.6970523  
O   -2.8083856   -2.3554314    5.6976972  
C   -2.5824069   -2.1655116    3.3310774  
O   -3.5227682   -2.9541547    3.2362962  
C   -1.9100805   -1.6015804    2.1470656  
H   -0.7567140   -0.6349833    5.8697035  
H   -3.4728268   -2.9124471    5.2533954  
H   -2.2742832   -1.9066565    1.1752040  
H    1.6189533    1.3585343    2.0405121  
