58

C    3.2798079    0.0005854   -1.4499652  
C    2.5571138    0.0005562   -2.5996556  
C    1.1637429    0.0001546   -2.2210361  
C    1.1336962   -0.0000201   -0.7459474  
N    2.4483511   -0.0001429   -0.3402725  
C    0.0000000    0.0000000    0.0000000  
C   -1.2757372   -0.0000187   -0.6964411  
O   -2.3524601   -0.0000638   -0.1142301  
C   -1.2676502   -0.0000873   -2.2584078  
O   -2.3355772   -0.0004103   -2.8557289  
C    0.0181553    0.0001757   -2.9516294  
H    2.9547344    0.0006073   -3.5989111  
H    4.3498545    0.0008608   -1.3200031  
H    2.7563626    0.0012822    0.6148059  
C    2.5654221   -2.1380213   -5.7671300  
C    2.0750605   -1.7307737   -6.9609784  
C    0.9890563   -0.8211468   -6.6298090  
C    0.9623541   -0.7951243   -5.1515691  
N    1.8841699   -1.5650744   -4.6402746  
C    0.0139728    0.0003876   -4.4216237  
C   -0.8674069    0.7367420   -5.1359671  
O   -1.8069756    1.5244845   -4.5857729  
C   -0.8654624    0.7319005   -6.6286602  
O   -1.6966245    1.4263295   -7.2136036  
C    0.1172739   -0.0924199   -7.3543664  
H    2.4091164   -2.0127392   -7.9448367  
H   -2.2769664    1.9163771   -5.3438499  
H    0.0858748   -0.0683090   -8.4354136  
C    3.6762784   -3.0669212   -5.5140624  
C    4.4455458   -3.7129507   -6.4209542  
C    5.3824300   -4.4949099   -5.6289392  
C    5.0265721   -4.1934085   -4.2257120  
N    4.0270995   -3.3569736   -4.1520895  
C    5.7311340   -4.7801773   -3.1191945  
C    6.7448553   -5.6298342   -3.4016583  
O    7.4874486   -6.2489388   -2.4682209  
C    7.1277280   -5.9544492   -4.8074304  
O    8.0608366   -6.7361579   -4.9903525  
C    6.3897377   -5.3396653   -5.9251669  
H    4.3846773   -3.6648711   -7.4947602  
H    5.4498371   -4.5418242   -2.1038279  
H    8.1252112   -6.7844674   -2.9738103  
H    6.6978999   -5.6007232   -6.9287177  
C    2.4951002    2.0940188    2.9809380  
C    1.9440701    1.6314916    1.8291961  
C    0.8759964    0.7350050    2.2038498  
C    0.8497377    0.7130254    3.6788474  
N    1.8560616    1.5571714    4.0882609  
C   -0.0205033   -0.0168748    4.4215661  
C   -0.9962600   -0.8356168    3.7214979  
O   -1.8224391   -1.5286685    4.3006425  
C   -0.9864710   -0.8277881    2.1595606  
O   -1.8030528   -1.5133726    1.5592035  
C    0.0000000    0.0000000    1.4700000  
H    2.2509283    1.8888011    0.8310761  
H   -0.0229599   -0.0187323    5.5027230  
H    3.3143982    2.7817323    3.1139444  
H    2.0889452    1.7545833    5.0442112  
