58

C    3.2798084    0.0005862   -1.4499658  
C    2.5571139    0.0005570   -2.5996563  
C    1.1637431    0.0001551   -2.2210366  
C    1.1336964   -0.0000200   -0.7459476  
N    2.4483516   -0.0001428   -0.3402732  
C    0.0000000    0.0000000    0.0000000  
C   -1.2757365   -0.0000186   -0.6964421  
O   -2.3524598   -0.0000641   -0.1142305  
C   -1.2676499   -0.0000871   -2.2584082  
O   -2.3355769   -0.0004099   -2.8557292  
C    0.0181555    0.0001763   -2.9516302  
H    0.0150785    0.0003324   -4.0331637  
H    4.3498546    0.0008614   -1.3200035  
H    2.7563629    0.0012823    0.6148051  
C    4.2042261   -0.7245765   -4.3883895  
C    4.4532739   -0.5080827   -5.7056520  
C    3.4504637    0.4176292   -6.1771013  
C    2.5906250    0.7249264   -5.0182069  
N    3.1006048    0.0006269   -3.9654959  
C    1.5247253    1.5641944   -5.0527259  
C    1.2027488    2.2076137   -6.3156107  
O    0.2625089    2.9799151   -6.4490279  
C    2.0996876    1.8965300   -7.5559862  
O    1.8381613    2.4320973   -8.6246455  
C    3.2214639    0.9748209   -7.3949823  
H    5.2485895   -0.9469420   -6.2814026  
H    0.9070130    1.7760616   -4.1910687  
H    4.7339421   -1.3530607   -3.6910382  
C    5.0516688   -2.7456508   -8.8412795  
C    5.6702123   -2.2738998   -9.9543518  
C    5.3836705   -0.8606508  -10.0282218  
C    4.5414727   -0.5454600   -8.8585431  
N    4.3766970   -1.7308784   -8.1799256  
C    4.0590989    0.6894766   -8.5687990  
C    4.3914115    1.7810036   -9.4691725  
O    4.0051661    2.9293599   -9.2948366  
C    5.2818037    1.4700173  -10.7142810  
O    5.5678961    2.3809005  -11.4795937  
C    5.7420584    0.0991060  -10.9207253  
H    6.2597592   -2.8502003  -10.6449512  
H    6.3583097   -0.1078435  -11.7850922  
H    5.0319553   -3.7493013   -8.4486129  
H    3.8492207   -1.8413862   -7.3334009  
C    0.8400945    0.7047457    2.2710304  
C    0.0000000    0.0000000    1.4700000  
C   -0.8844236   -0.7423113    2.3369512  
C   -0.4878984   -0.4098547    3.7186280  
N    0.5629682    0.4714286    3.6095011  
C   -1.0836927   -0.9095027    4.8308716  
C   -2.1891196   -1.8367527    4.6554461  
O   -2.7906899   -2.3413415    5.5944904  
C   -2.6257283   -2.2031529    3.2011665  
O   -3.5549479   -2.9829990    3.0410059  
C   -1.9068976   -1.5999348    2.0816745  
H   -0.7774656   -0.6525820    5.8354244  
H   -2.2155208   -1.8586617    1.0779135  
H    1.6384792    1.3747609    1.9961646  
H    1.0518368    0.8833920    4.3830260  
