64

C   -4.4706939    2.1246866   -0.3281851  
C   -5.6599768    1.6264304   -0.8075738  
C   -5.3396884    0.7516505   -1.8877474  
C   -3.9276469    0.7558732   -2.0220870  
N   -3.4313251    1.6012783   -1.0610604  
C   -3.2578655    0.0024282   -2.9908505  
C   -4.0275338   -0.7695742   -3.8392613  
O   -3.4247952   -1.5249624   -4.8031637  
C   -5.4377033   -0.7867283   -3.7211785  
O   -6.0624940   -1.6048442   -4.6396918  
C   -6.0991482   -0.0434781   -2.7658792  
H   -2.4588253    1.7971332   -0.9065741  
H   -4.1336024   -1.9789337   -5.2772594  
H   -7.0119842   -1.5590476   -4.4914521  
H   -7.1803457   -0.0766721   -2.6996332  
H   -4.2816954    2.8131213    0.4776039  
C   -7.4222154    5.4290843    0.6042399  
C   -8.6684807    4.9390287    0.9190989  
C   -8.6568359    3.5454167    0.6152723  
C   -7.3656041    3.2394355    0.1142540  
N   -6.6417858    4.4059181    0.1190513  
C   -6.9955847    1.9522773   -0.2871163  
C   -7.9462818    0.9557920   -0.1804889  
O   -7.6379462   -0.3191187   -0.5580407  
C   -9.2401418    1.2414496    0.3166480  
O  -10.0734727    0.1428592    0.3613864  
C   -9.6059534    2.5110860    0.7125398  
H   -9.4858238    5.5153532    1.3175884  
H   -5.6854813    4.4967254   -0.1728685  
H   -8.4311960   -0.8487212   -0.4046126  
H  -10.9262351    0.4219078    0.7085662  
H  -10.6044967    2.6996331    1.0891585  
H   -7.0287184    6.4277979    0.6860316  
C    0.0000000    0.0000000    0.0000000  
C    1.0521666   -0.0011982   -0.8862343  
C    0.4917215   -0.0011996   -2.1979132  
C   -0.9187429    0.0003215   -2.0478682  
N   -1.1833171   -0.0009323   -0.7007913  
C   -1.7951703    0.0010483   -3.1372089  
C   -1.2375841    0.0005313   -4.4010422  
O   -2.0474218    0.0015510   -5.4997578  
C    0.1673576   -0.0013585   -4.5711963  
O    0.5673520   -0.0020735   -5.8915554  
C    1.0325768   -0.0023493   -3.4969892  
H    2.0953056   -0.0030808   -0.6200564  
H   -2.0989778    0.0102529   -0.2891822  
H   -1.4634888    0.0006601   -6.2693595  
H    1.5290707   -0.0033271   -5.9180047  
H    2.1042146   -0.0039770   -3.6584456  
C    1.1319247   -0.0015655    2.2709268  
C    0.7969915   -0.0034943    3.5869401  
C   -0.6453339   -0.0035710    3.6542670  
C   -1.1266833   -0.0015433    2.2596025  
N    0.0000000    0.0000000    1.4700000  
C   -2.4346130   -0.0013964    1.8976294  
C   -3.4350110   -0.0031408    2.9520183  
O   -4.6384611   -0.0030974    2.7283916  
C   -2.9478959   -0.0050506    4.4361073  
O   -3.7809380   -0.0062218    5.3323774  
C   -1.5113823   -0.0053090    4.7012123  
H    1.4821238   -0.0045407    4.4159191  
H   -2.7664565   -0.0000232    0.8686553  
H   -1.1823530   -0.0068408    5.7314848  
H    2.1104316   -0.0009391    1.8188057  
