60

C    3.3041277    0.0001176   -1.5420422  
C    2.5845371   -0.0004780   -0.3695846  
C    1.2040006   -0.0000008   -0.7283586  
C    1.1422384    0.0006037   -2.1454371  
N    2.4348644    0.0026109   -2.6077459  
C   -0.0655172    0.0008798   -2.8497916  
C   -1.2321763    0.0002325   -2.1101401  
O   -2.4392807    0.0001147   -2.7472523  
C   -1.1911213   -0.0000008   -0.6955266  
O   -2.4371520   -0.0002319   -0.1032867  
C    0.0000000    0.0000000    0.0000000  
H    3.0031534   -0.0000661    0.6222589  
H    2.7054633   -0.0071100   -3.5745256  
H   -0.1193541    0.0014843   -3.9297470  
H   -3.1132989   -0.0000648   -2.0551790  
H   -2.3200289   -0.0004070    0.8516405  
C    6.6801369   -0.0033359    1.2661402  
C    7.7093287   -0.0019930    0.3802296  
C    7.1273480   -0.0004471   -0.9411831  
C    5.6642442   -0.0009742   -0.7511341  
N    5.4589562   -0.0031398    0.6092857  
C    4.7577224    0.0005128   -1.7610450  
C    5.2563301    0.0025578   -3.1262999  
O    4.5202056    0.0039396   -4.1042669  
C    6.8020700    0.0028971   -3.3510072  
O    7.2336242    0.0043058   -4.4960050  
C    7.6791169    0.0014555   -2.1828292  
H    8.7566703   -0.0022582    0.6245425  
H    6.7110416   -0.0046692    2.3436059  
H    4.5604253   -0.0024244    1.0561502  
C   10.8424596   -2.1423434   -0.0888170  
C   11.9499740   -1.7335559   -0.7505445  
C   11.4608043   -0.8213094   -1.7728063  
C    9.9950863   -0.7956134   -1.5789149  
N    9.6267480   -1.5679979   -0.5931469  
C    9.1320829    0.0020687   -2.4059662  
C    9.7072249    0.7408106   -3.3820843  
O    9.0232783    1.5307492   -4.2272200  
C   11.1835484    0.7363613   -3.6025571  
O   11.6382118    1.4330179   -4.5098455  
C   12.0474760   -0.0902163   -2.7409749  
H   12.9725900   -2.0160926   -0.5675012  
H    9.7029182    1.9240156   -4.8039212  
H   13.1117835   -0.0657397   -2.9330192  
H   10.7802141   -2.8258784    0.7429757  
C    2.5128556    2.1077716    2.9199648  
C    1.9592212    1.6432552    4.0696553  
C    0.8915788    0.7479214    3.6910360  
C    0.8684491    0.7287414    2.2159470  
N    1.8754542    1.5738793    1.8102719  
C    0.0000000    0.0000000    1.4700000  
C   -0.9772830   -0.8200135    2.1664417  
O   -1.8021297   -1.5120829    1.5842315  
C   -0.9711318   -0.8147624    3.7284083  
O   -1.7894187   -1.5009653    4.3257297  
C    0.0140216    0.0115358    4.4216297  
H    2.2638494    1.8988021    5.0689105  
H    0.0117648    0.0094386    5.5031631  
H    3.3327358    2.7953732    2.7900019  
H    2.1123206    1.7707734    0.8551938  
