58

C    3.2573674   -0.0002918   -1.5109377  
C    2.5379467   -0.0001707   -0.3591955  
C    1.1435041    0.0000334   -0.7338492  
C    1.1092607   -0.0000078   -2.2088471  
N    2.4227563    0.0001914   -2.6182602  
C   -0.0265529   -0.0002519   -2.9515657  
C   -1.3003036   -0.0002636   -2.2514976  
O   -2.3786783   -0.0004128   -2.8306423  
C   -1.2877729    0.0000314   -0.6895603  
O   -2.3539953    0.0003307   -0.0892034  
C    0.0000000    0.0000000    0.0000000  
H    2.9384089   -0.0000366    0.6389244  
H   -0.0296290   -0.0004080   -4.0327227  
H    4.3270394   -0.0004764   -1.6439434  
C    5.6729071   -2.0145375   -4.9077641  
C    4.8700832   -1.6312625   -3.8878850  
C    3.9127041   -0.7149582   -4.4881447  
C    4.2947940   -0.6590675   -5.9155434  
N    5.3258964   -1.4188900   -6.1675113  
C    3.5802908    0.1511099   -6.8632691  
C    2.5315064    0.8723550   -6.4058944  
O    1.7758673    1.6710695   -7.1786208  
C    2.1210488    0.8367662   -4.9711754  
O    1.1566751    1.5189644   -4.6250402  
C    2.8699643   -0.0020520   -4.0185819  
H    4.9211863   -1.9331395   -2.8557345  
H    1.1123787    2.0470800   -6.5723600  
H    6.5110723   -2.6922906   -4.8745382  
C    4.4075749   -0.8526193   -9.0420876  
C    3.9902788    0.1810336   -8.2746208  
C    4.0336628    1.3408860   -9.1517529  
C    4.5129338    0.8112901  -10.4465162  
N    4.7337276   -0.4739554  -10.3883465  
C    4.6941426    1.6568625  -11.5942345  
C    4.4091322    2.9716623  -11.4549308  
O    4.5323527    3.8750673  -12.4422079  
C    3.9233169    3.5362761  -10.1613480  
O    3.6835425    4.7424036  -10.1067088  
C    3.7455748    2.6483944   -8.9985933  
H    5.0459146    1.2429995  -12.5279814  
H    4.2575566    4.7194409  -12.0413675  
H    3.3916687    3.0962117   -8.0796589  
H    4.5162091   -1.8877795   -8.7599251  
C    2.4951002    2.0940188    2.9809380  
C    1.9440701    1.6314916    1.8291961  
C    0.8759964    0.7350050    2.2038498  
C    0.8497377    0.7130254    3.6788474  
N    1.8560616    1.5571714    4.0882609  
C   -0.0205033   -0.0168748    4.4215661  
C   -0.9962600   -0.8356168    3.7214979  
O   -1.8224391   -1.5286685    4.3006425  
C   -0.9864710   -0.8277881    2.1595606  
O   -1.8030528   -1.5133726    1.5592035  
C    0.0000000    0.0000000    1.4700000  
H    2.2509283    1.8888011    0.8310761  
H   -0.0229599   -0.0187323    5.5027230  
H    3.3143982    2.7817323    3.1139444  
H    2.0889452    1.7545833    5.0442112  
