58

C    1.2548674   -1.1209762   -9.5043072  
C    1.6858380   -0.7883018  -10.7483597  
C    1.4746843    0.6318625  -10.9012755  
C    0.8811402    1.1026746   -9.6352448  
N    0.7736688   -0.0084044   -8.8309793  
C    0.5338825    2.3896393   -9.3806134  
C    0.7595839    3.3769410  -10.4231251  
O    0.4803954    4.5613322  -10.2905611  
C    1.3868513    2.9006075  -11.7719928  
O    1.5812569    3.7227302  -12.6571939  
C    1.7196234    1.4868766  -11.9284520  
H    2.1037769   -1.4610269  -11.4759458  
H    0.0998932    2.7140901   -8.4450411  
H    2.1537746    1.1652270  -12.8653501  
H    1.2481106   -2.0853470   -9.0228166  
C    1.9999918   -2.1070890   -5.1447766  
C    1.9105667   -1.6426495   -6.4177158  
C    0.7784254   -0.7475272   -6.4606980  
C    0.2115582   -0.7283877   -5.0986826  
N    0.9973786   -1.5733444   -4.3494008  
C   -0.8712826    0.0001710   -4.7267111  
C   -1.5219797    0.8200163   -5.7351666  
O   -2.5037637    1.5119151   -5.4992068  
C   -0.9387700    0.8148045   -7.1841813  
O   -1.4783591    1.5008668   -8.0417488  
C    0.2330300   -0.0112902   -7.4640108  
H    2.5631036   -1.8981143   -7.2335262  
H    2.7138547   -2.7945382   -4.7208625  
H    0.8643846   -1.7702172   -3.3744130  
C    1.0965514    0.0001359   -0.8010305  
C    0.0000000    0.0000000    0.0000000  
C   -1.1546563    0.0001470   -0.8669513  
C   -0.6372014    0.0003519   -2.2486282  
N    0.7342871    0.0007337   -2.1395014  
C   -1.4147739    0.0001352   -3.3608717  
C   -2.8576049   -0.0001048   -3.1854462  
O   -3.6427779   -0.0002494   -4.1244907  
C   -3.4275840   -0.0000725   -1.7311666  
O   -4.6406831    0.0000333   -1.5710060  
C   -2.4891867   -0.0001091   -0.6116744  
H   -2.8919122   -0.0002918    0.3920866  
H    2.1388272    0.0000663   -0.5261648  
H    1.3735872   -0.0006099   -2.9130262  
C    0.0000000    0.0000000    1.4700000  
C    1.0662921    0.0000102    2.3034270  
C    0.4961870   -0.0000064    3.6418889  
C   -0.9663858    0.0000850    3.4240247  
N   -1.2632773    0.0000084    2.1528658  
C   -1.8985362    0.0000517    4.5177257  
C   -1.3925775   -0.0004564    5.7720543  
O   -2.1456383   -0.0005410    6.8851312  
C    0.0786232   -0.0009323    6.0245000  
O    0.4683759   -0.0012588    7.1921102  
C    1.0143166   -0.0008442    4.8859032  
H    2.1107198   -0.0000632    2.0421868  
H   -2.9622183    0.0003270    4.3293377  
H   -1.5042274   -0.0009692    7.6184419  
H    2.0724152   -0.0013148    5.1109744  
