58

C    9.1280325    0.0025290   -0.2802105  
C   10.1573203    0.0027260   -1.1660111  
C   11.3773423    0.0033236   -0.3937530  
C   10.9715468    0.0034305    1.0247394  
N    9.5957234    0.0033309    1.0251647  
C   11.8352132    0.0035481    2.0715364  
C   13.2594940    0.0037975    1.7817814  
O   14.1169468    0.0039799    2.6553241  
C   13.7118666    0.0039418    0.2867345  
O   14.9083605    0.0044584    0.0304886  
C   12.6873081    0.0035148   -0.7544822  
H   10.0716862    0.0026631   -2.2380559  
H   11.5167416    0.0034949    3.1047286  
H   13.0088298    0.0034126   -1.7871232  
H    9.0200461    0.0018112    1.8471384  
C    6.8354432    0.0008785   -4.0255230  
C    5.5758875    0.0005992   -3.5179857  
C    5.7016160    0.0007904   -2.0795742  
C    7.1480383    0.0012361   -1.7886230  
N    7.7802455    0.0008700   -3.0105904  
C    7.6812949    0.0019200   -0.5406881  
C    6.7698185    0.0020121    0.5914543  
O    7.1520251    0.0025450    1.7543039  
C    5.2340026    0.0012938    0.3067213  
O    4.4569011    0.0010578    1.2519060  
C    4.7795901    0.0008674   -1.0815733  
H    4.6629017    0.0001118   -4.0863788  
H    7.1529573    0.0008729   -5.0556079  
H    8.7747878    0.0025944   -3.1444924  
C    3.3321168    0.0004716   -1.3379341  
C    2.6974177    0.0000118   -2.5332316  
C    1.2800432   -0.0002116   -2.2052842  
C    1.2395033    0.0000644   -0.7271298  
N    2.4394059    0.0005460   -0.2131041  
C    0.0000000    0.0000000    0.0000000  
C   -1.1468704    0.0000635   -0.7169542  
O   -2.3742206    0.0000074   -0.1695488  
C   -1.1388774    0.0001608   -2.2096352  
O   -2.2206238    0.0000906   -2.7970409  
C    0.1454514    0.0001818   -2.9324241  
H    3.1367978   -0.0000649   -3.5160956  
H   -2.9844350    0.0001027   -0.9290164  
H    0.1083567    0.0003684   -4.0135594  
C    2.5528530    2.1414826    2.8079335  
C    2.0663498    1.7338582    4.0032312  
C    0.9804344    0.8229586    3.6752840  
C    0.9495562    0.7966882    2.1971295  
N    1.8690446    1.5676019    1.6831036  
C    0.0000000    0.0000000    1.4700000  
C   -0.8785127   -0.7372425    2.1869543  
O   -1.8187535   -1.5261249    1.6395491  
C   -0.8723269   -0.7321790    3.6796354  
O   -1.7010379   -1.4274584    4.2670412  
C    0.1115397    0.0933559    4.4024240  
H    2.4028853    2.0163452    4.9860947  
H   -2.2861435   -1.9184361    2.3990168  
H    0.0832434    0.0693689    5.4835595  
H    3.3664920    2.8238276    2.6198634  
