58

C    4.0593873    0.6998872   -7.3354700  
C    5.1219871   -0.1122579   -7.1001475  
C    5.9743553   -0.0379615   -8.2632399  
C    5.3165330    0.8907214   -9.2021795  
N    4.1604384    1.3024520   -8.5802362  
C    5.8083939    1.2282164  -10.4211440  
C    7.0697489    0.6371910  -10.8361242  
O    7.5950489    0.8778770  -11.9152116  
C    7.7836800   -0.3491874   -9.8577763  
O    8.8460195   -0.8532286  -10.1963618  
C    7.1555358   -0.6351579   -8.5703352  
H    5.2894867   -0.6968209   -6.2131058  
H    5.3100746    1.9115928  -11.0946305  
H    7.6563709   -1.3190137   -7.8985993  
H    3.4938964    1.9436364   -8.9696617  
C    2.9127944   -0.7214799   -3.3153362  
C    3.5543783   -0.5031937   -4.4921099  
C    2.7457300    0.4250582   -5.2466113  
C    1.5720421    0.7318925   -4.4069087  
N    1.7334695    0.0049281   -3.2500363  
C    0.5691433    1.5730721   -4.7651200  
C    0.6510614    2.2191847   -6.0644901  
O   -0.2019642    2.9933461   -6.4784007  
C    1.8850636    1.9086368   -6.9703616  
O    1.9647773    2.4464641   -8.0665589  
C    2.9022258    0.9847052   -6.4747973  
H    4.4875220   -0.9424634   -4.7969035  
H   -0.2829827    1.7845577   -4.1341955  
H    3.2021859   -1.3520631   -2.4904075  
C    1.1319246    0.0015678   -0.8009268  
C    0.7969914    0.0034958   -2.1169401  
C   -0.6453340    0.0035696   -2.1842669  
C   -1.1266832    0.0015410   -0.7896025  
N    0.0000000    0.0000000    0.0000000  
C   -2.4346129    0.0013913   -0.4276292  
C   -3.4350111    0.0031335   -1.4820181  
O   -4.6384614    0.0030875   -1.2583914  
C   -2.9478961    0.0050442   -2.9661074  
O   -3.7809382    0.0062135   -3.8623773  
C   -1.5113825    0.0053055   -3.2312122  
H   -2.7664565    0.0000174    0.6013448  
H   -1.1823533    0.0068381   -4.2614848  
H    2.1104316    0.0009435   -0.3488059  
C    2.3971438    2.0127888    3.1728260  
C    1.9431056    1.6308205    1.9564670  
C    0.8496017    0.7127664    2.2356185  
C    0.7794028    0.6545384    3.7115134  
N    1.6840587    1.4146091    4.2663826  
C   -0.1885723   -0.1578550    4.3957118  
C   -1.0476298   -0.8789867    3.6398520  
O   -2.0015663   -1.6796266    4.1448486  
C   -1.0022026   -0.8410666    2.1483229  
O   -1.8147390   -1.5232959    1.5241687  
C    0.0000000    0.0000000    1.4700000  
H    2.3054237    1.9346118    0.9892483  
H   -0.2170646   -0.1815267    5.4753125  
H   -2.4487139   -2.0549881    3.3649027  
H    3.2048689    2.6911772    3.3971983  
