58

C   -7.0265675    5.5903866    0.9594541  
C   -8.2604699    5.2117428    1.3815773  
C   -8.3856420    3.8003262    1.1039605  
C   -7.1143934    3.3847431    0.4810587  
N   -6.3339045    4.5162078    0.4217766  
C   -6.8358060    2.1213110    0.0713837  
C   -7.8561996    1.1028730    0.2560878  
O   -7.7012833   -0.0639016   -0.0799759  
C   -9.2101444    1.5206411    0.9134367  
O  -10.0768799    0.6719269    1.0737998  
C   -9.3932893    2.9134038    1.3140875  
H   -8.9987820    5.8485386    1.8354496  
H  -10.3335355    3.1944607    1.7686964  
H   -6.5650569    6.5638245    0.9957289  
H   -5.4035696    4.5551673    0.0476020  
C   -4.3137496    2.1424315   -0.2077329  
C   -5.5591243    1.7353215   -0.5466749  
C   -5.3648109    0.8246407   -1.6644417  
C   -3.9011714    0.7979211   -1.8733216  
N   -3.2797688    1.5684041   -1.0223196  
C   -3.2941076    0.0012878   -2.9038237  
C   -4.1120063   -0.7354730   -3.6896733  
O   -3.6822295   -1.5242473   -4.6892567  
C   -5.5930505   -0.7299484   -3.5035597  
O   -6.2763268   -1.4248007   -4.2555798  
C   -6.1916584    0.0955202   -2.4395134  
H   -4.4926444   -1.9161852   -5.0617692  
H   -7.2683270    0.0718767   -2.3372576  
H   -4.0287171    2.8244781    0.5774694  
C    0.0000000    0.0000000    0.0000000  
C    1.0541688   -0.0001723   -0.8560392  
C    0.5103136   -0.0000455   -2.1935956  
C   -0.9576373    0.0002461   -2.0455730  
N   -1.2018460   -0.0001389   -0.6915968  
C   -1.8348314    0.0008319   -3.0810607  
C   -1.2972851    0.0009739   -4.4314603  
O   -2.0050676    0.0014268   -5.4301316  
C    0.2542619    0.0004184   -4.6117572  
O    0.7184666    0.0002257   -5.7439122  
C    1.0974551    0.0000873   -3.4189129  
H    2.0940752   -0.0005484   -0.5817983  
H    2.1707276   -0.0000912   -3.5523673  
H   -2.1128194    0.0014915   -0.2706789  
C    3.1301144    0.0010313    3.1728260  
C    2.5367765    0.0002768    1.9564670  
C    1.1089900   -0.0001027    2.2356185  
C    1.0177864    0.0004150    3.7115134  
N    2.1993570    0.0011613    4.2663826  
C   -0.2459220    0.0002880    4.3957118  
C   -1.3675327    0.0000606    3.6398520  
O   -2.6129319   -0.0000866    4.1448486  
C   -1.3083589   -0.0000910    2.1483229  
O   -2.3693264   -0.0004206    1.5241687  
C    0.0000000    0.0000000    1.4700000  
H    3.0096015    0.0001008    0.9892483  
H   -0.2829642    0.0004689    5.4753125  
H   -3.1967446   -0.0002093    3.3649027  
H    4.1849273    0.0015113    3.3971983  
