58

C    5.9614381   -1.0758320   -2.7349881  
C    6.0779061   -1.9497744   -1.7021595  
C    7.4855827   -2.2296579   -1.5442101  
C    8.1846819   -1.4414613   -2.5770684  
N    7.2042913   -0.7646502   -3.2652910  
C    9.5296761   -1.4317963   -2.7576350  
C   10.3430003   -2.2526343   -1.8760092  
O   11.5628392   -2.3118698   -1.9583667  
C    9.6237386   -3.0956997   -0.7752331  
O   10.2980220   -3.7908212   -0.0272955  
C    8.1679744   -3.0236942   -0.6781934  
H    5.2699035   -2.3525561   -1.1177701  
H   10.0225678   -0.8463327   -3.5213105  
H    7.6776528   -3.6103098    0.0867842  
H    7.3667931   -0.1392477   -4.0330881  
C    3.4546603   -0.7051940   -2.8655879  
C    2.5562217   -0.0001543   -3.6003001  
C    3.3075547    0.7421852   -4.5848134  
C    4.7275388    0.4094246   -4.3618646  
N    4.7487504   -0.4720438   -3.3057141  
C    5.7578594    0.9090042   -5.0902631  
C    5.4475466    1.8364965   -6.1654369  
O    6.3052794    2.3410470   -6.8781951  
C    3.9505747    2.2032205   -6.4191988  
O    3.6771248    2.9832721   -7.3214207  
C    2.9282234    1.6000481   -5.5678275  
H    6.7924734    0.6518591   -4.9103749  
H    1.8941001    1.8589998   -5.7501908  
H    3.2802846   -1.3753179   -2.0395029  
C    0.0000000    0.0000000    0.0000000  
C    1.0541688   -0.0001719   -0.8560391  
C    0.5103141   -0.0000449   -2.1935955  
C   -0.9576367    0.0002461   -2.0455733  
N   -1.2018459   -0.0001392   -0.6915970  
C   -1.8348306    0.0008319   -3.0810611  
C   -1.2972842    0.0009739   -4.4314605  
O   -2.0050664    0.0014267   -5.4301321  
C    0.2542628    0.0004190   -4.6117571  
O    0.7184677    0.0002263   -5.7439119  
C    1.0974556    0.0000880   -3.4189127  
H    2.0940752   -0.0005479   -0.5817978  
H   -2.9081050    0.0011669   -2.9507065  
H   -2.1128195    0.0014911   -0.2706793  
C    3.3321173   -0.0004715    2.8079335  
C    2.6974184   -0.0000116    4.0032312  
C    1.2800439    0.0002118    3.6752840  
C    1.2395035   -0.0000644    2.1971295  
N    2.4394063   -0.0005460    1.6831036  
C    0.0000000    0.0000000    1.4700000  
C   -1.1468701   -0.0000635    2.1869543  
O   -2.3742202   -0.0000073    1.6395491  
C   -1.1388768   -0.0001607    3.6796354  
O   -2.2206231   -0.0000905    4.2670412  
C    0.1454524   -0.0001816    4.4024240  
H    3.1367986    0.0000651    4.9860947  
H   -2.9844344   -0.0001026    2.3990168  
H    0.1083576   -0.0003682    5.4835595  
H    4.3940039   -0.0007619    2.6198634  
