62

C    2.8233682   -0.7205532   -3.3382294  
C    3.4268672   -0.4842899   -4.5516693  
C    2.5842319    0.4170854   -5.2672726  
C    1.4720823    0.6983442   -4.4330401  
N    1.6478443   -0.0100055   -3.2702994  
C    0.4355942    1.5542942   -4.8175280  
C    0.5235655    2.1371665   -6.0668070  
O   -0.4609061    2.9814402   -6.4922838  
C    1.6251323    1.8686433   -6.9137210  
O    1.5672602    2.5248823   -8.1258862  
C    2.6478793    1.0241206   -6.5351767  
H   -0.4148265    1.7726469   -4.1864108  
H   -0.2071935    3.2724202   -7.3778499  
H    2.3476186    2.2892328   -8.6368799  
H    3.4787742    0.8374032   -7.2054214  
H    3.1377269   -1.3408174   -2.5163967  
C    1.1188647    0.0008252   -0.8003807  
C    0.0000000    0.0000000    0.0000000  
C   -1.1323854    0.0008867   -0.8673533  
C   -0.6382658    0.0019661   -2.1969280  
N    0.7324021    0.0038501   -2.1202238  
C   -1.4770906    0.0027278   -3.3154811  
C   -2.8395469    0.0020868   -3.0876860  
O   -3.7039189    0.0024327   -4.1440356  
C   -3.3517866    0.0013841   -1.7684334  
O   -4.7300490    0.0012234   -1.7073130  
C   -2.5248543    0.0009055   -0.6644820  
H   -1.1067559    0.0036958   -4.3313815  
H   -4.5940023    0.0021703   -3.7685138  
H   -4.9934599    0.0007124   -0.7819922  
H   -2.9462580    0.0005524    0.3339655  
H    2.1619899    0.0009412   -0.5342062  
C    5.1172397   -4.5122546   -4.1028038  
C    6.2975753   -4.3340367   -4.7501996  
C    6.3257414   -2.9638300   -5.2047058  
C    5.0559696   -2.3540056   -4.7658613  
N    4.3685286   -3.3451339   -4.1040615  
C    4.6998385   -1.0658295   -5.0013986  
C    5.6290635   -0.2238593   -5.7363559  
O    5.4001295    0.9496173   -5.9987359  
C    6.9795778   -0.8488846   -6.2109719  
O    7.7697106   -0.1498181   -6.8308558  
C    7.2512857   -2.2493649   -5.8968362  
H    7.0612685   -5.0776325   -4.8932089  
H    8.1887113   -2.6744868   -6.2288433  
H    4.7312609   -5.3980799   -3.6250760  
H    3.4633332   -3.2367116   -3.6846414  
C    0.0000000    0.0000000    1.4700000  
C    1.0662921    0.0000102    2.3034270  
C    0.4961870   -0.0000064    3.6418889  
C   -0.9663858    0.0000850    3.4240247  
N   -1.2632773    0.0000084    2.1528658  
C   -1.8985362    0.0000517    4.5177257  
C   -1.3925775   -0.0004564    5.7720543  
O   -2.1456383   -0.0005410    6.8851312  
C    0.0786232   -0.0009323    6.0245000  
O    0.4683759   -0.0012588    7.1921102  
C    1.0143166   -0.0008442    4.8859032  
H    2.1107198   -0.0000632    2.0421868  
H   -2.9622183    0.0003270    4.3293377  
H   -1.5042274   -0.0009692    7.6184419  
H    2.0724152   -0.0013148    5.1109744  
