58

C    4.5679461   -0.0016852   -2.0086700  
C    5.6245802   -0.0018693   -1.1556757  
C    6.8197125   -0.0025282   -1.9659182  
C    6.3695110   -0.0026849   -3.3709480  
N    4.9943550   -0.0025530   -3.3281072  
C    7.1998313   -0.0028670   -4.4443874  
C    8.6325204   -0.0031378   -4.1995657  
O    9.4620779   -0.0033772   -5.0996406  
C    9.1316824   -0.0032301   -2.7194838  
O   10.3356443   -0.0037643   -2.5009911  
C    8.1403752   -0.0027352   -1.6465626  
H    5.5727014   -0.0017593   -0.0814685  
H    6.8490263   -0.0028497   -5.4670534  
H    8.4942126   -0.0025972   -0.6245434  
H    4.3931137   -0.0010542   -4.1315709  
C    3.1301152   -0.0010311   -1.7028251  
C    2.5367770   -0.0002766   -0.4864665  
C    1.1089905    0.0001028   -0.7656183  
C    1.0177873   -0.0004148   -2.2415130  
N    2.1993580   -0.0011610   -2.7963820  
C   -0.2459208   -0.0002877   -2.9257119  
C   -1.3675318   -0.0000605   -2.1698523  
O   -2.6129310    0.0000866   -2.6748492  
C   -1.3083584    0.0000911   -0.6783232  
O   -2.3693259    0.0004206   -0.0541692  
C    0.0000000    0.0000000    0.0000000  
H    3.0096019   -0.0001007    0.4807529  
H   -3.1967440    0.0002093   -1.8949035  
C   -0.2963281   -0.0005339   -4.3948471  
C    0.7278665   -0.0010064   -5.2865314  
C    0.1384656   -0.0010227   -6.6046519  
C   -1.3235462   -0.0004881   -6.4063793  
N   -1.5211825   -0.0006101   -5.0448252  
C   -2.2357319    0.0000548   -7.4111785  
C   -1.7448078   -0.0001095   -8.7792167  
O   -2.4864189    0.0002815   -9.7530306  
C   -0.2003558   -0.0009258   -9.0126111  
O    0.2247535   -0.0013773  -10.1600176  
C    0.6832446   -0.0011826   -7.8493818  
H    1.7765651   -0.0014913   -5.0481107  
H   -3.3039046    0.0005714   -7.2440975  
H    1.7513098   -0.0015430   -8.0195609  
H   -2.4171865    0.0012263   -4.5929176  
C    2.5528530    2.1414826    2.8079335  
C    2.0663498    1.7338582    4.0032312  
C    0.9804344    0.8229586    3.6752840  
C    0.9495562    0.7966882    2.1971295  
N    1.8690446    1.5676019    1.6831036  
C    0.0000000    0.0000000    1.4700000  
C   -0.8785127   -0.7372425    2.1869543  
O   -1.8187535   -1.5261249    1.6395491  
C   -0.8723269   -0.7321790    3.6796354  
O   -1.7010379   -1.4274584    4.2670412  
C    0.1115397    0.0933559    4.4024240  
H    2.4028853    2.0163452    4.9860947  
H   -2.2861435   -1.9184361    2.3990168  
H    0.0832434    0.0693689    5.4835595  
H    3.3664920    2.8238276    2.6198634  
