60

C   -1.1239075    0.0327664   -0.7919009  
C   -0.7477578    0.0049816   -2.1148548  
C    0.6773568   -0.0492402   -2.1414694  
C    1.1189899   -0.0524453   -0.7935543  
N    0.0000000    0.0000000    0.0000000  
C    2.4710516   -0.1004019   -0.4408227  
C    3.3940895   -0.1462595   -1.4675046  
O    4.7273746   -0.1945187   -1.1793444  
C    2.9730598   -0.1435010   -2.8186308  
O    4.0122422   -0.1922109   -3.7247600  
C    1.6393959   -0.0959313   -3.1673471  
H    2.8141365   -0.1029671    0.5845984  
H    5.1892488   -0.2205604   -2.0274357  
H    3.6419987   -0.1868467   -4.6127322  
H    1.3471155   -0.0948778   -4.2109226  
H   -2.1049239    0.0748091   -0.3505418  
C   -1.6629795    0.0293635   -3.2649308  
C   -3.0152972    0.0810574   -3.2529376  
C   -3.4030227    0.0829985   -4.6551372  
C   -2.1242127    0.0275454   -5.3955116  
N   -1.1007385   -0.0041565   -4.5858911  
C   -2.0765721    0.0125552   -6.8316842  
C   -3.2529993    0.0508169   -7.4979341  
O   -3.3574031    0.0424557   -8.8377368  
C   -4.5600983    0.1067656   -6.7792386  
O   -5.5916998    0.1396444   -7.4500124  
C   -4.5825542    0.1211918   -5.3057356  
H   -3.6689891    0.1137350   -2.3981304  
H   -1.1278846   -0.0280621   -7.3467101  
H   -4.3153128    0.0769649   -9.0120083  
C   -6.2115335    0.9040129   -3.5468659  
C   -5.8968235    0.1766780   -4.6495975  
C   -7.0945889   -0.5248596   -5.0471390  
C   -8.1404093   -0.1438596   -4.0786924  
N   -7.5406707    0.7237402   -3.1952481  
C   -9.4195319   -0.5961026   -4.1107288  
C   -9.7909435   -1.5199129   -5.1695786  
O  -10.9179793   -1.9835817   -5.2840455  
C   -8.6993785   -1.9372321   -6.2059846  
O   -9.0002483   -2.7146660   -7.1017155  
C   -7.3549661   -1.3828126   -6.0680491  
H  -10.1713240   -0.3040515   -3.3907120  
H   -6.6050193   -1.6766182   -6.7898404  
H   -5.5842488    1.5563863   -2.9613638  
H   -7.9985615    1.1604499   -2.4163589  
C    2.4951002    2.0940188    2.9809380  
C    1.9440701    1.6314916    1.8291961  
C    0.8759964    0.7350050    2.2038498  
C    0.8497377    0.7130254    3.6788474  
N    1.8560616    1.5571714    4.0882609  
C   -0.0205033   -0.0168748    4.4215661  
C   -0.9962600   -0.8356168    3.7214979  
O   -1.8224391   -1.5286685    4.3006425  
C   -0.9864710   -0.8277881    2.1595606  
O   -1.8030528   -1.5133726    1.5592035  
C    0.0000000    0.0000000    1.4700000  
H    2.2509283    1.8888011    0.8310761  
H   -0.0229599   -0.0187323    5.5027230  
H    3.3143982    2.7817323    3.1139444  
H    2.0889452    1.7545833    5.0442112  
