62

C    3.3041274    0.0001178   -1.5420424  
C    2.5845370   -0.0004780   -0.3695848  
C    1.2040008   -0.0000007   -0.7283588  
C    1.1422381    0.0006039   -2.1454372  
N    2.4348643    0.0026111   -2.6077460  
C   -0.0655178    0.0008800   -2.8497916  
C   -1.2321770    0.0002327   -2.1101400  
O   -2.4392813    0.0001149   -2.7472523  
C   -1.1911197   -0.0000007   -0.6955269  
O   -2.4371527   -0.0002319   -0.1032865  
C    0.0000000    0.0000000    0.0000000  
H    3.0031532   -0.0000660    0.6222587  
H    2.7054630   -0.0071097   -3.5745257  
H   -0.1193547    0.0014846   -3.9297470  
H   -3.1132988   -0.0000647   -2.0551792  
H   -2.3200292   -0.0004070    0.8516405  
C    6.7748105   -0.0036707    1.2764685  
C    5.5082320   -0.0035545    0.7395837  
C    5.6573262   -0.0010105   -0.6789945  
C    7.0493887    0.0000631   -0.9511860  
N    7.6991160    0.0003496    0.2581408  
C    7.5659491    0.0022523   -2.2503970  
C    6.6607409    0.0030713   -3.2938410  
O    7.1109062    0.0048476   -4.5823914  
C    5.2680310    0.0023992   -3.0424924  
O    4.4967640    0.0037872   -4.1863844  
C    4.7577219    0.0005130   -1.7610452  
H    4.5898232   -0.0040067    1.3012946  
H    8.6954213   -0.0094974    0.3816732  
H    6.3261402    0.0054440   -5.1457802  
H    3.5699438    0.0031881   -3.9283015  
H    7.0920029   -0.0048575    2.3052281  
C    9.0068370    0.0035733   -2.5415003  
C   10.0349162    0.0029969   -1.6613690  
C   11.2339726    0.0049195   -2.4852379  
C   10.7307894    0.0064363   -3.8757012  
N    9.4260121    0.0057367   -3.9149860  
C   11.6182357    0.0086022   -5.0059751  
C   12.9479191    0.0096134   -4.7584305  
O   13.8898235    0.0116271   -5.7169989  
C   13.4867070    0.0085015   -3.3663577  
O   14.7083761    0.0093966   -3.2155446  
C   12.5559554    0.0062361   -2.2237201  
H    9.9856783    0.0015473   -0.5858926  
H   11.2229385    0.0094696   -6.0112854  
H   14.7356301    0.0119232   -5.2335076  
H   12.9861043    0.0056039   -1.2311471  
C    2.4951002    2.0940188    2.9809380  
C    1.9440701    1.6314916    1.8291961  
C    0.8759964    0.7350050    2.2038498  
C    0.8497377    0.7130254    3.6788474  
N    1.8560616    1.5571714    4.0882609  
C   -0.0205033   -0.0168748    4.4215661  
C   -0.9962600   -0.8356168    3.7214979  
O   -1.8224391   -1.5286685    4.3006425  
C   -0.9864710   -0.8277881    2.1595606  
O   -1.8030528   -1.5133726    1.5592035  
C    0.0000000    0.0000000    1.4700000  
H    2.2509283    1.8888011    0.8310761  
H   -0.0229599   -0.0187323    5.5027230  
H    3.3143982    2.7817323    3.1139444  
H    2.0889452    1.7545833    5.0442112  
