60

C   -3.3040234    0.0261240   -1.5420444  
C   -2.5844517    0.0210047   -0.3695864  
C   -1.2039624    0.0095630   -0.7283594  
C   -1.1422053    0.0084678   -2.1454379  
N   -2.4348069    0.0167269   -2.6077477  
C    0.0655102   -0.0014005   -2.8497916  
C    1.2321371   -0.0100189   -2.1101397  
O    2.4392047   -0.0194882   -2.7472511  
C    1.1910837   -0.0094594   -0.6955261  
O    2.4370773   -0.0191244   -0.1032853  
C    0.0000000    0.0000000    0.0000000  
H   -3.0030580    0.0239176    0.6222569  
H   -2.7053194    0.0285965   -3.5745274  
H    0.1193411   -0.0024328   -3.9297473  
H    3.1132018   -0.0246618   -2.0551771  
H    2.3199583   -0.0180189    0.8516415  
C   -5.7181727    0.0445172   -0.7610782  
C   -6.9695819    0.0517609   -1.2883332  
C   -6.8212960    0.0487106   -2.7245913  
C   -5.3705151    0.0389974   -2.9927910  
N   -4.7575752    0.0372734   -1.7610478  
C   -4.8177517    0.0332393   -4.2321957  
C   -5.7113293    0.0370756   -5.3785110  
O   -5.3109293    0.0325157   -6.5352134  
C   -7.2513925    0.0475990   -5.1179333  
O   -8.0135468    0.0512133   -6.0752041  
C   -7.7275274    0.0528214   -3.7369477  
H   -3.7508463    0.0260064   -4.4070387  
H   -8.7952988    0.0598988   -3.5650812  
H   -5.4168716    0.0440781    0.2738646  
C   -8.4787190    0.7693349    0.6004753  
C   -8.2295158    0.0611870   -0.5311165  
C   -9.4330172   -0.6737390   -0.8414455  
C  -10.4108167   -0.3332413    0.2096293  
N   -9.7701990    0.5451727    1.0527706  
C  -11.6742918   -0.8245271    0.2726679  
C  -12.0994274   -1.7506198   -0.7637427  
O  -13.2174612   -2.2479451   -0.7948650  
C  -11.0802694   -2.1254440   -1.8865208  
O  -11.4267553   -2.9043987   -2.7642662  
C   -9.7465257   -1.5308886   -1.8479961  
H  -12.3758682   -0.5617971    1.0522016  
H   -9.0468744   -1.7954147   -2.6291733  
H   -7.8274864    1.4359391    1.1421618  
H  -10.1786648    0.9610868    1.8696043  
C    0.0000000    0.0000000    1.4700000  
C    1.0541688    0.0001722    2.3260392  
C    0.5103138    0.0000454    3.6635956  
C   -0.9576371   -0.0002459    3.5155732  
N   -1.2018458    0.0001392    2.1615969  
C   -1.8348311   -0.0008317    4.5510609  
C   -1.2972847   -0.0009736    5.9014604  
O   -2.0050672   -0.0014265    6.9001319  
C    0.2542623   -0.0004184    6.0817573  
O    0.7184670   -0.0002256    7.2139121  
C    1.0974552   -0.0000873    4.8889129  
H    2.0940752    0.0005483    2.0517982  
H   -2.9081052   -0.0011668    4.4207061  
H    2.1707277    0.0000911    5.0223670  
H   -2.1128194   -0.0014912    1.7406791  
