58

C    3.2798086    0.0005860   -1.4499646  
C    2.5571147    0.0005569   -2.5996555  
C    1.1637436    0.0001551   -2.2210361  
C    1.1336965   -0.0000198   -0.7459476  
N    2.4483514   -0.0001426   -0.3402723  
C    0.0000000    0.0000000    0.0000000  
C   -1.2757367   -0.0000185   -0.6964415  
O   -2.3524594   -0.0000640   -0.1142315  
C   -1.2676491   -0.0000871   -2.2584082  
O   -2.3355760   -0.0004099   -2.8557300  
C    0.0181560    0.0001764   -2.9516299  
H    0.0150794    0.0003323   -4.0331631  
H    4.3498550    0.0008616   -1.3200019  
H    2.7563626    0.0012824    0.6148062  
C    5.9694212   -2.1380306   -4.2640191  
C    5.9589015   -1.7308757   -5.5546365  
C    4.8277513   -0.8211661   -5.6517373  
C    4.2525283   -0.7949995   -4.2897469  
N    4.9176048   -1.5649429   -3.4719146  
C    3.1006058    0.0006268   -3.9654948  
C    2.5486627    0.7369531   -4.9567145  
O    1.4718516    1.5247924   -4.7960052  
C    3.1062923    0.7319673   -6.3413395  
O    2.5527682    1.4263781   -7.1937626  
C    4.2885186   -0.0924689   -6.6488625  
H    6.6352657   -2.0129519   -6.3433318  
H    1.3179707    1.9166340   -5.6746028  
H    6.6565709   -2.8195040   -3.7882126  
C    5.9200337   -3.1033673   -9.5014211  
C    5.3990243   -2.5461769   -8.3835354  
C    5.2506552   -1.1344718   -8.7022433  
C    5.7439688   -1.0120311  -10.0908521  
N    6.1376229   -2.1629282  -10.5646267  
C    5.7633434    0.2471087  -10.7831508  
C    5.3101248    1.3344329  -10.1185797  
O    5.2708044    2.5715766  -10.6420019  
C    4.8055792    1.2431100   -8.7167050  
O    4.4083264    2.2736807   -8.1732580  
C    4.7959302   -0.0598451   -8.0281268  
H    5.1464838   -3.0330378   -7.4571096  
H    6.1294723    0.3074993  -11.7976515  
H    4.9014873    3.1289657   -9.9334287  
H    6.1780955   -4.1367781   -9.6700605  
C    2.5128556    2.1077716    2.9199648  
C    1.9592212    1.6432552    4.0696553  
C    0.8915788    0.7479214    3.6910360  
C    0.8684491    0.7287414    2.2159470  
N    1.8754542    1.5738793    1.8102719  
C    0.0000000    0.0000000    1.4700000  
C   -0.9772830   -0.8200135    2.1664417  
O   -1.8021297   -1.5120829    1.5842315  
C   -0.9711318   -0.8147624    3.7284083  
O   -1.7894187   -1.5009653    4.3257297  
C    0.0140216    0.0115358    4.4216297  
H    2.2638494    1.8988021    5.0689105  
H    0.0117648    0.0094386    5.5031631  
H    3.3327358    2.7953732    2.7900019  
H    2.1123206    1.7707734    0.8551938  
