62

C    4.3850145   -2.1302472   -1.4420375  
C    3.1441333   -1.6664867   -1.8129919  
C    3.3426832   -0.7794073   -2.9122042  
C    4.7370124   -0.7413627   -3.1697381  
N    5.3406713   -1.5712647   -2.2578847  
C    5.2968248    0.0340036   -4.1896431  
C    4.4333093    0.7844034   -4.9638647  
O    4.9266648    1.5591504   -5.9735093  
C    3.0391090    0.7599480   -4.7221527  
O    2.3124159    1.5614585   -5.5782141  
C    2.4861708   -0.0045286   -3.7159913  
H    2.2107835   -1.9337300   -1.3477684  
H    6.3263480   -1.7540630   -2.2030539  
H    4.1660047    1.9932246   -6.3812358  
H    1.3813876    1.4874741   -5.3473111  
H    4.6641351   -2.8144246   -0.6591248  
C    0.0000000    0.0000000    0.0000000  
C    1.0521668   -0.0011862   -0.8862337  
C    0.4917223   -0.0011933   -2.1979128  
C   -0.9187426    0.0003121   -2.0478684  
N   -1.1833170   -0.0009451   -0.7007915  
C   -1.7951692    0.0010294   -3.1372093  
C   -1.2375827    0.0005192   -4.4010426  
O   -2.0474200    0.0015301   -5.4997582  
C    0.1673593   -0.0013551   -4.5711963  
O    0.5673537   -0.0020655   -5.8915553  
C    1.0325777   -0.0023369   -3.4969887  
H    2.0953056   -0.0030573   -0.6200556  
H   -2.0989779    0.0102301   -0.2891829  
H   -2.8710925    0.0020326   -3.0295520  
H   -1.4634871    0.0006461   -6.2693596  
H    1.5290723   -0.0033086   -5.9180041  
C    6.7404103    0.0794822   -4.4633099  
C    7.7521442   -0.5707567   -3.8327081  
C    8.9774086   -0.1802191   -4.4892457  
C    8.5938232    0.7575909   -5.5617031  
N    7.2245042    0.8721459   -5.4929104  
C    9.4683895    1.3530798   -6.4115443  
C   10.8817823    1.0499570   -6.2599752  
O   11.7476766    1.5354725   -6.9760763  
C   11.3106044    0.0592890   -5.1310404  
O   12.4977386   -0.2037702   -4.9940219  
C   10.2760146   -0.5190504   -4.2772256  
H    7.6515734   -1.2469665   -3.0025036  
H    9.1662146    2.0381571   -7.1914606  
H   10.5812490   -1.2039106   -3.4977881  
H    6.6634539    1.4450579   -6.0962692  
C    3.1301144    0.0010313    3.1728260  
C    2.5367765    0.0002768    1.9564670  
C    1.1089900   -0.0001027    2.2356185  
C    1.0177864    0.0004150    3.7115134  
N    2.1993570    0.0011613    4.2663826  
C   -0.2459220    0.0002880    4.3957118  
C   -1.3675327    0.0000606    3.6398520  
O   -2.6129319   -0.0000866    4.1448486  
C   -1.3083589   -0.0000910    2.1483229  
O   -2.3693264   -0.0004206    1.5241687  
C    0.0000000    0.0000000    1.4700000  
H    3.0096015    0.0001008    0.9892483  
H   -0.2829642    0.0004689    5.4753125  
H   -3.1967446   -0.0002093    3.3649027  
H    4.1849273    0.0015113    3.3971983  
