60

C    3.3003532    0.0005276   -1.4739013  
C    2.5232795    0.0003498   -2.6090769  
C    1.1623181   -0.0001318   -2.1820113  
C    1.1711882    0.0000584   -0.7636154  
N    2.4852297   -0.0014919   -0.3662379  
C    0.0000000    0.0000000    0.0000000  
C   -1.2020392    0.0000521   -0.6806476  
O   -2.3759254    0.0003495    0.0157757  
C   -1.2314672   -0.0005110   -2.0955505  
O   -2.5054408   -0.0008034   -2.6250169  
C   -0.0764539   -0.0007270   -2.8495200  
H    2.8919929   -0.0005617   -3.6205325  
H    2.8036267    0.0088180    0.5858641  
H   -3.0835649    0.0000350   -0.6418804  
H   -2.4360080   -0.0011523   -3.5845910  
H   -0.1304124   -0.0013418   -3.9319091  
C    6.5323569    0.0028964   -4.4466921  
C    7.6043815    0.0022109   -3.6131227  
C    7.0889152    0.0013270   -2.2643717  
C    5.6181639    0.0015261   -2.3813380  
N    5.3453953    0.0028890   -3.7298502  
C    4.7630494    0.0004755   -1.3275437  
C    5.3290144   -0.0007200    0.0111936  
O    4.6424957   -0.0016578    1.0245992  
C    6.8840253   -0.0006991    0.1586604  
O    7.3720531   -0.0013932    1.2807519  
C    7.7018209    0.0002119   -1.0517370  
H    8.6382605    0.0024953   -3.9092793  
H    8.7776739    0.0000148   -0.9409948  
H    4.4257297    0.0017848   -4.1314226  
C    6.5012905    0.0038875   -5.9163632  
C    7.5371324    0.0040120   -6.7944901  
C    6.9651317    0.0051853   -8.1202536  
C    5.5006367    0.0057674   -7.9412404  
N    5.2850973    0.0045344   -6.5824060  
C    4.6017552    0.0072847   -8.9579572  
C    5.1106429    0.0081941  -10.3194156  
O    4.3819128    0.0095086  -11.3029054  
C    6.6580329    0.0073476  -10.5324627  
O    7.0982074    0.0077947  -11.6741746  
C    7.5262462    0.0059879   -9.3577051  
H    8.5826027    0.0031743   -6.5422879  
H    3.5314760    0.0078175   -8.8049498  
H    8.5964592    0.0056140   -9.5138121  
H    4.3832232    0.0061234   -6.1423292  
C    0.0000000    0.0000000    1.4700000  
C    1.0541688    0.0001722    2.3260392  
C    0.5103138    0.0000454    3.6635956  
C   -0.9576371   -0.0002459    3.5155732  
N   -1.2018458    0.0001392    2.1615969  
C   -1.8348311   -0.0008317    4.5510609  
C   -1.2972847   -0.0009736    5.9014604  
O   -2.0050672   -0.0014265    6.9001319  
C    0.2542623   -0.0004184    6.0817573  
O    0.7184670   -0.0002256    7.2139121  
C    1.0974552   -0.0000873    4.8889129  
H    2.0940752    0.0005483    2.0517982  
H   -2.9081052   -0.0011668    4.4207061  
H    2.1707277    0.0000911    5.0223670  
H   -2.1128194   -0.0014912    1.7406791  
