58

C   -0.0804008    0.0206017   -8.8196987  
C    0.6951184   -0.6555477   -9.7059643  
C    0.2299959   -0.3033230  -11.0267351  
C   -0.8880679    0.6402417  -10.8359229  
N   -1.0257450    0.7943678   -9.4757095  
C   -1.5970103    1.2065223  -11.8450961  
C   -1.2348194    0.8636413  -13.2103010  
O   -1.8128228    1.3208501  -14.1876312  
C   -0.0541154   -0.1338014  -13.4358035  
O    0.2596995   -0.4302063  -14.5807605  
C    0.6347173   -0.6783280  -12.2683913  
H    1.5009137   -1.3248222   -9.4622866  
H   -2.4135813    1.8964499  -11.6834735  
H    1.4512742   -1.3681285  -12.4331147  
H   -1.7066253    1.3804088   -9.0284898  
C    2.5365544   -2.0936799   -5.9975191  
C    2.0254115   -1.6312727   -4.8274817  
C    0.9452520   -0.7345685   -5.1651398  
C    0.8684332   -0.7123307   -6.6383662  
N    1.8600006   -1.5565502   -7.0821879  
C   -0.0266557    0.0178221   -7.3506841  
C   -0.9777108    0.8365828   -6.6174311  
O   -1.8231601    1.5298525   -7.1677885  
C   -0.9143687    0.8284833   -5.0567494  
O   -1.7097814    1.5140808   -4.4286288  
C    0.0950446    0.0004351   -4.4015596  
H    2.3662773   -1.8887983   -3.8405142  
H    3.3507072   -2.7814876   -6.1586571  
H    2.0599375   -1.7538304   -8.0455943  
C    3.3321173    0.0004713   -1.3379338  
C    2.6974181    0.0000116   -2.5332314  
C    1.2800438   -0.0002119   -2.2052841  
C    1.2395034    0.0000643   -0.7271299  
N    2.4394062    0.0005460   -0.2131038  
C    0.0000000    0.0000000    0.0000000  
C   -1.1468702    0.0000634   -0.7169543  
O   -2.3742203    0.0000074   -0.1695487  
C   -1.1388770    0.0001607   -2.2096355  
O   -2.2206234    0.0000905   -2.7970411  
C    0.1454522    0.0001815   -2.9324241  
H    3.1367984   -0.0000653   -3.5160950  
H   -2.9844346    0.0001026   -0.9290167  
H    4.3940038    0.0007618   -1.1498640  
C    2.5128556    2.1077716    2.9199648  
C    1.9592212    1.6432552    4.0696553  
C    0.8915788    0.7479214    3.6910360  
C    0.8684491    0.7287414    2.2159470  
N    1.8754542    1.5738793    1.8102719  
C    0.0000000    0.0000000    1.4700000  
C   -0.9772830   -0.8200135    2.1664417  
O   -1.8021297   -1.5120829    1.5842315  
C   -0.9711318   -0.8147624    3.7284083  
O   -1.7894187   -1.5009653    4.3257297  
C    0.0140216    0.0115358    4.4216297  
H    2.2638494    1.8988021    5.0689105  
H    0.0117648    0.0094386    5.5031631  
H    3.3327358    2.7953732    2.7900019  
H    2.1123206    1.7707734    0.8551938  
