58

C    0.0000000    0.0000000    0.0000000  
C    1.0541691   -0.0001726   -0.8560388  
C    0.5103142   -0.0000463   -2.1935954  
C   -0.9576361    0.0002452   -2.0455733  
N   -1.2018455   -0.0001395   -0.6915971  
C   -1.8348302    0.0008309   -3.0810613  
C   -1.2972833    0.0009725   -4.4314608  
O   -2.0050655    0.0014253   -5.4301324  
C    0.2542638    0.0004173   -4.6117570  
O    0.7184689    0.0002241   -5.7439118  
C    1.0974565    0.0000863   -3.4189125  
H    2.0940756   -0.0005488   -0.5817978  
H    2.1707287   -0.0000922   -3.5523662  
H   -2.1128192    0.0014911   -0.2706797  
C   -4.6945335    2.0112722   -0.3161628  
C   -3.5419722    1.6295577   -0.9140558  
C   -3.9513657    0.7131099   -1.9671559  
C   -5.4249851    0.6554369   -1.8589736  
N   -5.8663722    1.4144225   -0.8929984  
C   -6.2212857   -0.1553992   -2.7384830  
C   -5.5748579   -0.8755711   -3.6833733  
O   -6.1915659   -1.6747287   -4.5705372  
C   -4.0887144   -0.8381767   -3.8180591  
O   -3.5674042   -1.5194704   -4.7008358  
C   -3.2941063    0.0012866   -2.9038250  
H   -2.5379809    1.9325456   -0.6705902  
H   -7.2964575   -0.1786966   -2.6366327  
H   -5.4713998   -2.0497111   -5.1089632  
C   -3.9045538    3.5991839    1.4986624  
C   -4.8649593    2.9345580    0.8149422  
C   -6.1155941    3.3317466    1.4431566  
C   -5.7132125    4.2649912    2.5172739  
N   -4.4183164    4.4257384    2.5546130  
C   -6.6755465    4.8887505    3.3832547  
C   -7.9805682    4.5939149    3.1849494  
O   -8.9849564    5.1032597    3.9183060  
C   -8.4182773    3.6562398    2.1091530  
O   -9.6226814    3.4337920    1.9860818  
C   -7.4119975    3.0291122    1.2339175  
H   -6.3532832    5.5666068    4.1601503  
H   -9.7920905    4.7092368    3.5409015  
H   -7.7698354    2.3558482    0.4665208  
H   -2.8381930    3.5738989    1.3398904  
C    0.0000000    0.0000000    1.4700000  
C    1.0541688    0.0001722    2.3260392  
C    0.5103138    0.0000454    3.6635956  
C   -0.9576371   -0.0002459    3.5155732  
N   -1.2018458    0.0001392    2.1615969  
C   -1.8348311   -0.0008317    4.5510609  
C   -1.2972847   -0.0009736    5.9014604  
O   -2.0050672   -0.0014265    6.9001319  
C    0.2542623   -0.0004184    6.0817573  
O    0.7184670   -0.0002256    7.2139121  
C    1.0974552   -0.0000873    4.8889129  
H    2.0940752    0.0005483    2.0517982  
H   -2.9081052   -0.0011668    4.4207061  
H    2.1707277    0.0000911    5.0223670  
H   -2.1128194   -0.0014912    1.7406791  
