58

C    3.2798086    0.0005856   -1.4499649  
C    2.5571146    0.0005564   -2.5996552  
C    1.1637434    0.0001547   -2.2210360  
C    1.1336964   -0.0000200   -0.7459474  
N    2.4483514   -0.0001429   -0.3402721  
C    0.0000000    0.0000000    0.0000000  
C   -1.2757369   -0.0000187   -0.6964411  
O   -2.3524596   -0.0000640   -0.1142310  
C   -1.2676496   -0.0000875   -2.2584083  
O   -2.3355761   -0.0004103   -2.8557296  
C    0.0181560    0.0001757   -2.9516298  
H    2.9547354    0.0006073   -3.5989106  
H    4.3498548    0.0008613   -1.3200021  
H    2.7563627    0.0012825    0.6148062  
C    2.5654233   -2.1380210   -5.7671298  
C    2.0750619   -1.7307736   -6.9609783  
C    0.9890576   -0.8211467   -6.6298091  
C    0.9623553   -0.7951242   -5.1515689  
N    1.8841708   -1.5650742   -4.6402743  
C    0.0139738    0.0003876   -4.4216237  
C   -0.8674058    0.7367419   -5.1359674  
O   -1.8069744    1.5244844   -4.5857736  
C   -0.8654610    0.7319005   -6.6286606  
O   -1.6966232    1.4263292   -7.2136039  
C    0.1172756   -0.0924198   -7.3543667  
H    2.4091182   -2.0127391   -7.9448369  
H   -2.2769653    1.9163775   -5.3438503  
H    3.3803632   -2.8194750   -5.5814756  
C    0.6166716   -3.3096923  -10.2504428  
C    0.4709641   -2.6583714  -11.4277836  
C    0.2333656   -1.2705404  -11.0617619  
C    0.2694797   -1.2635321   -9.5835095  
N    0.4938890   -2.4560179   -9.1022536  
C    0.0746080   -0.0596560   -8.8233818  
C   -0.1459171    1.0852459   -9.5088764  
O   -0.3438803    2.2811660   -8.9286815  
C   -0.1877549    1.1106640  -11.0007764  
O   -0.3933072    2.1885511  -11.5585647  
C    0.0150083   -0.1374402  -11.7577757  
H    0.5188977   -3.0689784  -12.4218549  
H   -0.4721260    2.8987687   -9.6711592  
H   -0.0226502   -0.0767970  -12.8371889  
H    0.8073903   -4.3590914  -10.0911918  
C    2.5128556    2.1077716    2.9199648  
C    1.9592212    1.6432552    4.0696553  
C    0.8915788    0.7479214    3.6910360  
C    0.8684491    0.7287414    2.2159470  
N    1.8754542    1.5738793    1.8102719  
C    0.0000000    0.0000000    1.4700000  
C   -0.9772830   -0.8200135    2.1664417  
O   -1.8021297   -1.5120829    1.5842315  
C   -0.9711318   -0.8147624    3.7284083  
O   -1.7894187   -1.5009653    4.3257297  
C    0.0140216    0.0115358    4.4216297  
H    2.2638494    1.8988021    5.0689105  
H    0.0117648    0.0094386    5.5031631  
H    3.3327358    2.7953732    2.7900019  
H    2.1123206    1.7707734    0.8551938  
