60

C    3.4166198   -0.7237139   -3.0386504  
C    4.6505742   -0.5066207   -3.5623899  
C    4.4859769    0.4195039   -4.6578516  
C    3.0446499    0.7263903   -4.7298857  
N    2.4521480    0.0014830   -3.7217483  
C    2.4815918    1.5658684   -5.6353935  
C    3.3532913    2.2099643   -6.6038029  
O    2.9422598    2.9825017   -7.4596885  
C    4.8829911    1.8993248   -6.5461255  
O    5.6266962    2.4354621   -7.3565073  
C    5.3718613    0.9773332   -5.5239760  
H    5.5710251   -0.9453430   -3.2204743  
H    1.4219288    1.7774263   -5.6709974  
H    6.4323652    0.7677044   -5.4906539  
H    3.1306602   -1.3526353   -2.2112606  
C    0.0000000    0.0000000    0.0000000  
C    1.0662921   -0.0000106   -0.8334269  
C    0.4961870    0.0000059   -2.1718889  
C   -0.9663856   -0.0000854   -1.9540246  
N   -1.2632773   -0.0000087   -0.6828657  
C   -1.8985362   -0.0000522   -3.0477258  
C   -1.3925773    0.0004558   -4.3020541  
O   -2.1456384    0.0005402   -5.4151311  
C    0.0786236    0.0009315   -4.5544999  
O    0.4683762    0.0012578   -5.7221098  
C    1.0143167    0.0008435   -3.4159031  
H    2.1107198    0.0000631   -0.5721865  
H   -1.5042271    0.0009682   -6.1484419  
C   -4.2186864    2.1401319   -0.0437265  
C   -5.4804249    1.7323140   -0.3144300  
C   -5.3466896    0.8217459   -1.4411421  
C   -3.8965661    0.7958593   -1.7293375  
N   -3.2302258    1.5666940   -0.9133757  
C   -3.3460094   -0.0004268   -2.7913647  
C   -4.2050296   -0.7376515   -3.5315797  
O   -3.8298203   -1.5261798   -4.5530893  
C   -5.6737587   -0.7329698   -3.2651711  
O   -6.3965398   -1.4282098   -3.9789290  
C   -6.2140638    0.0921563   -2.1701083  
H   -6.3895960    2.0144738    0.1884311  
H   -4.6590776   -1.9185778   -4.8809749  
H   -7.2835615    0.0679002   -2.0094324  
H   -3.8917479    2.8223390    0.7248291  
C    1.1243417   -0.0099156    2.2619005  
C    0.7474090   -0.0234034    3.5848544  
C   -0.6787367   -0.0234952    3.6114698  
C   -1.1201739   -0.0099357    2.2635546  
N    0.0000000    0.0000000    1.4700000  
C   -2.4730812   -0.0065396    1.9108239  
C   -3.3971947   -0.0173298    2.9375057  
O   -4.7313508   -0.0149487    2.6493466  
C   -2.9763630   -0.0305536    4.2886322  
O   -4.0166453   -0.0397858    5.1947621  
C   -1.6418541   -0.0336380    4.6373480  
H    1.4178735   -0.0310004    4.4271209  
H   -2.8160170    0.0039190    0.8854031  
H   -5.1938803   -0.0234410    3.4974381  
H   -3.6464643   -0.0484781    6.0827341  
H   -1.3497443   -0.0436789    5.6809233  
H    2.1062470   -0.0051382    1.8205408  
