60

C   -3.3003534   -0.0019571   -1.4738997  
C   -2.5232800   -0.0014426   -2.6090754  
C   -1.1623191   -0.0003716   -2.1820105  
C   -1.1711883   -0.0005657   -0.7636148  
N   -2.4852303    0.0004155   -0.3662366  
C    0.0000000    0.0000000    0.0000000  
C    1.2020383    0.0004686   -0.6806474  
O    2.3759246    0.0006796    0.0157751  
C    1.2314657    0.0010445   -2.0955506  
O    2.5054393    0.0018888   -2.6250173  
C    0.0764524    0.0007603   -2.8495195  
H   -2.8919944   -0.0006907   -3.6205308  
H   -2.8036227   -0.0100325    0.5858653  
H    3.0835639    0.0013008   -0.6418809  
H    2.4360053    0.0022078   -3.5845915  
H    0.1304103    0.0013985   -3.9319085  
C   -6.5907937   -0.0032669   -4.4182898  
C   -5.3731470   -0.0027260   -3.8171153  
C   -5.6071039   -0.0027392   -2.3922996  
C   -7.0713629   -0.0033658   -2.2113705  
N   -7.6095186   -0.0032635   -3.4775771  
C   -7.6973056   -0.0039599   -1.0072526  
C   -6.8738973   -0.0037578    0.1904672  
O   -7.3427974   -0.0041896    1.3211458  
C   -5.3209686   -0.0028441    0.0224871  
O   -4.6174380   -0.0023600    1.0236391  
C   -4.7630494   -0.0025387   -1.3275417  
H   -4.4198578   -0.0021770   -4.3149638  
H   -8.7727842   -0.0045440   -0.8965487  
H   -8.5911142   -0.0051581   -3.6861757  
C   -5.9902038   -0.0018502   -6.8835793  
C   -6.6084166   -0.0002170   -8.0926638  
C   -8.0298065   -0.0004564   -7.8387243  
C   -8.1901573   -0.0023475   -6.3720698  
N   -6.9165194   -0.0035180   -5.8517483  
C   -9.3853675   -0.0027088   -5.7292807  
C  -10.5945310   -0.0013558   -6.5357889  
O  -11.7185140   -0.0016151   -6.0510588  
C  -10.4483729    0.0004034   -8.0909221  
O  -11.4593048    0.0012456   -8.7803260  
C   -9.1063111    0.0009199   -8.6677440  
H   -6.1240025    0.0008325   -9.0528495  
H   -9.4809593   -0.0039763   -4.6523545  
H   -9.0137512    0.0023452   -9.7453119  
H   -4.9358387   -0.0021928   -6.6595170  
C    2.5128556    2.1077716    2.9199648  
C    1.9592212    1.6432552    4.0696553  
C    0.8915788    0.7479214    3.6910360  
C    0.8684491    0.7287414    2.2159470  
N    1.8754542    1.5738793    1.8102719  
C    0.0000000    0.0000000    1.4700000  
C   -0.9772830   -0.8200135    2.1664417  
O   -1.8021297   -1.5120829    1.5842315  
C   -0.9711318   -0.8147624    3.7284083  
O   -1.7894187   -1.5009653    4.3257297  
C    0.0140216    0.0115358    4.4216297  
H    2.2638494    1.8988021    5.0689105  
H    0.0117648    0.0094386    5.5031631  
H    3.3327358    2.7953732    2.7900019  
H    2.1123206    1.7707734    0.8551938  
