60

C    3.2798085    0.0005856   -1.4499646  
C    2.5571146    0.0005565   -2.5996553  
C    1.1637436    0.0001548   -2.2210360  
C    1.1336964   -0.0000200   -0.7459468  
N    2.4483512   -0.0001429   -0.3402719  
C    0.0000000    0.0000000    0.0000000  
C   -1.2757371   -0.0000187   -0.6964415  
O   -2.3524597   -0.0000640   -0.1142312  
C   -1.2676493   -0.0000873   -2.2584081  
O   -2.3355761   -0.0004101   -2.8557295  
C    0.0181561    0.0001759   -2.9516296  
H    2.9547354    0.0006074   -3.5989104  
H    2.7563628    0.0012823    0.6148064  
C    6.5739159    0.0018720   -4.3537888  
C    7.6280847    0.0019468   -3.4977494  
C    7.0842298    0.0017736   -2.1601930  
C    5.6162787    0.0015610   -2.3082157  
N    5.3720702    0.0020315   -3.6621917  
C    4.7390846    0.0009612   -1.2727278  
C    5.2766314    0.0007199    0.0776717  
O    4.5688488    0.0002469    1.0763435  
C    6.8281783    0.0011905    0.2579685  
O    7.2923834    0.0012993    1.3901232  
C    7.6713711    0.0015458   -0.9348758  
H    8.6679910    0.0022877   -3.7719906  
H    8.7446435    0.0016652   -0.8014218  
H    6.5739154    0.0019307   -5.4316984  
H    4.4610964    0.0004679   -4.0831096  
C    2.5049806   -2.0931560   -5.9399561  
C    1.9571818   -1.6308516   -4.7865848  
C    0.8879545   -0.7344211   -5.1580685  
C    0.8574974   -0.7122315   -6.6329822  
N    1.8627392   -1.5562147   -7.0453797  
C   -0.0149279    0.0176861   -7.3731166  
C   -0.9887730    0.8362266   -6.6701577  
O   -1.8166674    1.5292768   -7.2468493  
C   -0.9745397    0.8281737   -5.1082557  
O   -1.7894805    1.5135875   -4.5054785  
C    0.0139740    0.0003878   -4.4216236  
H    2.2669048   -1.8882734   -3.7893789  
H   -0.0204605    0.0196992   -8.4542627  
H    3.3239675   -2.7807661   -6.0753923  
H    2.0929224   -1.7534649   -8.0020166  
C    0.8676693    0.7151171    2.2619005  
C    0.5875920    0.4624972    3.5848544  
C   -0.5048400   -0.4542819    3.6114698  
C   -0.8517165   -0.7276451    2.2635546  
N    0.0000000    0.0000000    1.4700000  
C   -1.8902865   -1.5946756    1.9108239  
C   -2.5912627   -2.1969500    2.9375057  
O   -3.6148162   -3.0527051    2.6493466  
C   -2.2603868   -1.9365747    4.2886322  
O   -3.0513550   -2.6123276    5.1947621  
C   -1.2361111   -1.0811317    4.6373480  
H    1.1060808    0.8876438    4.4271209  
H   -2.1597133   -1.8070987    0.8854031  
H   -3.9636755   -3.3565188    3.4974381  
H   -2.7621927   -2.3810384    6.0827341  
H   -1.0058879   -0.9010589    5.6809233  
H    1.6167816    1.3499334    1.8205408  
