58

C   -5.9258845    0.7027768    0.8520699  
C   -6.6930515    0.0002344   -0.0208356  
C   -7.6522447   -0.7408848    0.7637195  
C   -7.3790693   -0.4101301    2.1753738  
N   -6.3209709    0.4691297    2.1605258  
C   -8.0720368   -0.9093228    3.2300334  
C   -9.1593555   -1.8342527    2.9565758  
O   -9.8427383   -2.3382610    3.8382013  
C   -9.4660878   -2.1988235    1.4690249  
O  -10.3789615   -2.9767110    1.2265081  
C   -8.6497270   -1.5963005    0.4181332  
H   -7.8555328   -0.6536750    4.2579824  
H   -8.8686912   -1.8537505   -0.6092413  
H   -5.1049954    1.3713807    0.6495870  
H   -5.9017743    0.8796081    2.9746689  
C   -3.2941076    0.0012874   -2.9038237  
C   -3.9928925    0.0012416   -1.7448244  
C   -5.3903267    0.0018082   -2.1493928  
C   -5.3503938    0.0022637   -3.6275636  
N   -4.1243045    0.0018805   -4.0755523  
C   -6.5485052    0.0028447   -4.4210470  
C   -7.7326800    0.0025760   -3.7675455  
O   -8.9284331    0.0030587   -4.3809097  
C   -7.8059026    0.0017443   -2.2766401  
O   -8.9180023    0.0016649   -1.7489529  
C   -6.5627960    0.0012033   -1.4850530  
H   -3.6076317    0.0007788   -0.7395137  
H   -6.4897389    0.0033754   -5.4996831  
H   -9.5790599    0.0026690   -3.6557628  
C    0.0000000    0.0000000    0.0000000  
C    1.0541688   -0.0001722   -0.8560393  
C    0.5103135   -0.0000454   -2.1935957  
C   -0.9576374    0.0002459   -2.0455730  
N   -1.2018460   -0.0001391   -0.6915968  
C   -1.8348314    0.0008317   -3.0810607  
C   -1.2972851    0.0009737   -4.4314604  
O   -2.0050676    0.0014265   -5.4301315  
C    0.2542619    0.0004184   -4.6117571  
O    0.7184666    0.0002257   -5.7439121  
C    1.0974550    0.0000874   -3.4189130  
H    2.0940752   -0.0005483   -0.5817984  
H    2.1707276   -0.0000911   -3.5523671  
H   -2.1128194    0.0014912   -0.2706789  
C    3.2573670    0.0002920    2.9809380  
C    2.5379467    0.0001709    1.8291961  
C    1.1435042   -0.0000331    2.2038498  
C    1.1092607    0.0000083    3.6788474  
N    2.4227561   -0.0001909    4.0882609  
C   -0.0265533    0.0002524    4.4215661  
C   -1.3003036    0.0002640    3.7214979  
O   -2.3786784    0.0004133    4.3006425  
C   -1.2877726   -0.0000311    2.1595606  
O   -2.3539958   -0.0003306    1.5592035  
C    0.0000000    0.0000000    1.4700000  
H    2.9384090    0.0000368    0.8310761  
H   -0.0296291    0.0004086    5.5027230  
H    4.3270393    0.0004765    3.1139444  
H    2.7280493    0.0013407    5.0442112  
