62

C    3.3003556    0.0005278   -1.4738969  
C    2.5232829    0.0003498   -2.6090736  
C    1.1623214   -0.0001319   -2.1820097  
C    1.1711891    0.0000583   -0.7636137  
N    2.4852304   -0.0014917   -0.3662349  
C    0.0000000    0.0000000    0.0000000  
C   -1.2020379    0.0000520   -0.6806491  
O   -2.3759246    0.0003493    0.0157727  
C   -1.2314644   -0.0005114   -2.0955516  
O   -2.5054374   -0.0008038   -2.6250197  
C   -0.0764500   -0.0007274   -2.8495198  
H    2.8036263    0.0088183    0.5858680  
H   -3.0835634    0.0000347   -0.6418833  
H   -2.4360026   -0.0011530   -3.5845937  
H   -0.1304071   -0.0013423   -3.9319090  
H    4.3715559    0.0004896   -1.3667114  
C    4.1182210   -0.7098244   -4.4345216  
C    4.3063944   -0.4605392   -5.7742659  
C    3.2826566    0.4475819   -6.1766054  
C    2.4931742    0.7193450   -5.0299630  
N    3.0267457   -0.0008949   -3.9901686  
C    1.3904705    1.5784645   -5.0572791  
C    1.0792543    2.1743282   -6.2640387  
O    0.0128541    3.0222361   -6.3468391  
C    1.8547116    1.9154236   -7.4192236  
O    1.4171383    2.5841561   -8.5437986  
C    2.9425287    1.0677818   -7.3930715  
H    5.0850042   -0.8823008   -6.3865374  
H    0.7846369    1.7896267   -4.1868896  
H   -0.0265938    3.3225737   -7.2641756  
H    1.9945726    2.3544006   -9.2782281  
H    4.6753602   -1.3383448   -3.7610850  
C    4.6981259   -2.6175572   -8.9174243  
C    5.2813642   -2.2016363  -10.0656498  
C    4.9942818   -0.7772395  -10.1375988  
C    4.2070303   -0.4936602   -8.9184182  
N    4.0302878   -1.5685931   -8.1992023  
C    3.7224577    0.8247963   -8.6151878  
C    4.0115506    1.8150237   -9.4899504  
O    3.6233081    3.0920248   -9.3331803  
C    4.8042324    1.5605805  -10.7289323  
O    5.0296660    2.5092379  -11.4802312  
C    5.2900349    0.1994985  -11.0176801  
H    5.8377695   -2.7888815  -10.7760255  
H    3.9777299    3.5564245  -10.1128413  
H    5.8608499    0.0566880  -11.9254289  
H    4.6831694   -3.6129809   -8.5028387  
C    0.0000000    0.0000000    1.4700000  
C    1.0541688    0.0001722    2.3260392  
C    0.5103138    0.0000454    3.6635956  
C   -0.9576371   -0.0002459    3.5155732  
N   -1.2018458    0.0001392    2.1615969  
C   -1.8348311   -0.0008317    4.5510609  
C   -1.2972847   -0.0009736    5.9014604  
O   -2.0050672   -0.0014265    6.9001319  
C    0.2542623   -0.0004184    6.0817573  
O    0.7184670   -0.0002256    7.2139121  
C    1.0974552   -0.0000873    4.8889129  
H    2.0940752    0.0005483    2.0517982  
H   -2.9081052   -0.0011668    4.4207061  
H    2.1707277    0.0000911    5.0223670  
H   -2.1128194   -0.0014912    1.7406791  
