58

C    0.0950458    0.0004351   -4.4015596  
C    1.1192403    0.0014130   -5.2932434  
C    0.5298398    0.0012533   -6.6113641  
C   -0.9321714    0.0001231   -6.4130920  
N   -1.1298075   -0.0007278   -5.0515383  
C   -1.8443578    0.0000533   -7.4178913  
C   -1.3534334    0.0009393   -8.7859304  
O   -2.0950446    0.0008914   -9.7597434  
C    0.1910183    0.0018907   -9.0193237  
O    0.6161280    0.0023346  -10.1667303  
C    1.0746185    0.0021557   -7.8560941  
H    2.1679388    0.0019785   -5.0548228  
H   -2.9125303   -0.0006547   -7.2508102  
H    2.1426831    0.0030210   -8.0262727  
H   -2.0258134   -0.0000364   -4.5996300  
C    3.3321177    0.0004714   -1.3379329  
C    2.6974191    0.0000116   -2.5332309  
C    1.2800443   -0.0002118   -2.2052838  
C    1.2395035    0.0000643   -0.7271296  
N    2.4394066    0.0005460   -0.2131032  
C    0.0000000    0.0000000    0.0000000  
C   -1.1468697    0.0000634   -0.7169547  
O   -2.3742196    0.0000072   -0.1695495  
C   -1.1388763    0.0001605   -2.2096359  
O   -2.2206227    0.0000904   -2.7970417  
C    0.1454530    0.0001814   -2.9324241  
H    3.1367996   -0.0000651   -3.5160943  
H   -2.9844343    0.0001024   -0.9290175  
C    7.0021998    0.0016963   -3.8667548  
C    5.7010053    0.0007395   -3.4946364  
C    5.7268797    0.0007367   -2.0400471  
C    7.1642515    0.0016713   -1.6928521  
N    7.9166784    0.0023175   -2.7595494  
C    7.6175806    0.0019955   -0.3291881  
C    6.6777001    0.0018014    0.6434164  
O    6.9577663    0.0020532    1.9577999  
C    5.2193470    0.0012355    0.3250337  
O    4.4197299    0.0009618    1.2608931  
C    4.7795907    0.0008674   -1.0815719  
H    4.8310670    0.0002031   -4.1288941  
H    8.6741772    0.0024750   -0.1044362  
H    6.0879584    0.0018437    2.3966472  
H    7.4070878    0.0020140   -4.8662741  
C    0.0000000    0.0000000    1.4700000  
C    1.0662921    0.0000102    2.3034270  
C    0.4961870   -0.0000064    3.6418889  
C   -0.9663858    0.0000850    3.4240247  
N   -1.2632773    0.0000084    2.1528658  
C   -1.8985362    0.0000517    4.5177257  
C   -1.3925775   -0.0004564    5.7720543  
O   -2.1456383   -0.0005410    6.8851312  
C    0.0786232   -0.0009323    6.0245000  
O    0.4683759   -0.0012588    7.1921102  
C    1.0143166   -0.0008442    4.8859032  
H    2.1107198   -0.0000632    2.0421868  
H   -2.9622183    0.0003270    4.3293377  
H   -1.5042274   -0.0009692    7.6184419  
H    2.0724152   -0.0013148    5.1109744  
