64

C    3.3041270    0.0001178   -1.5420432  
C    2.5845372   -0.0004779   -0.3695853  
C    1.2040007   -0.0000006   -0.7283591  
C    1.1422373    0.0006039   -2.1454374  
N    2.4348636    0.0026110   -2.6077466  
C   -0.0655186    0.0008800   -2.8497915  
C   -1.2321770    0.0002326   -2.1101397  
O   -2.4392818    0.0001149   -2.7472515  
C   -1.1911209   -0.0000006   -0.6955262  
O   -2.4371522   -0.0002319   -0.1032858  
C    0.0000000    0.0000000    0.0000000  
H    3.0031535   -0.0000661    0.6222580  
H    2.7054625   -0.0071097   -3.5745263  
H   -3.1132993   -0.0000646   -2.0551781  
H   -2.3200286   -0.0004070    0.8516413  
C    6.7748104   -0.0036706    1.2764671  
C    5.5082316   -0.0035545    0.7395824  
C    5.6573261   -0.0010104   -0.6789959  
C    7.0493885    0.0000631   -0.9511879  
N    7.6991157    0.0003497    0.2581387  
C    7.5659478    0.0022524   -2.2503990  
C    6.6607397    0.0030713   -3.2938426  
O    7.1109041    0.0048476   -4.5823934  
C    5.2680297    0.0023992   -3.0424938  
O    4.4967627    0.0037872   -4.1863858  
C    4.7577214    0.0005130   -1.7610465  
H    4.5898239   -0.0040066    1.3012937  
H    8.6954215   -0.0094974    0.3816709  
H    8.6258301    0.0032241   -2.4645276  
H    6.3261385    0.0054441   -5.1457819  
H    3.5699429    0.0031882   -3.9283021  
H    7.0920031   -0.0048575    2.3052266  
C    2.2991554   -2.1048097   -5.8924429  
C    1.6888956   -1.6397492   -7.0128789  
C    0.6412937   -0.7448181   -6.5810641  
C    0.6916331   -0.7264670   -5.1066422  
N    1.7177148   -1.5716516   -4.7520878  
C   -0.1387086    0.0017020   -4.3179679  
C   -1.1495782    0.8219302   -4.9644225  
O   -1.9445183    1.5135267   -4.3414737  
C   -1.2212027    0.8175536   -6.5247612  
O   -2.0683181    1.5039444   -7.0802108  
C   -0.2716616   -0.0081808   -7.2666415  
H    1.9434327   -1.8946828   -8.0262068  
H   -0.3277644   -0.0054792   -8.3467194  
H    3.1245930   -2.7923373   -5.8038523  
H    2.0018696   -1.7690375   -3.8100996  
C    2.5285572    2.1210227    2.9438989  
C    1.9331703    1.6216660    4.0790748  
C    0.8903039    0.7472258    3.6520102  
C    0.8972198    0.7527806    2.2336141  
N    1.9028376    1.5986179    1.8362361  
C    0.0000000    0.0000000    1.4700000  
C   -0.9207814   -0.7726952    2.1506477  
O   -1.8198395   -1.5274828    1.4542253  
C   -0.9436862   -0.7911793    3.5655508  
O   -1.9197945   -1.6098497    4.0950179  
C   -0.0590329   -0.0485852    4.3195194  
H    2.2150357    1.8593692    5.0905303  
H    2.1533708    1.7953814    0.8841339  
H   -2.3621246   -1.9821033    2.1118817  
H   -1.8668290   -1.5649508    5.0545920  
H   -0.1007624   -0.0827977    5.4019087  
H    3.3491200    2.8096064    2.8367138  
