58

C    0.7642978   -0.7047275   -9.6184639  
C    1.5581023   -0.6988394  -10.7202409  
C    1.5723003    0.6551255  -11.2216522  
C    0.7155781    1.4432197  -10.3151614  
N    0.2561371    0.5603401   -9.3652527  
C    0.4716154    2.7714712  -10.4490782  
C    1.0942107    3.4715419  -11.5602981  
O    0.9362046    4.6677135  -11.7664763  
C    2.0052031    2.6567038  -12.5328914  
O    2.5345063    3.2352625  -13.4722359  
C    2.1928631    1.2293555  -12.2852780  
H    2.0745959   -1.5463065  -11.1345448  
H   -0.1599397    3.3308226   -9.7729313  
H    2.8252795    0.6724007  -12.9631975  
H    0.5076039   -1.5268517   -8.9703044  
C    0.2055739   -0.7043959   -5.1603477  
C   -0.8712826    0.0001710   -4.7267111  
C   -1.3726443    0.7423358   -5.8592585  
C   -0.4933182    0.4099879   -6.9964131  
N    0.4429031   -0.4710989   -6.5064486  
C   -0.6357676    0.9095501   -8.2501479  
C   -1.7278970    1.8365864   -8.4958973  
O   -1.9397494    2.3410839   -9.5908411  
C   -2.6713151    2.2028683   -7.3061057  
O   -3.5940523    2.9825347   -7.5008834  
C   -2.4172089    1.5997594   -6.0001417  
H   -3.0751238    1.8584033   -5.1816219  
H    0.8458871   -1.3742665   -4.6097462  
H    1.1831969   -0.8829509   -7.0443978  
C    1.0965514    0.0001359   -0.8010305  
C    0.0000000    0.0000000    0.0000000  
C   -1.1546563    0.0001470   -0.8669513  
C   -0.6372014    0.0003519   -2.2486282  
N    0.7342871    0.0007337   -2.1395014  
C   -1.4147739    0.0001352   -3.3608717  
C   -2.8576049   -0.0001048   -3.1854462  
O   -3.6427779   -0.0002494   -4.1244907  
C   -3.4275840   -0.0000725   -1.7311666  
O   -4.6406831    0.0000333   -1.5710060  
C   -2.4891867   -0.0001091   -0.6116744  
H   -2.8919122   -0.0002918    0.3920866  
H    2.1388272    0.0000663   -0.5261648  
H    1.3735872   -0.0006099   -2.9130262  
C    0.0000000    0.0000000    1.4700000  
C    1.0541688    0.0001722    2.3260392  
C    0.5103138    0.0000454    3.6635956  
C   -0.9576371   -0.0002459    3.5155732  
N   -1.2018458    0.0001392    2.1615969  
C   -1.8348311   -0.0008317    4.5510609  
C   -1.2972847   -0.0009736    5.9014604  
O   -2.0050672   -0.0014265    6.9001319  
C    0.2542623   -0.0004184    6.0817573  
O    0.7184670   -0.0002256    7.2139121  
C    1.0974552   -0.0000873    4.8889129  
H    2.0940752    0.0005483    2.0517982  
H   -2.9081052   -0.0011668    4.4207061  
H    2.1707277    0.0000911    5.0223670  
H   -2.1128194   -0.0014912    1.7406791  
