58

C    6.1548999    0.7273313   -5.8860265  
C    6.0840288    0.5113419   -7.2248321  
C    7.1399152   -0.4153640   -7.5582327  
C    7.8367231   -0.7237939   -6.2948566  
N    7.1912946    0.0008650   -5.3195717  
C    8.8967899   -1.5642023   -6.1867873  
C    9.3840956   -2.2077413   -7.3954748  
O   10.3329268   -2.9810301   -7.4021981  
C    8.6614209   -1.8954701   -8.7445607  
O    9.0629579   -2.4311269   -9.7688172  
C    7.5291507   -0.9725835   -8.7347271  
H    5.3733136    0.9511600   -7.9016316  
H    9.3934977   -1.7768885   -5.2503279  
H    7.0341220   -0.7618264   -9.6729448  
H    5.5373366    1.3562600   -5.2655791  
C    4.7161325   -0.0005435   -1.6923264  
C    5.6957067   -0.0010600   -0.7518430  
C    6.9559333   -0.0010601   -1.4565873  
C    6.6279070   -0.0004679   -2.8950547  
N    5.2541447   -0.0005754   -2.9703260  
C    7.5472422    0.0001052   -3.8933172  
C    8.9536517   -0.0000847   -3.5265089  
O    9.8573549    0.0003300   -4.3521116  
C    9.3240199   -0.0009619   -2.0090665  
O   10.5048028   -0.0014354   -1.6881096  
C    8.2443355   -0.0012470   -1.0251284  
H    5.5518787   -0.0015841    0.3139556  
H    8.5092052   -0.0016496    0.0234744  
H    4.7240359    0.0012978   -3.8223991  
C    3.2573665   -0.0002920   -1.5109385  
C    2.5379463   -0.0001709   -0.3591964  
C    1.1435038    0.0000331   -0.7338500  
C    1.1092599   -0.0000083   -2.2088477  
N    2.4227553    0.0001909   -2.6182613  
C   -0.0265539   -0.0002524   -2.9515660  
C   -1.3003040   -0.0002640   -2.2514977  
O   -2.3786790   -0.0004133   -2.8306421  
C   -1.2877727    0.0000311   -0.6895603  
O   -2.3539959    0.0003306   -0.0892030  
C    0.0000000    0.0000000    0.0000000  
H    2.9384091   -0.0000367    0.6389234  
H   -0.0296303   -0.0004086   -4.0327229  
H    2.7280482   -0.0013407   -3.5742119  
C    0.8175213    0.6860729    2.3021913  
C    0.0000000    0.0000000    1.4700000  
C   -0.8887526   -0.7456559    2.3478473  
C   -0.4549825   -0.3816753    3.7138435  
N    0.5448156    0.4573574    3.6934124  
C   -1.0945674   -0.9182058    4.8835240  
C   -2.1210866   -1.7789155    4.6970523  
O   -2.8083856   -2.3554314    5.6976972  
C   -2.5824069   -2.1655116    3.3310774  
O   -3.5227682   -2.9541547    3.2362962  
C   -1.9100805   -1.6015804    2.1470656  
H   -0.7567140   -0.6349833    5.8697035  
H   -3.4728268   -2.9124471    5.2533954  
H   -2.2742832   -1.9066565    1.1752040  
H    1.6189533    1.3585343    2.0405121  
