58

C    0.0000000    0.0000000    0.0000000  
C    1.0541691   -0.0001726   -0.8560388  
C    0.5103142   -0.0000463   -2.1935954  
C   -0.9576361    0.0002452   -2.0455733  
N   -1.2018455   -0.0001395   -0.6915971  
C   -1.8348302    0.0008309   -3.0810613  
C   -1.2972833    0.0009725   -4.4314608  
O   -2.0050655    0.0014253   -5.4301324  
C    0.2542638    0.0004173   -4.6117570  
O    0.7184689    0.0002241   -5.7439118  
C    1.0974565    0.0000863   -3.4189125  
H    2.0940756   -0.0005488   -0.5817978  
H    2.1707287   -0.0000922   -3.5523662  
H   -2.1128192    0.0014911   -0.2706797  
C   -4.6945335    2.0112722   -0.3161628  
C   -3.5419722    1.6295577   -0.9140558  
C   -3.9513657    0.7131099   -1.9671559  
C   -5.4249851    0.6554369   -1.8589736  
N   -5.8663722    1.4144225   -0.8929984  
C   -6.2212857   -0.1553992   -2.7384830  
C   -5.5748579   -0.8755711   -3.6833733  
O   -6.1915659   -1.6747287   -4.5705372  
C   -4.0887144   -0.8381767   -3.8180591  
O   -3.5674042   -1.5194704   -4.7008358  
C   -3.2941063    0.0012866   -2.9038250  
H   -2.5379809    1.9325456   -0.6705902  
H   -7.2964575   -0.1786966   -2.6366327  
H   -5.4713998   -2.0497111   -5.1089632  
C   -1.9627426    4.4209985    2.2519064  
C   -2.4092402    3.5775618    1.2923054  
C   -3.8554947    3.5627866    1.4492455  
C   -4.1169612    4.4780468    2.5808449  
N   -3.0112527    4.9842071    3.0553977  
C   -5.4477100    4.7396824    3.0559674  
C   -6.4707788    4.1156524    2.4288704  
O   -7.7626188    4.2671524    2.7668620  
C   -6.2392465    3.1865948    1.2837039  
O   -7.2175227    2.6532709    0.7604813  
C   -4.8649593    2.9345580    0.8149422  
H   -1.8288584    3.0327899    0.5674219  
H   -5.6095708    5.4129786    3.8850539  
H   -8.2503284    3.6995713    2.1430480  
H   -0.9442235    4.7025224    2.4671669  
C    3.2798086   -0.0005857    2.9199648  
C    2.5571146   -0.0005566    4.0696553  
C    1.1637436   -0.0001548    3.6910360  
C    1.1336965    0.0000200    2.2159470  
N    2.4483514    0.0001428    1.8102719  
C    0.0000000    0.0000000    1.4700000  
C   -1.2757367    0.0000186    2.1664417  
O   -2.3524596    0.0000640    1.5842315  
C   -1.2676493    0.0000873    3.7284083  
O   -2.3355761    0.0004100    4.3257297  
C    0.0181563   -0.0001760    4.4216297  
H    2.9547357   -0.0006076    5.0689105  
H    0.0150794   -0.0003319    5.5031631  
H    4.3498549   -0.0008612    2.7900019  
H    2.7563627   -0.0012824    0.8551938  
