62

C    1.1188644    0.0008226   -0.8003805  
C    0.0000000    0.0000000    0.0000000  
C   -1.1323860    0.0008892   -0.8673527  
C   -0.6382656    0.0019674   -2.1969283  
N    0.7324019    0.0038482   -2.1202239  
C   -1.4770908    0.0027309   -3.3154809  
C   -2.8395472    0.0020928   -3.0876856  
O   -3.7039192    0.0024401   -4.1440350  
C   -3.3517869    0.0013914   -1.7684331  
O   -4.7300491    0.0012343   -1.7073130  
C   -2.5248543    0.0009112   -0.6644819  
H   -1.1067561    0.0036980   -4.3313812  
H   -4.5940030    0.0021805   -3.7685135  
H   -4.9934602    0.0007241   -0.7819917  
H   -2.9462580    0.0005591    0.3339653  
H    2.1619895    0.0009363   -0.5342066  
C    4.5154634   -2.1146742   -2.8156716  
C    4.7985787   -1.6646921   -4.0652463  
C    3.7280662   -0.7729166   -4.4441598  
C    2.7913715   -0.7399853   -3.3047264  
N    3.3260556   -1.5745760   -2.3505458  
C    1.6478439   -0.0100095   -3.2702997  
C    1.3174724    0.7969142   -4.4331687  
O    0.3100018    1.4889656   -4.4992704  
C    2.2949959    0.7769792   -5.6513051  
O    2.0272068    1.4520882   -6.6360779  
C    3.4969331   -0.0492770   -5.5706860  
H    4.1686930   -0.0573906   -6.4182686  
H    5.0755455   -2.7955770   -2.1955351  
H    2.9164744   -1.7608854   -1.4535623  
C    6.5332490   -3.2783478   -4.9560438  
C    5.9747002   -2.0240842   -4.8705258  
C    6.7524900   -1.1643976   -5.7015381  
C    7.7805514   -1.9568049   -6.2734711  
N    7.6194652   -3.2346872   -5.7984077  
C    8.7376511   -1.4363500   -7.1497565  
C    8.6552481   -0.0915299   -7.4544633  
O    9.5642120    0.4682197   -8.3050395  
C    7.6370038    0.7155793   -6.8935990  
O    7.6894035    2.0347094   -7.2942159  
C    6.6926301    0.2028683   -6.0288377  
H    8.1962833   -4.0203694   -6.0391689  
H    9.5237870   -2.0349566   -7.5889183  
H    9.3290897    1.4022405   -8.3797903  
H    6.9681448    2.5100874   -6.8706533  
H    5.9245814    0.8456634   -5.6148405  
H    6.2436159   -4.2003355   -4.4816914  
C    2.4951002    2.0940188    2.9809380  
C    1.9440701    1.6314916    1.8291961  
C    0.8759964    0.7350050    2.2038498  
C    0.8497377    0.7130254    3.6788474  
N    1.8560616    1.5571714    4.0882609  
C   -0.0205033   -0.0168748    4.4215661  
C   -0.9962600   -0.8356168    3.7214979  
O   -1.8224391   -1.5286685    4.3006425  
C   -0.9864710   -0.8277881    2.1595606  
O   -1.8030528   -1.5133726    1.5592035  
C    0.0000000    0.0000000    1.4700000  
H    2.2509283    1.8888011    0.8310761  
H   -0.0229599   -0.0187323    5.5027230  
H    3.3143982    2.7817323    3.1139444  
H    2.0889452    1.7545833    5.0442112  
