64

C    2.3128796   -2.1207451   -5.9853291  
C    1.8202490   -1.6594122   -4.7865988  
C    0.7463178   -0.7716432   -5.0917841  
C    0.6288901   -0.7306956   -6.5047457  
N    1.5962668   -1.5596063   -7.0163180  
C   -0.3301659    0.0460747   -7.1617305  
C   -1.1864717    0.7949190   -6.3780528  
O   -2.1419344    1.5709315   -6.9678911  
C   -1.0847733    0.7675649   -4.9667678  
O   -2.0088871    1.5678195   -4.3272760  
C   -0.1387079    0.0017019   -4.3179684  
H    2.1902180   -1.9286751   -3.8121171  
H   -0.4247432    0.0817400   -8.2382921  
H   -2.6233439    2.0035648   -6.2507168  
H   -1.8718317    1.4918812   -3.3780374  
H    3.1196528   -2.8045578   -6.1865156  
C    2.5987492   -5.2720490   -9.2007360  
C    2.6407109   -4.7272224  -10.4632218  
C    2.3467340   -3.3380944  -10.3272008  
C    2.1327000   -3.0911695   -8.9469306  
N    2.2914371   -4.2869757   -8.2915933  
C    1.8198238   -1.8243393   -8.4448970  
C    1.7215168   -0.7878380   -9.3527403  
O    1.4187524    0.4695624   -8.9165160  
C    1.9312038   -1.0143824  -10.7338719  
O    1.7974889    0.1186417  -11.5095788  
C    2.2396298   -2.2639329  -11.2298799  
H    2.8555666   -5.2650869  -11.3707085  
H    2.2101554   -4.4205224   -7.2998578  
H    1.3996210    1.0334069   -9.7007220  
H    1.9547415   -0.1211886  -12.4279232  
H    2.3945784   -2.4069512  -12.2929015  
H    2.7623083   -6.2856616   -8.8770134  
C    3.3041273    0.0001178   -1.5420428  
C    2.5845373   -0.0004780   -0.3695851  
C    1.2040007   -0.0000007   -0.7283589  
C    1.1422374    0.0006038   -2.1454372  
N    2.4348641    0.0026111   -2.6077464  
C   -0.0655179    0.0008799   -2.8497918  
C   -1.2321766    0.0002325   -2.1101402  
O   -2.4392814    0.0001148   -2.7472522  
C   -1.1911209   -0.0000007   -0.6955266  
O   -2.4371528   -0.0002320   -0.1032862  
C    0.0000000    0.0000000    0.0000000  
H    3.0031533   -0.0000660    0.6222584  
H    2.7054631   -0.0071097   -3.5745261  
H   -3.1132988   -0.0000648   -2.0551787  
H   -2.3200282   -0.0004072    0.8516409  
H    4.3686625    0.0004073   -1.7024290  
C    0.8400945    0.7047457    2.2710304  
C    0.0000000    0.0000000    1.4700000  
C   -0.8844236   -0.7423113    2.3369512  
C   -0.4878984   -0.4098547    3.7186280  
N    0.5629682    0.4714286    3.6095011  
C   -1.0836927   -0.9095027    4.8308716  
C   -2.1891196   -1.8367527    4.6554461  
O   -2.7906899   -2.3413415    5.5944904  
C   -2.6257283   -2.2031529    3.2011665  
O   -3.5549479   -2.9829990    3.0410059  
C   -1.9068976   -1.5999348    2.0816745  
H   -0.7774656   -0.6525820    5.8354244  
H   -2.2155208   -1.8586617    1.0779135  
H    1.6384792    1.3747609    1.9961646  
H    1.0518368    0.8833920    4.3830260  
