60

C    3.3041278    0.0001175   -1.5420429  
C    2.5845373   -0.0004783   -0.3695847  
C    1.2040007   -0.0000008   -0.7283586  
C    1.1422379    0.0006034   -2.1454372  
N    2.4348646    0.0026105   -2.6077463  
C   -0.0655175    0.0008794   -2.8497923  
C   -1.2321767    0.0002322   -2.1101401  
O   -2.4392808    0.0001145   -2.7472525  
C   -1.1911209   -0.0000007   -0.6955266  
O   -2.4371524   -0.0002320   -0.1032865  
C    0.0000000    0.0000000    0.0000000  
H    3.0031536   -0.0000660    0.6222585  
H   -0.1193538    0.0014838   -3.9297471  
H   -3.1132982   -0.0000650   -2.0551795  
H   -2.3200279   -0.0004069    0.8516405  
H    4.3686628    0.0004068   -1.7024286  
C    3.8455963   -0.6998096   -4.5966065  
C    2.8310670   -0.0116225   -4.0232745  
C    2.2085849    0.7190726   -5.1164813  
C    2.9960462    0.3450195   -6.3108733  
N    3.9569639   -0.4865471   -6.0123364  
C    2.6930708    0.8655748   -7.6156009  
C    1.6505617    1.7206273   -7.7223466  
O    1.2559059    2.2824578   -8.8776099  
C    0.8364777    2.1170957   -6.5356536  
O   -0.0980375    2.8998203   -6.7066633  
C    1.1672386    1.5695162   -5.2079941  
H    0.4938958    2.8389453   -8.6350912  
H    0.5532541    1.8813545   -4.3737223  
H    4.5497461   -1.3639110   -4.1210901  
C    3.4991826    0.4705104   -8.7796486  
C    4.5598974   -0.3693602   -8.8125341  
C    4.9711178   -0.3997747  -10.2076946  
C    4.0235422    0.5034714  -10.8953218  
N    3.1584299    1.0166370  -10.0633185  
C    4.0955771    0.7479626  -12.3095785  
C    5.0701856    0.1190159  -13.0052073  
O    5.2542703    0.2548993  -14.3294769  
C    6.0418456   -0.7982109  -12.3398256  
O    6.9029970   -1.3368726  -13.0351547  
C    5.9471639   -1.0327253  -10.8879440  
H    5.0079958   -0.9023442   -7.9914298  
H    3.3898882    1.4127504  -12.7859921  
H    6.0198034   -0.3123204  -14.5328817  
H    6.6699279   -1.7039962  -10.4438302  
C    2.5128556    2.1077716    2.9199648  
C    1.9592212    1.6432552    4.0696553  
C    0.8915788    0.7479214    3.6910360  
C    0.8684491    0.7287414    2.2159470  
N    1.8754542    1.5738793    1.8102719  
C    0.0000000    0.0000000    1.4700000  
C   -0.9772830   -0.8200135    2.1664417  
O   -1.8021297   -1.5120829    1.5842315  
C   -0.9711318   -0.8147624    3.7284083  
O   -1.7894187   -1.5009653    4.3257297  
C    0.0140216    0.0115358    4.4216297  
H    2.2638494    1.8988021    5.0689105  
H    0.0117648    0.0094386    5.5031631  
H    3.3327358    2.7953732    2.7900019  
H    2.1123206    1.7707734    0.8551938  
