58

C    4.8298522   -1.1036128   -4.9087183  
C    5.6244384   -1.9769519   -4.2379082  
C    6.7582758   -2.2530684   -5.0882063  
C    6.5576965   -1.4633188   -6.3181871  
N    5.3706764   -0.7892966   -6.1462376  
C    7.4132509   -1.4501495   -7.3715434  
C    8.6114936   -2.2685853   -7.2883882  
O    9.4433787   -2.3246192   -8.1845604  
C    8.8440613   -3.1132377   -5.9952216  
O    9.8491621   -3.8063624   -5.9139059  
C    7.8504256   -3.0450531   -4.9266288  
H    5.4375111   -2.3817026   -3.2592105  
H    7.2474587   -0.8636012   -8.2645070  
H    8.0189840   -3.6327461   -4.0344809  
H    4.9614052   -0.1636842   -6.8156800  
C    2.9127944   -0.7214797   -3.3153362  
C    3.5543783   -0.5031937   -4.4921099  
C    2.7457297    0.4250582   -5.2466109  
C    1.5720421    0.7318925   -4.4069087  
N    1.7334695    0.0049281   -3.2500363  
C    0.5691430    1.5730721   -4.7651197  
C    0.6510615    2.2191848   -6.0644901  
O   -0.2019644    2.9933463   -6.4784003  
C    1.8850639    1.9086368   -6.9703614  
O    1.9647776    2.4464642   -8.0665592  
C    2.9022259    0.9847054   -6.4747973  
H   -0.2829824    1.7845577   -4.1341953  
H    3.7535956    0.7751533   -7.1080283  
H    3.2021854   -1.3520628   -2.4904076  
C    1.1319246    0.0015678   -0.8009268  
C    0.7969914    0.0034958   -2.1169401  
C   -0.6453340    0.0035696   -2.1842669  
C   -1.1266832    0.0015410   -0.7896025  
N    0.0000000    0.0000000    0.0000000  
C   -2.4346129    0.0013913   -0.4276292  
C   -3.4350111    0.0031335   -1.4820181  
O   -4.6384614    0.0030875   -1.2583914  
C   -2.9478961    0.0050442   -2.9661074  
O   -3.7809382    0.0062135   -3.8623773  
C   -1.5113825    0.0053055   -3.2312122  
H   -2.7664565    0.0000174    0.6013448  
H   -1.1823533    0.0068381   -4.2614848  
H    2.1104316    0.0009435   -0.3488059  
C    2.3971438    2.0127888    3.1728260  
C    1.9431056    1.6308205    1.9564670  
C    0.8496017    0.7127664    2.2356185  
C    0.7794028    0.6545384    3.7115134  
N    1.6840587    1.4146091    4.2663826  
C   -0.1885723   -0.1578550    4.3957118  
C   -1.0476298   -0.8789867    3.6398520  
O   -2.0015663   -1.6796266    4.1448486  
C   -1.0022026   -0.8410666    2.1483229  
O   -1.8147390   -1.5232959    1.5241687  
C    0.0000000    0.0000000    1.4700000  
H    2.3054237    1.9346118    0.9892483  
H   -0.2170646   -0.1815267    5.4753125  
H   -2.4487139   -2.0549881    3.3649027  
H    3.2048689    2.6911772    3.3971983  
