58

C   11.0716194    2.1066217   -2.5661610  
C   12.0808981    1.6428630   -1.7849064  
C   11.4883096    0.7487212   -0.8183742  
C   10.0406858    0.7294147   -1.1026325  
N    9.8535206    1.5733491   -2.1729754  
C    9.1302743    0.0015974   -0.4075514  
C    9.6080308   -0.8172168    0.6941871  
O    8.8668506   -1.5083952    1.3806449  
C   11.1370969   -0.8118106    1.0131440  
O   11.5510014   -1.4970075    1.9385891  
C   12.0202305    0.0134235    0.1928303  
H   13.1217026    1.8981621   -1.8752585  
H   13.0776269    0.0114412    0.4200616  
H   11.1151783    2.7932641   -3.3959290  
H    8.9686519    1.7698708   -2.6035960  
C    6.6781261    0.0000524   -4.1292993  
C    7.7444182    0.0009684   -3.2958728  
C    7.1743128    0.0014027   -1.9574109  
C    5.7117403    0.0007371   -2.1752745  
N    5.4148486   -0.0001362   -3.4464332  
C    4.7795901    0.0008674   -1.0815733  
C    5.2855494    0.0012391    0.1727552  
O    4.5324883    0.0014070    1.2858322  
C    6.7567502    0.0015422    0.4252007  
O    7.1465030    0.0019990    1.5928107  
C    7.6924431    0.0014448   -0.7133963  
H    8.7888458    0.0012168   -3.5571132  
H    5.1738997    0.0016452    2.0191429  
H    6.6781258   -0.0005127   -5.2077115  
C    3.3321168    0.0004716   -1.3379341  
C    2.6974177    0.0000118   -2.5332316  
C    1.2800432   -0.0002116   -2.2052842  
C    1.2395033    0.0000644   -0.7271298  
N    2.4394059    0.0005460   -0.2131041  
C    0.0000000    0.0000000    0.0000000  
C   -1.1468704    0.0000635   -0.7169542  
O   -2.3742206    0.0000074   -0.1695488  
C   -1.1388774    0.0001608   -2.2096352  
O   -2.2206238    0.0000906   -2.7970409  
C    0.1454514    0.0001818   -2.9324241  
H    3.1367978   -0.0000649   -3.5160956  
H   -2.9844350    0.0001027   -0.9290164  
H    0.1083567    0.0003684   -4.0135594  
C    0.0000000    0.0000000    1.4700000  
C    1.0662921    0.0000102    2.3034270  
C    0.4961870   -0.0000064    3.6418889  
C   -0.9663858    0.0000850    3.4240247  
N   -1.2632773    0.0000084    2.1528658  
C   -1.8985362    0.0000517    4.5177257  
C   -1.3925775   -0.0004564    5.7720543  
O   -2.1456383   -0.0005410    6.8851312  
C    0.0786232   -0.0009323    6.0245000  
O    0.4683759   -0.0012588    7.1921102  
C    1.0143166   -0.0008442    4.8859032  
H    2.1107198   -0.0000632    2.0421868  
H   -2.9622183    0.0003270    4.3293377  
H   -1.5042274   -0.0009692    7.6184419  
H    2.0724152   -0.0013148    5.1109744  
