64

C    3.3041269    0.0001179   -1.5420437  
C    2.5845370   -0.0004780   -0.3695855  
C    1.2040003   -0.0000006   -0.7283588  
C    1.1422370    0.0006040   -2.1454376  
N    2.4348635    0.0026113   -2.6077471  
C   -0.0655191    0.0008803   -2.8497918  
C   -1.2321772    0.0002328   -2.1101395  
O   -2.4392820    0.0001150   -2.7472512  
C   -1.1911212   -0.0000006   -0.6955261  
O   -2.4371525   -0.0002319   -0.1032859  
C    0.0000000    0.0000000    0.0000000  
H    3.0031534   -0.0000662    0.6222577  
H   -0.1193554    0.0014851   -3.9297468  
H   -3.1132993   -0.0000643   -2.0551784  
H   -2.3200279   -0.0004071    0.8516418  
H    4.3686619    0.0004073   -1.7024300  
C    5.6928642   -2.1325511   -4.8023243  
C    4.8437646   -1.6629831   -3.8271308  
C    3.9187201   -0.7861184   -4.4674439  
C    4.2553064   -0.7600043   -5.8451067  
N    5.3381020   -1.5868696   -6.0138210  
C    3.5511940    0.0032266   -6.7813186  
C    2.4877412    0.7535316   -6.3184051  
O    1.7657442    1.5166953   -7.1897918  
C    2.1367180    0.7408789   -4.9474789  
O    1.0544917    1.5406705   -4.6434017  
C    2.8310655   -0.0116212   -4.0232755  
H    4.8866006   -1.9198936   -2.7825466  
H    3.8027850    0.0275524   -7.8326568  
H    1.0801148    1.9528847   -6.6673782  
H    0.8837157    1.4751247   -3.6988683  
H    6.5243657   -2.8124287   -4.7293116  
C    6.0041731   -1.8640850   -7.2946021  
C    7.0785708   -2.6753454   -7.5774334  
C    7.3141169   -2.5800936   -8.9810163  
C    6.3441179   -1.6883820   -9.5062577  
N    5.5635901   -1.2735715   -8.4558639  
C    6.2770851   -1.3574749  -10.8630165  
C    7.2063774   -1.9370727  -11.7048368  
O    7.1864036   -1.6484159  -13.0387374  
C    8.1817238   -2.8294834  -11.1997432  
O    9.0356175   -3.3235541  -12.1641623  
C    8.2482742   -3.1565957   -9.8614252  
H    7.6245953   -3.2642888   -6.8604981  
H    4.7978344   -0.6275900   -8.5214950  
H    5.5401458   -0.6786578  -11.2696248  
H    7.9083893   -2.1512041  -13.4377439  
H    9.6625004   -3.9174245  -11.7399694  
H    9.0064665   -3.8434093   -9.5037803  
C    0.8400945    0.7047457    2.2710304  
C    0.0000000    0.0000000    1.4700000  
C   -0.8844236   -0.7423113    2.3369512  
C   -0.4878984   -0.4098547    3.7186280  
N    0.5629682    0.4714286    3.6095011  
C   -1.0836927   -0.9095027    4.8308716  
C   -2.1891196   -1.8367527    4.6554461  
O   -2.7906899   -2.3413415    5.5944904  
C   -2.6257283   -2.2031529    3.2011665  
O   -3.5549479   -2.9829990    3.0410059  
C   -1.9068976   -1.5999348    2.0816745  
H   -0.7774656   -0.6525820    5.8354244  
H   -2.2155208   -1.8586617    1.0779135  
H    1.6384792    1.3747609    1.9961646  
H    1.0518368    0.8833920    4.3830260  
