64

C    1.9074112   -2.1157062   -5.2171226  
C    1.7366763   -1.6153229   -6.4871355  
C    0.6103639   -0.7412450   -6.4423320  
C    0.1310751   -0.7480682   -5.1073558  
N    0.9400196   -1.5942801   -4.3903116  
C   -0.9736297    0.0040464   -4.6965763  
C   -1.6058300    0.7773677   -5.6507641  
O   -2.6892501    1.5315498   -5.3037409  
C   -1.1427633    0.7971178   -6.9879239  
O   -1.8787355    1.6162798   -7.8189842  
C   -0.0531715    0.0551811   -7.3939361  
H    2.3479778   -1.8521270   -7.3410843  
H    0.8493709   -1.7918996   -3.4101534  
H   -2.9736278    1.9867686   -6.1069657  
H   -1.5003154    1.5722386   -8.7024216  
H    2.6418358   -2.8044013   -4.8359679  
C    1.4495249   -3.0987296  -10.1839911  
C    0.9637454   -2.4287207   -9.0850949  
C    0.8310699   -1.0583542   -9.4580464  
C    1.2542272   -0.9514624  -10.8076543  
N    1.6249151   -2.2082251  -11.2172331  
C    1.2574655    0.2600473  -11.5055235  
C    0.8253767    1.3840741  -10.8287373  
O    0.8077930    2.5926918  -11.4627299  
C    0.3996783    1.2977060   -9.4818368  
O   -0.0008946    2.5047050   -8.9470104  
C    0.3964725    0.1029018   -8.7926644  
H    0.7343881   -2.8728224   -8.1315949  
H    1.9591421   -2.4448422  -12.1339042  
H    1.5788975    0.3481942  -12.5341699  
H    0.4773602    3.2335186  -10.8197520  
H   -0.2725473    2.3584079   -8.0357449  
H    1.6861270   -4.1411205  -10.3120528  
C    1.1188642    0.0008222   -0.8003808  
C    0.0000000    0.0000000    0.0000000  
C   -1.1323862    0.0008899   -0.8673528  
C   -0.6382663    0.0019679   -2.1969280  
N    0.7324016    0.0038481   -2.1202242  
C   -1.4770914    0.0027318   -3.3154808  
C   -2.8395473    0.0020945   -3.0876857  
O   -3.7039201    0.0024425   -4.1440349  
C   -3.3517868    0.0013931   -1.7684331  
O   -4.7300497    0.0012366   -1.7073121  
C   -2.5248543    0.0009123   -0.6644817  
H    1.3576314   -0.0056167   -2.9057046  
H   -4.5940032    0.0021826   -3.7685128  
H   -4.9934602    0.0007259   -0.7819913  
H   -2.9462577    0.0005603    0.3339659  
H    2.1619895    0.0009355   -0.5342068  
C    2.5128556    2.1077716    2.9199648  
C    1.9592212    1.6432552    4.0696553  
C    0.8915788    0.7479214    3.6910360  
C    0.8684491    0.7287414    2.2159470  
N    1.8754542    1.5738793    1.8102719  
C    0.0000000    0.0000000    1.4700000  
C   -0.9772830   -0.8200135    2.1664417  
O   -1.8021297   -1.5120829    1.5842315  
C   -0.9711318   -0.8147624    3.7284083  
O   -1.7894187   -1.5009653    4.3257297  
C    0.0140216    0.0115358    4.4216297  
H    2.2638494    1.8988021    5.0689105  
H    0.0117648    0.0094386    5.5031631  
H    3.3327358    2.7953732    2.7900019  
H    2.1123206    1.7707734    0.8551938  
