58

C    9.8790690    0.7281828   -0.8816368  
C   11.2167682    0.5119137   -0.9703025  
C   11.5639550   -0.4150060    0.0809428  
C   10.3098730   -0.7232571    0.7944207  
N    9.3262641    0.0016992    0.1620910  
C   10.2157032   -1.5637846    1.8557168  
C   11.4306124   -2.2076499    2.3268503  
O   11.4497630   -2.9810680    3.2754069  
C   12.7700545   -1.8955728    1.5863714  
O   13.7994340   -2.4315043    1.9742053  
C   12.7453920   -0.9725317    0.4544533  
H   11.8841691    0.9516816   -1.6898813  
H    9.2858738   -1.7763353    2.3647843  
H   13.6770009   -0.7619103   -0.0529592  
H    9.2506151    1.3573284   -1.4908265  
C    5.6664810    0.0014065   -2.2647026  
C    4.7390840    0.0009613   -1.2727298  
C    5.4604955    0.0006395   -0.0219695  
C    6.8944817    0.0009654   -0.3690623  
N    6.9515101    0.0010264   -1.7437031  
C    7.9048604    0.0011994    0.5369398  
C    7.5567542    0.0008993    1.9480945  
O    8.3942809    0.0010144    2.8407591  
C    6.0443622    0.0002997    2.3385745  
O    5.7391076   -0.0002635    3.5235135  
C    5.0461778    0.0003723    1.2720471  
H    4.0011833    0.0001602    1.5508123  
H    5.5192864    0.0017636   -3.3325147  
H    7.7964707    0.0027872   -2.2850761  
C    3.2798077    0.0005856   -1.4499661  
C    2.5571132    0.0005565   -2.5996564  
C    1.1637425    0.0001547   -2.2210366  
C    1.1336959   -0.0000200   -0.7459475  
N    2.4483509   -0.0001429   -0.3402730  
C    0.0000000    0.0000000    0.0000000  
C   -1.2757370   -0.0000187   -0.6964411  
O   -2.3524597   -0.0000640   -0.1142306  
C   -1.2676502   -0.0000874   -2.2584078  
O   -2.3355774   -0.0004102   -2.8557287  
C    0.0181551    0.0001758   -2.9516297  
H    2.9547342    0.0006074   -3.5989118  
H    0.0150776    0.0003317   -4.0331632  
H    2.7563626    0.0012823    0.6148051  
C    0.0000000    0.0000000    1.4700000  
C    1.0541688    0.0001722    2.3260392  
C    0.5103138    0.0000454    3.6635956  
C   -0.9576371   -0.0002459    3.5155732  
N   -1.2018458    0.0001392    2.1615969  
C   -1.8348311   -0.0008317    4.5510609  
C   -1.2972847   -0.0009736    5.9014604  
O   -2.0050672   -0.0014265    6.9001319  
C    0.2542623   -0.0004184    6.0817573  
O    0.7184670   -0.0002256    7.2139121  
C    1.0974552   -0.0000873    4.8889129  
H    2.0940752    0.0005483    2.0517982  
H   -2.9081052   -0.0011668    4.4207061  
H    2.1707277    0.0000911    5.0223670  
H   -2.1128194   -0.0014912    1.7406791  
