58

C    6.8354439   -0.0024597   -4.0255212  
C    5.5758876   -0.0020017   -3.5179843  
C    5.7016162   -0.0003813   -2.0795735  
C    7.1480384    0.0000996   -1.7886225  
N    7.7802453   -0.0016127   -3.0105885  
C    7.6812953    0.0019477   -0.5406887  
C    6.7698191    0.0033452    0.5914530  
O    7.1520250    0.0049834    1.7543012  
C    5.2340018    0.0026140    0.3067200  
O    4.4569006    0.0034707    1.2519041  
C    4.7795897    0.0008677   -1.0815734  
H    4.6629023   -0.0028997   -4.0863761  
H    8.7453476    0.0023989   -0.3491115  
H    7.1529577   -0.0035616   -5.0556057  
H    8.7747883   -0.0002010   -3.1444920  
C    3.3321166    0.0004717   -1.3379342  
C    2.6974176    0.0000121   -2.5332317  
C    1.2800432   -0.0002115   -2.2052842  
C    1.2395033    0.0000645   -0.7271297  
N    2.4394059    0.0005461   -0.2131042  
C    0.0000000    0.0000000    0.0000000  
C   -1.1468704    0.0000636   -0.7169540  
O   -2.3742206    0.0000073   -0.1695488  
C   -1.1388774    0.0001610   -2.2096351  
O   -2.2206238    0.0000908   -2.7970408  
C    0.1454514    0.0001820   -2.9324241  
H    3.1367977   -0.0000646   -3.5160953  
H   -2.9844351    0.0001027   -0.9290163  
C    2.6001984   -2.1411811   -5.8266044  
C    2.0730542   -1.7332808   -7.0044478  
C    0.9991586   -0.8222825   -6.6393045  
C    1.0189893   -0.7962628   -5.1609559  
N    1.9554486   -1.5673966   -4.6788912  
C    0.0950440    0.0004357   -4.4015596  
C   -0.8074272    0.7379275   -5.0878438  
O   -1.7282267    1.5268499   -4.5083867  
C   -0.8524309    0.7331206   -6.5798599  
O   -1.7006936    1.4286199   -7.1383865  
C    0.1059493   -0.0924302   -7.3360990  
H    2.3756466   -2.0156464   -7.9983205  
H   -2.2213262    1.9193589   -5.2513152  
H    0.0406002   -0.0682526   -8.4156246  
H    3.4197063   -2.8236747   -5.6666593  
C    0.8681109    0.7263879    2.2709268  
C    0.6127770    0.5096195    3.5869401  
C   -0.4920590   -0.4175482    3.6542670  
C   -0.8620974   -0.7254003    2.2596025  
N    0.0000000    0.0000000    1.4700000  
C   -1.8641242   -1.5660088    1.8976294  
C   -2.6293522   -2.2103885    2.9520183  
O   -3.5512764   -2.9839180    2.7283916  
C   -2.2549728   -1.8987399    4.4361073  
O   -2.8923672   -2.4351063    5.3323774  
C   -1.1543735   -0.9755647    4.7012123  
H    1.1382914    0.9492124    4.4159191  
H   -2.1192137   -1.7782617    0.8686553  
H   -0.9013378   -0.7652422    5.7314848  
H    1.6172880    1.3558399    1.8188057  
