60

C    0.0000000    0.0000000    0.0000000  
C    1.0521666   -0.0011903   -0.8862342  
C    0.4917221   -0.0011958   -2.1979133  
C   -0.9187425    0.0003147   -2.0478684  
N   -1.1833171   -0.0009412   -0.7007915  
C   -1.7951697    0.0010349   -3.1372093  
C   -1.2375833    0.0005223   -4.4010427  
O   -2.0474206    0.0015358   -5.4997581  
C    0.1673585   -0.0013568   -4.5711967  
O    0.5673528   -0.0020688   -5.8915550  
C    1.0325774   -0.0023413   -3.4969890  
H    2.0953060   -0.0030649   -0.6200559  
H   -2.0989774    0.0102371   -0.2891827  
H   -1.4634879    0.0006496   -6.2693593  
H    1.5290719   -0.0033154   -5.9180046  
H    2.1042151   -0.0039610   -3.6584456  
C   -3.2578649    0.0024037   -2.9908511  
C   -3.9809867    0.0031286   -1.8468784  
C   -5.3695592    0.0043912   -2.2808889  
C   -5.2983960    0.0043640   -3.7578856  
N   -4.0631136    0.0031208   -4.1798630  
C   -6.4794703    0.0054028   -4.5765119  
C   -7.6771912    0.0060335   -3.9481819  
O   -8.8597146    0.0070287   -4.5866792  
C   -7.7819054    0.0057080   -2.4591569  
O   -8.9049083    0.0064463   -1.9550895  
C   -6.5558058    0.0046819   -1.6414754  
H   -3.6170579    0.0027518   -0.8336497  
H   -9.5255205    0.0072465   -3.8754444  
H   -6.6744112    0.0043600   -0.5662256  
C   -5.4708136   -0.6995909   -6.7777843  
C   -6.3684983    0.0056220   -6.0423175  
C   -7.1844423    0.7486803   -6.9734111  
C   -6.6849721    0.4161529   -8.3212780  
N   -5.6459465   -0.4658806   -8.1333090  
C   -7.1947591    0.9163829   -9.4752242  
C   -8.3096393    1.8443788   -9.3835622  
O   -8.8382574    2.3495277  -10.3652390  
C   -8.8545357    2.2108669   -7.9663183  
O   -9.7926594    2.9913382   -7.8766058  
C   -8.2226811    1.6069799   -6.7958775  
H   -6.8137471    0.6593981  -10.4538449  
H   -8.6060223    1.8657726   -5.8182267  
H   -4.6959164   -1.3702046   -6.4435667  
H   -5.1003610   -0.8780701   -8.8678047  
C    0.0000000    0.0000000    1.4700000  
C    1.0541688    0.0001722    2.3260392  
C    0.5103138    0.0000454    3.6635956  
C   -0.9576371   -0.0002459    3.5155732  
N   -1.2018458    0.0001392    2.1615969  
C   -1.8348311   -0.0008317    4.5510609  
C   -1.2972847   -0.0009736    5.9014604  
O   -2.0050672   -0.0014265    6.9001319  
C    0.2542623   -0.0004184    6.0817573  
O    0.7184670   -0.0002256    7.2139121  
C    1.0974552   -0.0000873    4.8889129  
H    2.0940752    0.0005483    2.0517982  
H   -2.9081052   -0.0011668    4.4207061  
H    2.1707277    0.0000911    5.0223670  
H   -2.1128194   -0.0014912    1.7406791  
