58

C    3.3987866   -0.7010699   -7.5824803  
C    2.4181296    0.0022091   -8.2052051  
C    3.0453636    0.7435426   -9.2737725  
C    4.4821250    0.4121108   -9.2221892  
N    4.6305734   -0.4677058   -8.1749184  
C    5.4172510    0.9112746  -10.0695844  
C    4.9794657    1.8368855  -11.1011486  
O    5.7451197    2.3409249  -11.9123319  
C    3.4625489    2.2021797  -11.1741418  
O    3.0822245    2.9806439  -12.0382069  
C    2.5501678    1.5996189  -10.2054657  
H    6.4661930    0.6551245  -10.0146592  
H    1.5014140    1.8575723  -10.2629096  
H    3.3252917   -1.3700339   -6.7404737  
H    5.4995315   -0.8787137   -7.8867670  
C    0.0950448    0.0004350   -4.4015596  
C    1.1321311    0.0004157   -5.2710605  
C    0.5164646    0.0007446   -6.5891853  
C   -0.9377772    0.0008248   -6.3212971  
N   -1.1909055    0.0007248   -5.0407053  
C   -1.9068834    0.0011798   -7.3823910  
C   -1.4442339    0.0018320   -8.6533312  
O   -2.2350200    0.0022163   -9.7399307  
C    0.0174454    0.0021409   -8.9560776  
O    0.3669305    0.0026129  -10.1363659  
C    0.9916315    0.0017226   -7.8502354  
H    2.1849027    0.0002948   -5.0457879  
H   -2.9634801    0.0010242   -7.1576394  
H   -1.6191318    0.0026787  -10.4948045  
C    3.3321173    0.0004714   -1.3379336  
C    2.6974184    0.0000115   -2.5332313  
C    1.2800437   -0.0002119   -2.2052840  
C    1.2395034    0.0000643   -0.7271298  
N    2.4394063    0.0005459   -0.2131037  
C    0.0000000    0.0000000    0.0000000  
C   -1.1468702    0.0000634   -0.7169544  
O   -2.3742202    0.0000072   -0.1695489  
C   -1.1388770    0.0001606   -2.2096356  
O   -2.2206231    0.0000903   -2.7970412  
C    0.1454523    0.0001814   -2.9324241  
H    3.1367986   -0.0000653   -3.5160949  
H   -2.9844345    0.0001025   -0.9290168  
H    4.3940040    0.0007618   -1.1498638  
C    2.5128556    2.1077716    2.9199648  
C    1.9592212    1.6432552    4.0696553  
C    0.8915788    0.7479214    3.6910360  
C    0.8684491    0.7287414    2.2159470  
N    1.8754542    1.5738793    1.8102719  
C    0.0000000    0.0000000    1.4700000  
C   -0.9772830   -0.8200135    2.1664417  
O   -1.8021297   -1.5120829    1.5842315  
C   -0.9711318   -0.8147624    3.7284083  
O   -1.7894187   -1.5009653    4.3257297  
C    0.0140216    0.0115358    4.4216297  
H    2.2638494    1.8988021    5.0689105  
H    0.0117648    0.0094386    5.5031631  
H    3.3327358    2.7953732    2.7900019  
H    2.1123206    1.7707734    0.8551938  
