58

C    3.2798085    0.0005857   -1.4499648  
C    2.5571144    0.0005565   -2.5996556  
C    1.1637435    0.0001548   -2.2210363  
C    1.1336962   -0.0000199   -0.7459473  
N    2.4483513   -0.0001429   -0.3402720  
C    0.0000000    0.0000000    0.0000000  
C   -1.2757367   -0.0000186   -0.6964415  
O   -2.3524593   -0.0000638   -0.1142316  
C   -1.2676494   -0.0000872   -2.2584081  
O   -2.3355762   -0.0004099   -2.8557297  
C    0.0181558    0.0001761   -2.9516297  
H    0.0150791    0.0003319   -4.0331632  
H    4.3498548    0.0008609   -1.3200024  
H    2.7563625    0.0012823    0.6148061  
C    4.1687668   -0.6842814   -4.4361451  
C    3.1006056    0.0006262   -3.9654951  
C    2.5984210    0.7451004   -5.1100775  
C    3.5069654    0.3817818   -6.2187396  
N    4.4294532   -0.4558756   -5.8297194  
C    3.3444614    0.9174871   -7.5422569  
C    2.3206216    1.7767747   -7.7489244  
O    2.0512367    2.3523916   -8.9330430  
C    1.3864580    2.1626710   -6.6504787  
O    0.4766648    2.9500148   -6.9104517  
C    1.5741206    1.5996090   -5.3015277  
H    1.2688867    2.9084717   -8.7661407  
H    0.8760107    1.9041376   -4.5333249  
H    4.8175337   -1.3556519   -3.8963890  
C    4.7715900   -0.7095259   -8.8369141  
C    4.2683082    0.5327706   -8.6190119  
C    4.8135304    1.3933171   -9.6422557  
C    5.6819126    0.5444419  -10.4801777  
N    5.6133206   -0.7185278   -9.9387978  
C    6.3809263    0.9855938  -11.5565000  
C    6.2708127    2.3902515  -11.9133569  
O    6.8610337    2.8839051  -12.8653264  
C    5.3569978    3.3076433  -11.0397774  
O    5.2566959    4.4920269  -11.3303542  
C    4.6531965    2.7168765   -9.9042115  
H    7.0121857    0.3462482  -12.1578803  
H    4.0223132    3.3588040   -9.3045117  
H    4.5985589   -1.6191762   -8.2851113  
H    6.0982680   -1.5233182  -10.2911984  
C    2.5128556    2.1077716    2.9199648  
C    1.9592212    1.6432552    4.0696553  
C    0.8915788    0.7479214    3.6910360  
C    0.8684491    0.7287414    2.2159470  
N    1.8754542    1.5738793    1.8102719  
C    0.0000000    0.0000000    1.4700000  
C   -0.9772830   -0.8200135    2.1664417  
O   -1.8021297   -1.5120829    1.5842315  
C   -0.9711318   -0.8147624    3.7284083  
O   -1.7894187   -1.5009653    4.3257297  
C    0.0140216    0.0115358    4.4216297  
H    2.2638494    1.8988021    5.0689105  
H    0.0117648    0.0094386    5.5031631  
H    3.3327358    2.7953732    2.7900019  
H    2.1123206    1.7707734    0.8551938  
