58

C    1.0965515    0.0001356   -0.8010307  
C    0.0000000    0.0000000    0.0000000  
C   -1.1546563    0.0001468   -0.8669512  
C   -0.6372016    0.0003517   -2.2486279  
N    0.7342870    0.0007334   -2.1395011  
C   -1.4147742    0.0001349   -3.3608716  
C   -2.8576053   -0.0001051   -3.1854457  
O   -3.6427781   -0.0002497   -4.1244906  
C   -3.4275840   -0.0000727   -1.7311662  
O   -4.6406828    0.0000330   -1.5710056  
C   -2.4891866   -0.0001093   -0.6116745  
H   -1.0150453    0.0001612   -4.3654247  
H   -2.8919122   -0.0002920    0.3920863  
H    2.1388274    0.0000661   -0.5261649  
C    4.5298623   -2.1105790   -2.7870400  
C    4.8358777   -1.6476832   -4.0264580  
C    3.7723835   -0.7519991   -4.4157721  
C    2.8148500   -0.7308474   -3.2935098  
N    3.3319992   -1.5752944   -2.3383367  
C    1.6707642   -0.0012348   -3.2725975  
C    1.3617418    0.8177029   -4.4329343  
O    0.3555482    1.5104306   -4.5104138  
C    2.3615446    0.8103613   -5.6329952  
O    2.1118346    1.4956444   -6.6154883  
C    3.5619266   -0.0167206   -5.5388085  
H    5.7070853   -1.9045233   -4.6023437  
H    4.2491891   -0.0160716   -6.3739092  
H    2.9059923   -1.7708750   -1.4510300  
C    8.3239391   -4.2305223   -3.4148619  
C    8.4005904   -4.9068070   -2.2397710  
C    7.2275258   -4.5556266   -1.4746385  
C    6.4556254   -3.6125720   -2.3062684  
N    7.1743382   -3.4570775   -3.4690938  
C    5.2781144   -3.0478945   -1.9370644  
C    4.7348635   -3.3917390   -0.6335367  
O    3.6808228   -2.9358901   -0.2098615  
C    5.5356536   -4.3882779    0.2639328  
O    5.0883396   -4.6850116    1.3635328  
C    6.7932283   -4.9315021   -0.2432813  
H    9.1890140   -5.5752350   -1.9427770  
H    7.3415024   -5.6209975    0.3841863  
H    9.0106606   -4.2319205   -4.2457057  
H    6.9042357   -2.8733790   -4.2394101  
C    2.5128556    2.1077716    2.9199648  
C    1.9592212    1.6432552    4.0696553  
C    0.8915788    0.7479214    3.6910360  
C    0.8684491    0.7287414    2.2159470  
N    1.8754542    1.5738793    1.8102719  
C    0.0000000    0.0000000    1.4700000  
C   -0.9772830   -0.8200135    2.1664417  
O   -1.8021297   -1.5120829    1.5842315  
C   -0.9711318   -0.8147624    3.7284083  
O   -1.7894187   -1.5009653    4.3257297  
C    0.0140216    0.0115358    4.4216297  
H    2.2638494    1.8988021    5.0689105  
H    0.0117648    0.0094386    5.5031631  
H    3.3327358    2.7953732    2.7900019  
H    2.1123206    1.7707734    0.8551938  
