62

C   -3.3003122   -0.0165560   -1.4739002  
C   -2.5232480   -0.0126041   -2.6090757  
C   -1.1623054   -0.0055129   -2.1820104  
C   -1.1711743   -0.0057463   -0.7636144  
N   -2.4852076   -0.0105778   -0.3662369  
C    0.0000000    0.0000000    0.0000000  
C    1.2020255    0.0057859   -0.6806470  
O    2.3758985    0.0111895    0.0157760  
C    1.2314490    0.0064920   -2.0955499  
O    2.5054065    0.0129717   -2.6250164  
C    0.0764491    0.0010986   -2.8495191  
H   -2.8919620   -0.0134832   -3.6205313  
H   -2.8035507   -0.0224341    0.5858653  
H    3.0835282    0.0149409   -0.6418800  
H    2.4359729    0.0129836   -3.5845905  
H    0.1304035    0.0019756   -3.9319084  
C   -6.5581266   -0.0348230   -4.4647512  
C   -7.6102847   -0.0393463   -3.5785178  
C   -7.0498508   -0.0358524   -2.2668388  
C   -5.6394028   -0.0288706   -2.4168833  
N   -5.3748187   -0.0303751   -3.7639581  
C   -4.7629912   -0.0236076   -1.3275425  
C   -5.3205775   -0.0251189   -0.0637101  
O   -4.5107559   -0.0198188    1.0350052  
C   -6.7255014   -0.0324280    0.1064437  
O   -7.1254968   -0.0334565    1.4268025  
C   -7.5907042   -0.0378959   -0.9677632  
H   -4.4592075   -0.0159485   -4.1755765  
H   -5.0946849   -0.0222863    1.8046062  
H   -8.0872029   -0.0385070    1.4532517  
H   -8.6623283   -0.0436268   -0.8063069  
H   -6.5581208   -0.0358635   -5.5413006  
C   -9.5989625   -0.7568351   -4.9534270  
C   -9.0346193   -0.0479290   -3.9419708  
C  -10.0976198    0.6887767   -3.2999973  
C  -11.3364045    0.3484969   -4.0255400  
N  -10.9657267   -0.5315032   -5.0160386  
C  -12.5643058    0.8412846   -3.7236732  
C  -12.6730274    1.7688792   -2.6099932  
O  -13.7345673    2.2676154   -2.2597111  
C  -11.3740026    2.1435018   -1.8276898  
O  -11.4530928    2.9237118   -0.8883936  
C  -10.1080567    1.5472621   -2.2468918  
H  -13.4604466    0.5786870   -4.2685437  
H   -9.2132858    1.8116597   -1.6998967  
H   -9.1313464   -1.4247545   -5.6584863  
H  -11.5919589   -0.9476822   -5.6806256  
C    2.5128556    2.1077716    2.9199648  
C    1.9592212    1.6432552    4.0696553  
C    0.8915788    0.7479214    3.6910360  
C    0.8684491    0.7287414    2.2159470  
N    1.8754542    1.5738793    1.8102719  
C    0.0000000    0.0000000    1.4700000  
C   -0.9772830   -0.8200135    2.1664417  
O   -1.8021297   -1.5120829    1.5842315  
C   -0.9711318   -0.8147624    3.7284083  
O   -1.7894187   -1.5009653    4.3257297  
C    0.0140216    0.0115358    4.4216297  
H    2.2638494    1.8988021    5.0689105  
H    0.0117648    0.0094386    5.5031631  
H    3.3327358    2.7953732    2.7900019  
H    2.1123206    1.7707734    0.8551938  
