62

C   -1.1176505   -0.0521134   -0.8003809  
C    0.0000000    0.0000000    0.0000000  
C    1.1312363    0.0510231   -0.8673527  
C    0.6376847    0.0272943   -2.1969285  
N   -0.7314558   -0.0374195   -2.1202244  
C    1.4756631    0.0649856   -3.3154813  
C    2.8366576    0.1280815   -3.0876858  
O    3.7001373    0.1673593   -4.1440355  
C    3.3483267    0.1522647   -1.7684333  
O    4.7251323    0.2156046   -1.7073133  
C    2.5222414    0.1148357   -0.6644823  
H    1.1057622    0.0470425   -4.3313814  
H    4.5892729    0.2084228   -3.7685140  
H    4.9882430    0.2281900   -0.7819921  
H    2.9431858    0.1345058    0.3339647  
H   -2.1596737   -0.1000465   -0.5342067  
C   -1.6465705   -0.0655425   -3.2703002  
C   -2.9984900   -0.1267747   -3.2583476  
C   -3.3862979   -0.1281788   -4.6605260  
C   -2.1079748   -0.0617870   -5.4008409  
N   -1.0846813   -0.0249322   -4.5912115  
C   -2.0605473   -0.0431450   -6.8369778  
C   -3.2366809   -0.0891435   -7.5032585  
O   -3.3412354   -0.0785314   -8.8430335  
C   -4.5432553   -0.1569476   -6.7846300  
O   -5.5746212   -0.1961690   -7.4554254  
C   -4.5655046   -0.1748264   -5.3111612  
H   -3.6518638   -0.1662191   -2.4035830  
H   -1.1122339    0.0059210   -7.3519572  
H   -4.2988527   -0.1202365   -9.0173386  
C   -5.8792426   -0.2423979   -4.6550921  
C   -6.2017073   -0.2711764   -3.3180598  
C   -7.6240991   -0.3372015   -3.2341410  
C   -8.1194717   -0.3462509   -4.5632194  
N   -7.0337358   -0.2857836   -5.4011565  
C   -9.4841607   -0.4060153   -4.8612834  
C  -10.3648015   -0.4578903   -3.7982886  
O  -11.7081342   -0.5176970   -4.0325873  
C   -9.8898819   -0.4494537   -2.4651732  
O  -10.8913878   -0.5053409   -1.5179632  
C   -8.5437328   -0.3902356   -2.1703813  
H   -5.4983223   -0.2463907   -2.5034253  
H   -7.0740597   -0.2874019   -6.4043275  
H   -9.8681204   -0.4130856   -5.8720883  
H  -12.1353376   -0.5462106   -3.1665912  
H  -10.4858357   -0.4954672   -0.6455907  
H   -8.2097934   -0.3850700   -1.1393929  
C    0.0000000    0.0000000    1.4700000  
C    1.0541688    0.0001722    2.3260392  
C    0.5103138    0.0000454    3.6635956  
C   -0.9576371   -0.0002459    3.5155732  
N   -1.2018458    0.0001392    2.1615969  
C   -1.8348311   -0.0008317    4.5510609  
C   -1.2972847   -0.0009736    5.9014604  
O   -2.0050672   -0.0014265    6.9001319  
C    0.2542623   -0.0004184    6.0817573  
O    0.7184670   -0.0002256    7.2139121  
C    1.0974552   -0.0000873    4.8889129  
H    2.0940752    0.0005483    2.0517982  
H   -2.9081052   -0.0011668    4.4207061  
H    2.1707277    0.0000911    5.0223670  
H   -2.1128194   -0.0014912    1.7406791  
