58

C   -3.2573635   -0.0043578   -1.5109391  
C   -2.5379445   -0.0034519   -0.3591969  
C   -1.1435025   -0.0016654   -0.7338503  
C   -1.1092584   -0.0015751   -2.2088480  
N   -2.4227520   -0.0036493   -2.6182620  
C    0.0265545    0.0002904   -2.9515659  
C    1.3003034    0.0021202   -2.2514974  
O    2.3786763    0.0038089   -2.8306416  
C    1.2877718    0.0018072   -0.6895602  
O    2.3539938    0.0030297   -0.0892027  
C    0.0000000    0.0000000    0.0000000  
H   -2.9384056   -0.0041578    0.6389226  
H    0.0296302    0.0004510   -4.0327235  
H   -2.7280470   -0.0025534   -3.5742126  
C   -6.4549966   -0.0082886    1.4492333  
C   -7.5628416   -0.0093246    0.6718933  
C   -7.0625066   -0.0087088   -0.6941831  
C   -5.5906468   -0.0071445   -0.5520193  
N   -5.2286089   -0.0069723    0.7021412  
C   -4.7161285   -0.0061885   -1.6923272  
C   -5.2860866   -0.0071579   -2.9189002  
O   -4.5914184   -0.0064339   -4.0693246  
C   -6.7683453   -0.0091141   -3.0951549  
O   -7.2177819   -0.0097878   -4.2411159  
C   -7.6440877   -0.0100207   -1.9098278  
H   -5.2697850   -0.0074820   -4.7685884  
H   -8.7123827   -0.0115542   -2.0800437  
H   -6.3993934   -0.0083328    2.5262115  
C   -9.5040811    2.1297097    3.9343494  
C  -10.7889473    1.7207158    3.8184989  
C  -10.7918132    0.8099381    2.6840494  
C   -9.3872367    0.7852298    2.2223809  
N   -8.6276864    1.5568804    2.9515091  
C   -8.9686194   -0.0108845    1.1016458  
C   -9.9102896   -0.7490707    0.4710328  
O   -9.6608292   -1.5375679   -0.5882511  
C  -11.3359538   -0.7455898    0.9133320  
O  -12.1392214   -1.4416650    0.2924762  
C  -11.7404210    0.0793829    2.0656129  
H  -11.6307889    2.0022299    4.4277017  
H  -10.5233358   -1.9307822   -0.8132357  
H  -12.7825698    0.0542428    2.3546186  
H   -9.0870953    2.8124236    4.6575354  
C    2.4951002    2.0940188    2.9809380  
C    1.9440701    1.6314916    1.8291961  
C    0.8759964    0.7350050    2.2038498  
C    0.8497377    0.7130254    3.6788474  
N    1.8560616    1.5571714    4.0882609  
C   -0.0205033   -0.0168748    4.4215661  
C   -0.9962600   -0.8356168    3.7214979  
O   -1.8224391   -1.5286685    4.3006425  
C   -0.9864710   -0.8277881    2.1595606  
O   -1.8030528   -1.5133726    1.5592035  
C    0.0000000    0.0000000    1.4700000  
H    2.2509283    1.8888011    0.8310761  
H   -0.0229599   -0.0187323    5.5027230  
H    3.3143982    2.7817323    3.1139444  
H    2.0889452    1.7545833    5.0442112  
