58

C    3.2798090    0.0005856   -1.4499635  
C    2.5571157    0.0005565   -2.5996544  
C    1.1637443    0.0001548   -2.2210357  
C    1.1336970   -0.0000200   -0.7459466  
N    2.4483515   -0.0001429   -0.3402711  
C    0.0000000    0.0000000    0.0000000  
C   -1.2757370   -0.0000186   -0.6964421  
O   -2.3524594   -0.0000639   -0.1142324  
C   -1.2676484   -0.0000873   -2.2584088  
O   -2.3355747   -0.0004100   -2.8557305  
C    0.0181577    0.0001759   -2.9516294  
H    2.9547365    0.0006075   -3.5989094  
H    0.0150811    0.0003319   -4.0331627  
H    2.7563626    0.0012823    0.6148073  
C    6.8068859    0.0000780   -4.1746965  
C    5.5278621   -0.0005420   -3.7323432  
C    5.6328292    0.0002217   -2.2813155  
C    7.0869604    0.0011851   -2.0128292  
N    7.7802440    0.0011862   -3.1188801  
C    7.6138028    0.0021815   -0.6758464  
C    6.7282245    0.0026030    0.3464480  
O    7.0793800    0.0035197    1.6436489  
C    5.2547115    0.0020257    0.1078729  
O    4.5071896    0.0023331    1.0858464  
C    4.7390854    0.0009613   -1.2727261  
H    4.6247078   -0.0013200   -4.3183357  
H    6.2347335    0.0036359    2.1291649  
H    7.1567997   -0.0001765   -5.1947623  
C    9.0661429    0.0028410   -0.4486738  
C   10.0748095    0.0027726   -1.3578867  
C   11.3122497    0.0035682   -0.6138604  
C   10.9391491    0.0040805    0.8135801  
N    9.5636987    0.0040028    0.8456123  
C   11.8266365    0.0044791    1.8402598  
C   13.2438848    0.0046245    1.5178609  
O   14.1211787    0.0050392    2.3714746  
C   13.6617907    0.0043411    0.0128161  
O   14.8520829    0.0047668   -0.2708494  
C   12.6135830    0.0036373   -1.0045884  
H    9.9645691    0.0024093   -2.4276815  
H   11.5319846    0.0047216    2.8804953  
H   12.9112970    0.0032395   -2.0443435  
H    9.0070571    0.0027234    1.6805947  
C    2.5128556    2.1077716    2.9199648  
C    1.9592212    1.6432552    4.0696553  
C    0.8915788    0.7479214    3.6910360  
C    0.8684491    0.7287414    2.2159470  
N    1.8754542    1.5738793    1.8102719  
C    0.0000000    0.0000000    1.4700000  
C   -0.9772830   -0.8200135    2.1664417  
O   -1.8021297   -1.5120829    1.5842315  
C   -0.9711318   -0.8147624    3.7284083  
O   -1.7894187   -1.5009653    4.3257297  
C    0.0140216    0.0115358    4.4216297  
H    2.2638494    1.8988021    5.0689105  
H    0.0117648    0.0094386    5.5031631  
H    3.3327358    2.7953732    2.7900019  
H    2.1123206    1.7707734    0.8551938  
