58

C   -0.4370037   -0.0099621   -8.8142440  
C    0.3393725   -0.6853906   -9.7003100  
C   -0.1258621   -0.3337493  -11.0211968  
C   -1.2449255    0.6086877  -10.8306702  
N   -1.3830153    0.7627838   -9.4704951  
C   -1.9542571    1.1741608  -11.8400226  
C   -1.5914599    0.8315387  -13.2051336  
O   -2.1697469    1.2880766  -14.1826076  
C   -0.4096947   -0.1647149  -13.4303314  
O   -0.0953622   -0.4608925  -14.5752043  
C    0.2794752   -0.7084418  -12.2627456  
H    1.1458055   -1.3538210   -9.4564257  
H   -2.7715632    1.8632665  -11.6786094  
H    1.0967678   -1.3974207  -12.4272596  
H   -2.0645780    1.3481650   -9.0234513  
C    2.1650268   -2.1089228   -5.9297630  
C    1.5723604   -1.6445165   -7.0598730  
C    0.5184572   -0.7489604   -6.6450207  
C    0.5459257   -0.7295297   -5.1700093  
N    1.5661289   -1.5747498   -4.7989577  
C   -0.2963293   -0.0005341   -4.3948471  
C   -1.2968018    0.8195080   -5.0575088  
O   -2.1011001    1.5117977   -4.4474759  
C   -1.3442161    0.8139944   -6.6187671  
O   -2.1824060    1.5002187   -7.1877956  
C   -0.3835313   -0.0125666   -7.3452196  
H    1.8425077   -1.9002762   -8.0689424  
H    2.9887830   -2.7966246   -5.8278722  
H    1.8355782   -1.7715191   -3.8525299  
C    3.1301146   -0.0010313   -1.7028256  
C    2.5367765   -0.0002766   -0.4864669  
C    1.1089901    0.0001027   -0.7656184  
C    1.0177865   -0.0004150   -2.2415133  
N    2.1993571   -0.0011612   -2.7963824  
C   -0.2459219   -0.0002879   -2.9257116  
C   -1.3675326   -0.0000606   -2.1698520  
O   -2.6129318    0.0000865   -2.6748483  
C   -1.3083588    0.0000910   -0.6783229  
O   -2.3693264    0.0004206   -0.0541685  
C    0.0000000    0.0000000    0.0000000  
H    3.0096016   -0.0001007    0.4807518  
H   -3.1967444    0.0002093   -1.8949026  
H    4.1849275   -0.0015114   -1.9271979  
C    0.8681109    0.7263879    2.2709268  
C    0.6127770    0.5096195    3.5869401  
C   -0.4920590   -0.4175482    3.6542670  
C   -0.8620974   -0.7254003    2.2596025  
N    0.0000000    0.0000000    1.4700000  
C   -1.8641242   -1.5660088    1.8976294  
C   -2.6293522   -2.2103885    2.9520183  
O   -3.5512764   -2.9839180    2.7283916  
C   -2.2549728   -1.8987399    4.4361073  
O   -2.8923672   -2.4351063    5.3323774  
C   -1.1543735   -0.9755647    4.7012123  
H    1.1382914    0.9492124    4.4159191  
H   -2.1192137   -1.7782617    0.8686553  
H   -0.9013378   -0.7652422    5.7314848  
H    1.6172880    1.3558399    1.8188057  
