64

C    2.3027755   -2.1230396   -5.9144744  
C    1.6515184   -1.6244168   -7.0188779  
C    0.6310524   -0.7498916   -6.5409088  
C    0.7085809   -0.7546403   -5.1246134  
N    1.7328874   -1.6001003   -4.7773237  
C   -0.1496415   -0.0015615   -4.3176961  
C   -1.1033075    0.7706086   -4.9520874  
O   -1.9667115    1.5256559   -4.2121874  
C   -1.1966333    0.7882862   -6.3641049  
O   -2.1980387    1.6065087   -6.8447736  
C   -0.3504838    0.0453975   -7.1607693  
H    2.0305490   -1.7962856   -3.8387663  
H   -2.5411491    1.9798214   -4.8422822  
H   -2.1929071    1.5610733   -7.8057700  
H   -0.4460584    0.0789894   -8.2397570  
H    3.1277800   -2.8114387   -5.8478920  
C    2.7853153   -5.4262537   -8.9732124  
C    2.9109534   -4.9357086  -10.2522926  
C    2.6121496   -3.5421401  -10.1949908  
C    2.3090701   -3.2366888   -8.8434109  
N    2.4217357   -4.4034314   -8.1288231  
C    1.9672103   -1.9497154   -8.4172413  
C    1.9309377   -0.9528740   -9.3728394  
O    1.6034418    0.3218769   -9.0112188  
C    2.2297859   -1.2380013  -10.7264314  
O    2.1497929   -0.1391050  -11.5567150  
C    2.5668538   -2.5074549  -11.1476179  
H    3.1832690   -5.5116872  -11.1200980  
H    2.2755525   -4.4946208   -7.1397345  
H    1.6369387    0.8517849   -9.8182750  
H    2.3660726   -0.4178017  -12.4517887  
H    2.7905188   -2.6955938  -12.1911974  
H    2.9248918   -6.4250984   -8.5966664  
C    3.3003543    0.0005276   -1.4738987  
C    2.5232814    0.0003497   -2.6090747  
C    1.1623200   -0.0001320   -2.1820103  
C    1.1711883    0.0000582   -0.7636140  
N    2.4852300   -0.0014919   -0.3662360  
C    0.0000000    0.0000000    0.0000000  
C   -1.2020384    0.0000519   -0.6806477  
O   -2.3759249    0.0003493    0.0157743  
C   -1.2314656   -0.0005115   -2.0955510  
O   -2.5054392   -0.0008039   -2.6250180  
C   -0.0764516   -0.0007274   -2.8495195  
H    2.8919955   -0.0005620   -3.6205304  
H    2.8036267    0.0088183    0.5858662  
H   -3.0835638    0.0000347   -0.6418818  
H   -2.4360047   -0.0011529   -3.5845921  
H    4.3715549    0.0004895   -1.3667136  
C    0.8400945    0.7047457    2.2710304  
C    0.0000000    0.0000000    1.4700000  
C   -0.8844236   -0.7423113    2.3369512  
C   -0.4878984   -0.4098547    3.7186280  
N    0.5629682    0.4714286    3.6095011  
C   -1.0836927   -0.9095027    4.8308716  
C   -2.1891196   -1.8367527    4.6554461  
O   -2.7906899   -2.3413415    5.5944904  
C   -2.6257283   -2.2031529    3.2011665  
O   -3.5549479   -2.9829990    3.0410059  
C   -1.9068976   -1.5999348    2.0816745  
H   -0.7774656   -0.6525820    5.8354244  
H   -2.2155208   -1.8586617    1.0779135  
H    1.6384792    1.3747609    1.9961646  
H    1.0518368    0.8833920    4.3830260  
