58

C    0.8712792   -0.0021961   -4.7267111  
C   -0.4246870    0.0007679   -5.1323438  
C   -0.4138925    0.0006867   -6.5761995  
C    1.0047661   -0.0026205   -6.9813993  
N    1.7322649   -0.0038473   -5.8136520  
C    1.4369596   -0.0040698   -8.2678330  
C    0.4382317   -0.0020249   -9.3238042  
O    0.7266301   -0.0030383  -10.5133942  
C   -1.0700310    0.0017378   -8.9176837  
O   -1.9199237    0.0037906   -9.7979905  
C   -1.4124552    0.0027340   -7.4976147  
H   -1.2895120    0.0029639   -4.4930591  
H   -2.4590160    0.0051385   -7.2248002  
H    2.7343060   -0.0076240   -5.7593669  
C   -1.0965490    0.0024131   -0.8010302  
C    0.0000000    0.0000000    0.0000000  
C    1.1546526   -0.0028309   -0.8669515  
C    0.6371986   -0.0018330   -2.2486283  
N   -0.7342872    0.0009732   -2.1395012  
C    1.4147695   -0.0034237   -3.3608718  
C    2.8575970   -0.0065375   -3.1854467  
O    3.6427683   -0.0082181   -4.1244909  
C    3.4275746   -0.0078946   -1.7311667  
O    4.6406700   -0.0108202   -1.5710061  
C    2.4891803   -0.0056769   -0.6116744  
H    2.8919053   -0.0064302    0.3920867  
H   -2.1388217    0.0049054   -0.5261643  
H   -1.3735821    0.0038028   -2.9130262  
C    3.8454633   -0.7144369   -8.0343978  
C    2.8583591   -0.0075486   -8.6426814  
C    3.4728749    0.7329711   -9.7191740  
C    4.9091989    0.3971281   -9.6879780  
N    5.0695669   -0.4842059   -8.6437452  
C    5.8339241    0.8943192  -10.5478557  
C    5.3846076    1.8223093  -11.5722990  
O    6.1403993    2.3248527  -12.3935974  
C    3.8679404    2.1922794  -11.6237500  
O    3.4779683    2.9727778  -12.4816578  
C    2.9673355    1.5914993  -10.6430231  
H    6.8827453    0.6349312  -10.5078300  
H    1.9186738    1.8526923  -10.6855669  
H    3.7816886   -1.3840363   -7.1921039  
H    5.9412049   -0.8981435   -8.3681553  
C    0.0000000    0.0000000    1.4700000  
C    1.0662921    0.0000102    2.3034270  
C    0.4961870   -0.0000064    3.6418889  
C   -0.9663858    0.0000850    3.4240247  
N   -1.2632773    0.0000084    2.1528658  
C   -1.8985362    0.0000517    4.5177257  
C   -1.3925775   -0.0004564    5.7720543  
O   -2.1456383   -0.0005410    6.8851312  
C    0.0786232   -0.0009323    6.0245000  
O    0.4683759   -0.0012588    7.1921102  
C    1.0143166   -0.0008442    4.8859032  
H    2.1107198   -0.0000632    2.0421868  
H   -2.9622183    0.0003270    4.3293377  
H   -1.5042274   -0.0009692    7.6184419  
H    2.0724152   -0.0013148    5.1109744  
