60

C   -3.3040222    0.0260821   -1.5420461  
C   -2.5844514    0.0209719   -0.3695876  
C   -1.2039617    0.0095477   -0.7283601  
C   -1.1422038    0.0084534   -2.1454382  
N   -2.4348053    0.0166962   -2.6077486  
C    0.0655129   -0.0013994   -2.8497918  
C    1.2321389   -0.0100031   -2.1101387  
O    2.4392062   -0.0194570   -2.7472495  
C    1.1910842   -0.0094442   -0.6955253  
O    2.4370783   -0.0190933   -0.1032838  
C    0.0000000    0.0000000    0.0000000  
H   -3.0030586    0.0238794    0.6222555  
H   -2.7053174    0.0285623   -3.5745283  
H    0.1193428   -0.0024310   -3.9297466  
H    3.1132037   -0.0246221   -2.0551756  
H    2.3199585   -0.0179895    0.8516431  
C   -6.7368683    0.0542468    1.2348599  
C   -5.4908391    0.0442340    0.6950580  
C   -5.6535658    0.0445977   -0.7396389  
C   -7.1069579    0.0557522   -0.9932493  
N   -7.7074696    0.0607907    0.2445919  
C   -7.6721571    0.0597720   -2.2270394  
C   -6.7901660    0.0524099   -3.3822762  
O   -7.2021785    0.0551897   -4.5348989  
C   -5.2475743    0.0403079   -3.1371835  
O   -4.4950970    0.0337275   -4.1020646  
C   -4.7575741    0.0372131   -1.7610503  
H   -4.5635470    0.0371935    1.2397535  
H   -8.7407573    0.0681098   -2.3911547  
H   -7.0277390    0.0571791    2.2727790  
C  -10.2346119    2.1806747    3.1799074  
C   -9.1893800    1.7078790    2.4532509  
C   -9.7372449    0.8155635    1.4590416  
C  -11.1978113    0.8072220    1.6675214  
N  -11.4343129    1.6544785    2.7254031  
C  -12.0760769    0.0847599    0.9269782  
C  -11.5475353   -0.7397970   -0.1469330  
O  -12.2569698   -1.4269504   -0.8699985  
C  -10.0038842   -0.7463983   -0.3854767  
O   -9.5472614   -1.4369827   -1.2865034  
C   -9.1587276    0.0743652    0.4781841  
H   -8.1528515    1.9557672    2.5973849  
H  -13.1438568    0.0928878    1.0963571  
H  -10.2293910    2.8690709    4.0093489  
H  -12.3392483    1.8605629    3.1070671  
C    2.5128556    2.1077716    2.9199648  
C    1.9592212    1.6432552    4.0696553  
C    0.8915788    0.7479214    3.6910360  
C    0.8684491    0.7287414    2.2159470  
N    1.8754542    1.5738793    1.8102719  
C    0.0000000    0.0000000    1.4700000  
C   -0.9772830   -0.8200135    2.1664417  
O   -1.8021297   -1.5120829    1.5842315  
C   -0.9711318   -0.8147624    3.7284083  
O   -1.7894187   -1.5009653    4.3257297  
C    0.0140216    0.0115358    4.4216297  
H    2.2638494    1.8988021    5.0689105  
H    0.0117648    0.0094386    5.5031631  
H    3.3327358    2.7953732    2.7900019  
H    2.1123206    1.7707734    0.8551938  
