64

C    4.3172181   -2.1276214   -1.4346667  
C    5.3517550   -1.6299844   -2.1926636  
C    4.7753703   -0.7549587   -3.1605017  
C    3.3738274   -0.7584004   -2.9423468  
N    3.1294633   -1.6035969   -1.8885225  
C    2.4861704   -0.0045255   -3.7159919  
C    3.0231744    0.7671112   -4.7281088  
O    2.2016882    1.5228925   -5.5135820  
C    4.4189003    0.7834865   -4.9615571  
O    4.7982356    1.6013206   -6.0058726  
C    5.2951622    0.0398121   -4.1989044  
H    6.3935655   -1.8691808   -2.0645680  
H    2.2250241   -1.7989301   -1.4988868  
H    2.7718801    1.9765076   -6.1479167  
H    5.7549249    1.5549959   -6.0964458  
H    6.3593041    0.0724104   -4.4014334  
C    7.6436632   -4.2241989    0.5896872  
C    6.8863525   -4.8996092    1.5185403  
C    5.5258050   -4.5380207    1.2888346  
C    5.5145201   -3.6317680    0.1977325  
N    6.8168853   -3.4615830   -0.2016431  
C    4.3380426   -3.0675920   -0.3046572  
C    3.1513098   -3.4250153    0.3053360  
O    1.9730645   -2.9039018   -0.1454335  
C    3.1421189   -4.3274170    1.3954741  
O    1.8816816   -4.5832481    1.8946665  
C    4.3023881   -4.8841684    1.8917920  
H    7.2677438   -5.5695505    2.2700140  
H    7.1193034   -2.8812938   -0.9630817  
H    1.2781092   -3.2783617    0.4114168  
H    1.9644153   -5.2010629    2.6275119  
H    4.2640769   -5.5723206    2.7281266  
H    8.7082971   -4.2250051    0.4299625  
C    0.0000000    0.0000000    0.0000000  
C    1.0521669   -0.0011848   -0.8862341  
C    0.4917221   -0.0011931   -2.1979130  
C   -0.9187427    0.0003100   -2.0478683  
N   -1.1833170   -0.0009472   -0.7007915  
C   -1.7951698    0.0010259   -3.1372090  
C   -1.2375835    0.0005161   -4.4010425  
O   -2.0474208    0.0015256   -5.4997580  
C    0.1673584   -0.0013557   -4.5711962  
O    0.5673529   -0.0020659   -5.8915551  
C    1.0325773   -0.0023359   -3.4969890  
H    2.0953059   -0.0030542   -0.6200560  
H   -2.0989777    0.0102265   -0.2891825  
H   -2.8710930    0.0020274   -3.0295514  
H   -1.4634881    0.0006427   -6.2693593  
H    1.5290715   -0.0033076   -5.9180042  
C    1.1319247   -0.0015655    2.2709268  
C    0.7969915   -0.0034943    3.5869401  
C   -0.6453339   -0.0035710    3.6542670  
C   -1.1266833   -0.0015433    2.2596025  
N    0.0000000    0.0000000    1.4700000  
C   -2.4346130   -0.0013964    1.8976294  
C   -3.4350110   -0.0031408    2.9520183  
O   -4.6384611   -0.0030974    2.7283916  
C   -2.9478959   -0.0050506    4.4361073  
O   -3.7809380   -0.0062218    5.3323774  
C   -1.5113823   -0.0053090    4.7012123  
H    1.4821238   -0.0045407    4.4159191  
H   -2.7664565   -0.0000232    0.8686553  
H   -1.1823530   -0.0068408    5.7314848  
H    2.1104316   -0.0009391    1.8188057  
