62

C    0.0000000    0.0000000    0.0000000  
C    1.0521660   -0.0011902   -0.8862349  
C    0.4917205   -0.0011958   -2.1979136  
C   -0.9187438    0.0003152   -2.0478680  
N   -1.1833175   -0.0009410   -0.7007909  
C   -1.7951715    0.0010353   -3.1372088  
C   -1.2375854    0.0005225   -4.4010421  
O   -2.0474238    0.0015362   -5.4997578  
C    0.1673565   -0.0013567   -4.5711966  
O    0.5673498   -0.0020687   -5.8915554  
C    1.0325757   -0.0023413   -3.4969896  
H    2.0953050   -0.0030651   -0.6200570  
H   -2.0989779    0.0102376   -0.2891817  
H   -1.4634912    0.0006500   -6.2693589  
H    1.5290687   -0.0033153   -5.9180049  
H    2.1042132   -0.0039613   -3.6584467  
C   -4.5382428    2.1273451   -0.3186938  
C   -3.4269656    1.6642221   -0.9843118  
C   -3.8900514    0.7769064   -2.0005905  
C   -5.3047977    0.7380671   -1.9061927  
N   -5.6653153    1.5677436   -0.8735837  
C   -6.0984779   -0.0377243   -2.7564913  
C   -5.4522268   -0.7877405   -3.7198258  
O   -6.1789727   -1.5628746   -4.5765752  
C   -4.0415012   -0.7624921   -3.8295247  
O   -3.5480042   -1.5637036   -4.8384179  
C   -3.2578666    0.0024045   -2.9908496  
H   -2.4078447    1.9320313   -0.7637129  
H   -6.6071045    1.7500077   -0.5772823  
H   -7.1771665   -0.0717833   -2.6896169  
H   -5.5421637   -1.9965791   -5.1593612  
H   -2.5888299   -1.4891816   -4.8443289  
C   -1.4245662    4.2310714    1.8874003  
C   -2.1426142    4.9300973    2.7969872  
C   -3.5296393    4.5858650    2.5246532  
C   -3.4632337    3.6424410    1.3879365  
N   -2.2318395    3.4305594    1.0100941  
C   -4.6443911    3.0614860    0.8113566  
C   -5.8376205    3.4069934    1.3462983  
O   -7.0196589    2.9414075    0.9080574  
C   -5.9374447    4.3562397    2.4939598  
O   -7.0565112    4.6257741    2.9301496  
C   -4.7113620    4.9387705    3.0678100  
H   -1.7762830    5.5968966    3.5587323  
H   -7.6818306    3.3654009    1.4833057  
H   -4.8263385    5.6220975    3.8985177  
H   -0.3540873    4.2132283    1.7580557  
C    3.2798086   -0.0005857    2.9199648  
C    2.5571146   -0.0005566    4.0696553  
C    1.1637436   -0.0001548    3.6910360  
C    1.1336965    0.0000200    2.2159470  
N    2.4483514    0.0001428    1.8102719  
C    0.0000000    0.0000000    1.4700000  
C   -1.2757367    0.0000186    2.1664417  
O   -2.3524596    0.0000640    1.5842315  
C   -1.2676493    0.0000873    3.7284083  
O   -2.3355761    0.0004100    4.3257297  
C    0.0181563   -0.0001760    4.4216297  
H    2.9547357   -0.0006076    5.0689105  
H    0.0150794   -0.0003319    5.5031631  
H    4.3498549   -0.0008612    2.7900019  
H    2.7563627   -0.0012824    0.8551938  
