58

C    7.7348230   -0.9074999   -4.2954492  
C    9.0202103   -0.5487805   -4.5467959  
C    9.0187359    0.8727284   -4.8000662  
C    7.6170778    1.3159459   -4.6747423  
N    6.8894657    0.1892330   -4.3681673  
C    7.1975382    2.5957586   -4.8413852  
C    8.1928846    3.6039333   -5.1660466  
O    7.9150463    4.7839095   -5.3356476  
C    9.6831945    3.1569643   -5.3038812  
O   10.5300486    3.9968300   -5.5772348  
C   10.0130602    1.7484671   -5.1009598  
H    9.8721461   -1.2051072   -4.5541384  
H    6.1645210    2.8998497   -4.7448734  
H   11.0472498    1.4472024   -5.1979856  
H    7.3339607   -1.8808259   -4.0634245  
C    4.5414472   -2.0136866   -1.4319366  
C    3.2784306   -1.6314299   -1.7323495  
C    3.4206903   -0.7132108   -2.8517850  
C    4.8766551   -0.6552127   -3.1035522  
N    5.5387696   -1.4155491   -2.2744067  
C    5.4363359    0.1572548   -4.1484160  
C    4.5803865    0.8786769   -4.9075173  
O    4.9639647    1.6794178   -5.9163398  
C    3.1058537    0.8409940   -4.6783999  
O    2.3863360    1.5234829   -5.4075938  
C    2.5562217   -0.0001543   -3.6003001  
H    2.3632541   -1.9351317   -1.2535045  
H    4.1348748    2.0549943   -6.2637662  
H    4.8636452   -2.6922678   -0.6581863  
C    0.0000000    0.0000000    0.0000000  
C    1.0541688   -0.0001719   -0.8560391  
C    0.5103141   -0.0000449   -2.1935955  
C   -0.9576367    0.0002461   -2.0455733  
N   -1.2018459   -0.0001392   -0.6915970  
C   -1.8348306    0.0008319   -3.0810611  
C   -1.2972842    0.0009739   -4.4314605  
O   -2.0050664    0.0014267   -5.4301321  
C    0.2542628    0.0004190   -4.6117571  
O    0.7184677    0.0002263   -5.7439119  
C    1.0974556    0.0000880   -3.4189127  
H    2.0940752   -0.0005479   -0.5817978  
H   -2.9081050    0.0011669   -2.9507065  
H   -2.1128195    0.0014911   -0.2706793  
C    3.1301144    0.0010313    3.1728260  
C    2.5367765    0.0002768    1.9564670  
C    1.1089900   -0.0001027    2.2356185  
C    1.0177864    0.0004150    3.7115134  
N    2.1993570    0.0011613    4.2663826  
C   -0.2459220    0.0002880    4.3957118  
C   -1.3675327    0.0000606    3.6398520  
O   -2.6129319   -0.0000866    4.1448486  
C   -1.3083589   -0.0000910    2.1483229  
O   -2.3693264   -0.0004206    1.5241687  
C    0.0000000    0.0000000    1.4700000  
H    3.0096015    0.0001008    0.9892483  
H   -0.2829642    0.0004689    5.4753125  
H   -3.1967446   -0.0002093    3.3649027  
H    4.1849273    0.0015113    3.3971983  
