58

C    3.2798084    0.0005862   -1.4499658  
C    2.5571139    0.0005570   -2.5996563  
C    1.1637431    0.0001551   -2.2210366  
C    1.1336964   -0.0000200   -0.7459476  
N    2.4483516   -0.0001428   -0.3402732  
C    0.0000000    0.0000000    0.0000000  
C   -1.2757365   -0.0000186   -0.6964421  
O   -2.3524598   -0.0000641   -0.1142305  
C   -1.2676499   -0.0000871   -2.2584082  
O   -2.3355769   -0.0004099   -2.8557292  
C    0.0181555    0.0001763   -2.9516302  
H    0.0150785    0.0003324   -4.0331637  
H    4.3498546    0.0008614   -1.3200035  
H    2.7563629    0.0012823    0.6148051  
C    4.2042261   -0.7245765   -4.3883895  
C    4.4532739   -0.5080827   -5.7056520  
C    3.4504637    0.4176292   -6.1771013  
C    2.5906250    0.7249264   -5.0182069  
N    3.1006048    0.0006269   -3.9654959  
C    1.5247253    1.5641944   -5.0527259  
C    1.2027488    2.2076137   -6.3156107  
O    0.2625089    2.9799151   -6.4490279  
C    2.0996876    1.8965300   -7.5559862  
O    1.8381613    2.4320973   -8.6246455  
C    3.2214639    0.9748209   -7.3949823  
H    5.2485895   -0.9469420   -6.2814026  
H    0.9070130    1.7760616   -4.1910687  
H    4.7339421   -1.3530607   -3.6910382  
C    4.5711100   -0.5204046   -8.9124680  
C    4.0590989    0.6894766   -8.5687990  
C    4.4948303    1.6315096   -9.5725653  
C    5.3084751    0.8657772  -10.5361153  
N    5.3159664   -0.4317565  -10.0786882  
C    5.9027513    1.3975309  -11.6341950  
C    5.7296241    2.8189284  -11.8835766  
O    6.2248832    3.3916243  -12.8453665  
C    4.8721477    3.6493059  -10.8760989  
O    4.7196211    4.8469029  -11.0754933  
C    4.2816674    2.9642648   -9.7289710  
H    6.4954026    0.8181703  -12.3284685  
H    3.6891870    3.5463226   -9.0362225  
H    4.4671402   -1.4692907   -8.4117734  
H    5.7879660   -1.1969035  -10.5245741  
C    0.8400945    0.7047457    2.2710304  
C    0.0000000    0.0000000    1.4700000  
C   -0.8844236   -0.7423113    2.3369512  
C   -0.4878984   -0.4098547    3.7186280  
N    0.5629682    0.4714286    3.6095011  
C   -1.0836927   -0.9095027    4.8308716  
C   -2.1891196   -1.8367527    4.6554461  
O   -2.7906899   -2.3413415    5.5944904  
C   -2.6257283   -2.2031529    3.2011665  
O   -3.5549479   -2.9829990    3.0410059  
C   -1.9068976   -1.5999348    2.0816745  
H   -0.7774656   -0.6525820    5.8354244  
H   -2.2155208   -1.8586617    1.0779135  
H    1.6384792    1.3747609    1.9961646  
H    1.0518368    0.8833920    4.3830260  
