58

C    9.0554111    0.0026475   -0.0233451  
C   10.1120448    0.0031439   -0.8763395  
C   11.3071777    0.0036396   -0.0660966  
C   10.8569757    0.0033603    1.3389331  
N    9.4818196    0.0031573    1.2960923  
C   11.6872961    0.0032804    2.4123726  
C   13.1199867    0.0037095    2.1675510  
O   13.9495425    0.0037373    3.0676260  
C   13.6191477    0.0042626    0.6874690  
O   14.8231089    0.0049334    0.4689765  
C   12.6278399    0.0040197   -0.3854525  
H   10.0601657    0.0033433   -1.9505469  
H   11.3364906    0.0029443    3.4350384  
H   12.9816767    0.0042005   -1.4074717  
H    8.8805783    0.0013882    2.0995556  
C    7.0021976    0.0016964   -3.8667564  
C    5.7010038    0.0007395   -3.4946381  
C    5.7268784    0.0007367   -2.0400486  
C    7.1642508    0.0016711   -1.6928540  
N    7.9166770    0.0023174   -2.7595516  
C    7.6175796    0.0019951   -0.3291901  
C    6.6776993    0.0018010    0.6434146  
O    6.9577654    0.0020528    1.9577979  
C    5.2193467    0.0012353    0.3250321  
O    4.4197297    0.0009616    1.2608917  
C    4.7795901    0.0008674   -1.0815733  
H    4.8310657    0.0002033   -4.1288951  
H    6.0879580    0.0018433    2.3966452  
H    7.4070859    0.0020141   -4.8662757  
C    3.3321168    0.0004716   -1.3379341  
C    2.6974177    0.0000118   -2.5332316  
C    1.2800432   -0.0002116   -2.2052842  
C    1.2395033    0.0000644   -0.7271298  
N    2.4394059    0.0005460   -0.2131041  
C    0.0000000    0.0000000    0.0000000  
C   -1.1468704    0.0000635   -0.7169542  
O   -2.3742206    0.0000074   -0.1695488  
C   -1.1388774    0.0001608   -2.2096352  
O   -2.2206238    0.0000906   -2.7970409  
C    0.1454514    0.0001818   -2.9324241  
H    3.1367978   -0.0000649   -3.5160956  
H   -2.9844350    0.0001027   -0.9290164  
H    0.1083567    0.0003684   -4.0135594  
C    0.8400945    0.7047457    2.2710304  
C    0.0000000    0.0000000    1.4700000  
C   -0.8844236   -0.7423113    2.3369512  
C   -0.4878984   -0.4098547    3.7186280  
N    0.5629682    0.4714286    3.6095011  
C   -1.0836927   -0.9095027    4.8308716  
C   -2.1891196   -1.8367527    4.6554461  
O   -2.7906899   -2.3413415    5.5944904  
C   -2.6257283   -2.2031529    3.2011665  
O   -3.5549479   -2.9829990    3.0410059  
C   -1.9068976   -1.5999348    2.0816745  
H   -0.7774656   -0.6525820    5.8354244  
H   -2.2155208   -1.8586617    1.0779135  
H    1.6384792    1.3747609    1.9961646  
H    1.0518368    0.8833920    4.3830260  
