60

C    3.3041274    0.0001178   -1.5420431  
C    2.5845372   -0.0004778   -0.3695856  
C    1.2040005   -0.0000006   -0.7283589  
C    1.1422373    0.0006040   -2.1454374  
N    2.4348641    0.0026114   -2.6077463  
C   -0.0655182    0.0008802   -2.8497917  
C   -1.2321768    0.0002328   -2.1101399  
O   -2.4392813    0.0001150   -2.7472522  
C   -1.1911211   -0.0000006   -0.6955264  
O   -2.4371522   -0.0002319   -0.1032865  
C    0.0000000    0.0000000    0.0000000  
H    3.0031537   -0.0000663    0.6222576  
H    2.7054629   -0.0071094   -3.5745259  
H   -3.1132989   -0.0000645   -2.0551791  
H   -2.3200278   -0.0004071    0.8516404  
H    4.3686619    0.0004073   -1.7024298  
C    2.2991554   -2.1048091   -5.8924436  
C    1.6888958   -1.6397487   -7.0128797  
C    0.6412938   -0.7448175   -6.5810647  
C    0.6916334   -0.7264666   -5.1066431  
N    1.7177149   -1.5716513   -4.7520884  
C   -0.1387083    0.0017024   -4.3179685  
C   -1.1495780    0.8219306   -4.9644229  
O   -1.9445181    1.5135270   -4.3414736  
C   -1.2212028    0.8175542   -6.5247612  
O   -2.0683181    1.5039448   -7.0802109  
C   -0.2716614   -0.0081802   -7.2666419  
H   -0.3277647   -0.0054785   -8.3467201  
H    3.1245930   -2.7923366   -5.8038531  
H    2.0018701   -1.7690374   -3.8101006  
C    2.0368114   -1.9882065   -8.3979546  
C    3.0083204   -2.8207866   -8.8529881  
C    2.9282294   -2.8129730  -10.2946394  
C    1.8225150   -1.9010325  -10.6447115  
N    1.3236627   -1.4345365   -9.4503843  
C    1.4280555   -1.6221999  -11.9129219  
C    2.1398947   -2.2632096  -13.0060494  
O    1.8602217   -2.0769206  -14.1830704  
C    3.3140616   -3.2329247  -12.6585009  
O    3.9205299   -3.7786587  -13.5704398  
C    3.6466379   -3.4539563  -11.2533710  
H    3.7017824   -3.3770771   -8.2477898  
H    0.6144666   -0.9501063  -12.1480245  
H    4.4610600   -4.1266640  -11.0211951  
H    0.5605331   -0.7894957   -9.3576268  
C    0.8681109    0.7263879    2.2709268  
C    0.6127770    0.5096195    3.5869401  
C   -0.4920590   -0.4175482    3.6542670  
C   -0.8620974   -0.7254003    2.2596025  
N    0.0000000    0.0000000    1.4700000  
C   -1.8641242   -1.5660088    1.8976294  
C   -2.6293522   -2.2103885    2.9520183  
O   -3.5512764   -2.9839180    2.7283916  
C   -2.2549728   -1.8987399    4.4361073  
O   -2.8923672   -2.4351063    5.3323774  
C   -1.1543735   -0.9755647    4.7012123  
H    1.1382914    0.9492124    4.4159191  
H   -2.1192137   -1.7782617    0.8686553  
H   -0.9013378   -0.7652422    5.7314848  
H    1.6172880    1.3558399    1.8188057  
