60

C   -3.3003525    0.0028978   -1.4739002  
C   -2.5232790    0.0022692   -2.6090757  
C   -1.1623180    0.0013383   -2.1820107  
C   -1.1711875    0.0011572   -0.7636146  
N   -2.4852268    0.0040713   -0.3662371  
C    0.0000000    0.0000000    0.0000000  
C    1.2020389   -0.0012995   -0.6806471  
O    2.3759232   -0.0028154    0.0157756  
C    1.2314659   -0.0007669   -2.0955500  
O    2.5054393   -0.0017967   -2.6250164  
C    0.0764541    0.0006478   -2.8495191  
H   -2.8919915    0.0035634   -3.6205315  
H   -2.8036343   -0.0059084    0.5858648  
H    3.0835630   -0.0032351   -0.6418802  
H    2.4360069   -0.0013755   -3.5845911  
H    0.1304128    0.0012067   -3.9319087  
C   -5.6692732    0.0055330   -2.3388927  
C   -4.7630478    0.0044679   -1.3275427  
C   -5.5107295    0.0054631   -0.0923071  
C   -6.9370590    0.0071786   -0.4696269  
N   -6.9650240    0.0075361   -1.8451661  
C   -7.9663585    0.0080977    0.4148203  
C   -7.6481523    0.0075732    1.8330165  
O   -8.5043564    0.0083789    2.7077820  
C   -6.1443504    0.0060137    2.2553710  
O   -5.8642055    0.0058670    3.4464962  
C   -5.1238516    0.0048446    1.2101762  
H   -4.0849821    0.0035626    1.5109631  
H   -5.4995454    0.0052399   -3.4033555  
H   -7.7983572    0.0070618   -2.4042749  
C   -9.9189725   -0.6944022   -1.0182872  
C   -9.3795225    0.0096288    0.0100166  
C  -10.4557306    0.7529691    0.6216180  
C  -11.6751381    0.4218951   -0.1401072  
N  -11.2817634   -0.4596516   -1.1204242  
C  -12.9079258    0.9227864    0.1264405  
C  -13.0427267    1.8500111    1.2375742  
O  -14.1105966    2.3556638    1.5573701  
C  -11.7645258    2.2149589    2.0578315  
O  -11.8656320    2.9947706    2.9953452  
C  -10.4909970    1.6104723    1.6749852  
H  -13.7895780    0.6668684   -0.4446157  
H   -9.6107637    1.8681976    2.2481271  
H   -9.4355746   -1.3648175   -1.7102119  
H  -11.8911867   -0.8708789   -1.8034637  
C    0.8400945    0.7047457    2.2710304  
C    0.0000000    0.0000000    1.4700000  
C   -0.8844236   -0.7423113    2.3369512  
C   -0.4878984   -0.4098547    3.7186280  
N    0.5629682    0.4714286    3.6095011  
C   -1.0836927   -0.9095027    4.8308716  
C   -2.1891196   -1.8367527    4.6554461  
O   -2.7906899   -2.3413415    5.5944904  
C   -2.6257283   -2.2031529    3.2011665  
O   -3.5549479   -2.9829990    3.0410059  
C   -1.9068976   -1.5999348    2.0816745  
H   -0.7774656   -0.6525820    5.8354244  
H   -2.2155208   -1.8586617    1.0779135  
H    1.6384792    1.3747609    1.9961646  
H    1.0518368    0.8833920    4.3830260  
