58

C    3.2798085    0.0005856   -1.4499646  
C    2.5571146    0.0005565   -2.5996553  
C    1.1637436    0.0001548   -2.2210360  
C    1.1336964   -0.0000200   -0.7459468  
N    2.4483512   -0.0001429   -0.3402719  
C    0.0000000    0.0000000    0.0000000  
C   -1.2757371   -0.0000187   -0.6964415  
O   -2.3524597   -0.0000640   -0.1142312  
C   -1.2676493   -0.0000873   -2.2584081  
O   -2.3355761   -0.0004101   -2.8557295  
C    0.0181561    0.0001759   -2.9516296  
H    2.9547354    0.0006074   -3.5989104  
H    2.7563628    0.0012823    0.6148064  
C    4.7390846    0.0009612   -1.2727278  
C    5.7159792    0.0017141   -2.2159942  
C    6.9782062    0.0017425   -1.5148385  
C    6.6542741    0.0009094   -0.0754434  
N    5.2807307    0.0008646    0.0037357  
C    7.5764448    0.0002870    0.9201990  
C    8.9818048    0.0006748    0.5493907  
O    9.8878546    0.0002342    1.3724189  
C    9.3478552    0.0018086   -0.9690991  
O   10.5277196    0.0024502   -1.2934141  
C    8.2653761    0.0021244   -1.9499610  
H    5.5691192    0.0023771   -3.2813791  
H    7.3176380   -0.0004498    1.9699266  
H    8.5272595    0.0027054   -2.9993132  
H    4.7530487   -0.0011861    0.8573135  
C    0.0139740    0.0003878   -4.4216236  
C    1.0657033    0.0004477   -5.2806583  
C    0.5180452    0.0007113   -6.6166624  
C   -0.9494787    0.0008300   -6.4644642  
N   -1.1898343    0.0002246   -5.1097987  
C   -1.8296151    0.0014748   -7.4974515  
C   -1.2959126    0.0018667   -8.8493753  
O   -2.0065333    0.0023907   -9.8460291  
C    0.2551152    0.0014974   -9.0340855  
O    0.7160971    0.0015156  -10.1675560  
C    1.1016982    0.0010811   -7.8436448  
H    2.1063857    0.0001392   -5.0093769  
H   -2.9025139    0.0016805   -7.3640447  
H    2.1745868    0.0010326   -7.9801520  
H   -2.0996070    0.0017004   -4.6862906  
C    2.5128556    2.1077716    2.9199648  
C    1.9592212    1.6432552    4.0696553  
C    0.8915788    0.7479214    3.6910360  
C    0.8684491    0.7287414    2.2159470  
N    1.8754542    1.5738793    1.8102719  
C    0.0000000    0.0000000    1.4700000  
C   -0.9772830   -0.8200135    2.1664417  
O   -1.8021297   -1.5120829    1.5842315  
C   -0.9711318   -0.8147624    3.7284083  
O   -1.7894187   -1.5009653    4.3257297  
C    0.0140216    0.0115358    4.4216297  
H    2.2638494    1.8988021    5.0689105  
H    0.0117648    0.0094386    5.5031631  
H    3.3327358    2.7953732    2.7900019  
H    2.1123206    1.7707734    0.8551938  
