58

C    2.8789095   -2.9293009   -5.4852531  
C    3.3902749   -3.6103107   -4.4275165  
C    4.5084029   -4.3784142   -4.9221321  
C    4.6072575   -4.0869593   -6.3650709  
N    3.5909141   -3.2023755   -6.6433633  
C    5.5395600   -4.6196659   -7.1949746  
C    6.5102839   -5.5417709   -6.6293298  
O    7.3892532   -6.0742763   -7.2942757  
C    6.4241687   -5.8650159   -5.1035835  
O    7.2358485   -6.6401599   -4.6161527  
C    5.3747497   -5.2285166   -4.3114720  
H    3.0256898   -3.5783787   -3.4162452  
H    5.5947225   -4.3925547   -8.2505728  
H    5.3220911   -5.4574582   -3.2557556  
H    3.3975651   -2.8133520   -7.5479764  
C    1.7371424   -2.0043750   -5.5274499  
C    0.9346266   -1.6238673   -4.5062931  
C   -0.0220096   -0.7047842   -5.1034810  
C    0.3601286   -0.6444245   -6.5306850  
N    1.3906159   -1.4042329   -6.7851956  
C   -0.3537166    0.1694992   -7.4756929  
C   -1.4019181    0.8900574   -7.0159061  
O   -2.1569094    1.6919656   -7.7859529  
C   -1.8124076    0.8499979   -5.5813138  
O   -2.7762296    1.5318134   -5.2328958  
C   -1.0641734    0.0073898   -4.6315339  
H    0.9854830   -1.9292388   -3.4751590  
H   -0.0524154    0.1947168   -8.5127516  
H   -2.8200949    2.0664814   -7.1784370  
C    1.1319248    0.0015675   -0.8009270  
C    0.7969916    0.0034959   -2.1169404  
C   -0.6453336    0.0035703   -2.1842672  
C   -1.1266831    0.0015415   -0.7896027  
N    0.0000000    0.0000000    0.0000000  
C   -2.4346129    0.0013924   -0.4276297  
C   -3.4350110    0.0031352   -1.4820184  
O   -4.6384610    0.0030897   -1.2583919  
C   -2.9478958    0.0050460   -2.9661075  
O   -3.7809377    0.0062160   -3.8623775  
C   -1.5113821    0.0053068   -3.2312125  
H    1.4821240    0.0045436   -2.9459192  
H   -2.7664565    0.0000185    0.6013447  
H    2.1104318    0.0009428   -0.3488058  
C    2.5128556    2.1077716    2.9199648  
C    1.9592212    1.6432552    4.0696553  
C    0.8915788    0.7479214    3.6910360  
C    0.8684491    0.7287414    2.2159470  
N    1.8754542    1.5738793    1.8102719  
C    0.0000000    0.0000000    1.4700000  
C   -0.9772830   -0.8200135    2.1664417  
O   -1.8021297   -1.5120829    1.5842315  
C   -0.9711318   -0.8147624    3.7284083  
O   -1.7894187   -1.5009653    4.3257297  
C    0.0140216    0.0115358    4.4216297  
H    2.2638494    1.8988021    5.0689105  
H    0.0117648    0.0094386    5.5031631  
H    3.3327358    2.7953732    2.7900019  
H    2.1123206    1.7707734    0.8551938  
