58

C    8.1511238   -3.7012604   -3.9195480  
C    7.0826286   -3.0706321   -3.3675509  
C    7.0140001   -3.4886290   -1.9871871  
C    8.1381763   -4.4211359   -1.7787418  
N    8.7881052   -4.5073534   -2.9883081  
C    8.4185883   -5.0365996   -0.6021886  
C    7.5554606   -4.7624551    0.5346453  
O    7.7248562   -5.2675701    1.6366738  
C    6.3588126   -3.7782763    0.3365820  
O    5.6251094   -3.5400066    1.2864070  
C    6.1582153   -3.1762031   -0.9791387  
H    9.2482978   -5.7171439   -0.4704664  
H    5.3275194   -2.4957015   -1.1079191  
H    8.5266828   -3.6451113   -4.9283556  
H    9.6012408   -5.0677926   -3.1665372  
C    6.1745028   -2.1408797   -4.0544039  
C    6.2180773   -1.7334911   -5.3442551  
C    5.0926408   -0.8229047   -5.4882170  
C    4.4611847   -0.7965389   -4.1513732  
N    5.0910258   -1.5671308   -3.3066974  
C    3.2973506   -0.0000934   -3.8752374  
C    2.7877443    0.7368259   -4.8884434  
O    1.7057650    1.5254560   -4.7725804  
C    3.4025812    0.7316581   -6.2486307  
O    2.8855803    1.4266387   -7.1232350  
C    4.5959740   -0.0936230   -6.5067952  
H    6.9265059   -2.0159437   -6.1041411  
H    1.5889228    1.9175682   -5.6567459  
H    5.0113651   -0.0697219   -7.5053484  
C    3.3321174    0.0004714   -1.3379332  
C    2.6974186    0.0000115   -2.5332308  
C    1.2800441   -0.0002119   -2.2052838  
C    1.2395035    0.0000643   -0.7271293  
N    2.4394063    0.0005458   -0.2131034  
C    0.0000000    0.0000000    0.0000000  
C   -1.1468701    0.0000634   -0.7169542  
O   -2.3742201    0.0000072   -0.1695492  
C   -1.1388767    0.0001606   -2.2096354  
O   -2.2206229    0.0000903   -2.7970413  
C    0.1454526    0.0001815   -2.9324239  
H   -2.9844344    0.0001023   -0.9290168  
H    0.1083580    0.0003680   -4.0135594  
H    4.3940040    0.0007617   -1.1498630  
C    2.5528530    2.1414826    2.8079335  
C    2.0663498    1.7338582    4.0032312  
C    0.9804344    0.8229586    3.6752840  
C    0.9495562    0.7966882    2.1971295  
N    1.8690446    1.5676019    1.6831036  
C    0.0000000    0.0000000    1.4700000  
C   -0.8785127   -0.7372425    2.1869543  
O   -1.8187535   -1.5261249    1.6395491  
C   -0.8723269   -0.7321790    3.6796354  
O   -1.7010379   -1.4274584    4.2670412  
C    0.1115397    0.0933559    4.4024240  
H    2.4028853    2.0163452    4.9860947  
H   -2.2861435   -1.9184361    2.3990168  
H    0.0832434    0.0693689    5.4835595  
H    3.3664920    2.8238276    2.6198634  
