58

C    3.0593704   -2.1180899   -7.2626550  
C    4.1205947   -2.9606319   -7.1732040  
C    4.7438963   -2.9923135   -8.4752512  
C    3.9531597   -2.0926920   -9.3367659  
N    2.9465974   -1.5948965   -8.5418310  
C    4.2204793   -1.8494173  -10.6448419  
C    5.3631273   -2.5184333  -11.2442664  
O    5.6861766   -2.3649281  -12.4148962  
C    6.2144391   -3.4757256  -10.3505864  
O    7.1786286   -4.0447916  -10.8443098  
C    5.8276599   -3.6576234   -8.9537454  
H    4.4311961   -3.4986852   -6.2953432  
H    3.6278507   -1.1857755  -11.2590733  
H    6.4224184   -4.3219566   -8.3416603  
H    2.2402032   -0.9492455   -8.8438074  
C    2.0485056   -2.1404844   -4.9352587  
C    2.0920574   -1.7327545   -6.2250031  
C    0.9665700   -0.8221936   -6.3687260  
C    0.3351121   -0.7962141   -5.0318749  
N    0.9649965   -1.5669928   -4.1874018  
C   -0.8287665    0.0000939   -4.7555305  
C   -1.3384139    0.7372506   -5.7685426  
O   -2.4204375    1.5257894   -5.6524726  
C   -0.7235765    0.7324746   -7.1287316  
O   -1.2406162    1.4276558   -8.0031529  
C    0.4698624   -0.0926721   -7.3871122  
H   -2.5373015    1.9181275   -6.5365349  
H    0.8852523   -0.0684851   -8.3856595  
H    2.7147574   -2.8226587   -4.4315531  
C    1.0672569   -0.0000698   -0.8321910  
C    0.0000000    0.0000000    0.0000000  
C   -1.1601223   -0.0000736   -0.8778472  
C   -0.5938729   -0.0000768   -2.2438435  
N    0.7113367   -0.0001553   -2.2234123  
C   -1.4286985   -0.0001877   -3.4135239  
C   -2.7683113   -0.0006798   -3.2270524  
O   -3.6653902   -0.0008302   -4.2276970  
C   -3.3702024   -0.0010610   -1.8610774  
O   -4.5974910   -0.0013779   -1.7662963  
C   -2.4926825   -0.0008943   -0.6770658  
H   -4.5324245   -0.0012258   -3.7833954  
H   -2.9677772   -0.0012974    0.2947961  
H    2.1134391   -0.0000547   -0.5705119  
C    0.8400945    0.7047457    2.2710304  
C    0.0000000    0.0000000    1.4700000  
C   -0.8844236   -0.7423113    2.3369512  
C   -0.4878984   -0.4098547    3.7186280  
N    0.5629682    0.4714286    3.6095011  
C   -1.0836927   -0.9095027    4.8308716  
C   -2.1891196   -1.8367527    4.6554461  
O   -2.7906899   -2.3413415    5.5944904  
C   -2.6257283   -2.2031529    3.2011665  
O   -3.5549479   -2.9829990    3.0410059  
C   -1.9068976   -1.5999348    2.0816745  
H   -0.7774656   -0.6525820    5.8354244  
H   -2.2155208   -1.8586617    1.0779135  
H    1.6384792    1.3747609    1.9961646  
H    1.0518368    0.8833920    4.3830260  
