58

C   -8.0916675   -0.5298430   -2.9607699  
C   -8.3189198    0.3129446   -1.9205103  
C   -9.7468534    0.3449329   -1.7088083  
C  -10.3371054   -0.5547764   -2.7182228  
N   -9.2808309   -1.0529105   -3.4455715  
C  -11.6658949   -0.7978298   -2.8484028  
C  -12.5754405   -0.1284660   -1.9334085  
O  -13.7893086   -0.2817528   -1.9698293  
C  -11.9723036    0.8289250   -0.8566386  
O  -12.7282495    1.3982833   -0.0809860  
C  -10.5234838    1.0105620   -0.8144254  
H   -7.5715580    0.8509675   -1.3649980  
H  -12.0782208   -1.4615414   -3.5956544  
H  -10.1138387    1.6749652   -0.0657716  
H   -9.3612352   -1.6986958   -4.2094719  
C   -4.0214243    0.6873773   -1.9917545  
C   -3.2941076    0.0012878   -2.9038237  
C   -4.2729631   -0.7438337   -3.6804421  
C   -5.5765700   -0.3795575   -3.0850461  
N   -5.4354549    0.4591738   -2.0947904  
C   -6.8150157   -0.9155365   -3.5790749  
C   -6.7539668   -1.7760008   -4.6208079  
O   -7.8303768   -2.3520038   -5.1825938  
C   -5.4537107   -2.1628843   -5.2435564  
O   -5.4732697   -2.9512790   -6.1886867  
C   -4.1970807   -1.5995187   -4.7187459  
H   -7.4696184   -2.9089611   -5.8958990  
H   -3.2763254   -1.9047888   -5.1975465  
H   -3.6647951    1.3595210   -1.2275475  
C    0.0000000    0.0000000    0.0000000  
C    1.0541688   -0.0001723   -0.8560392  
C    0.5103136   -0.0000455   -2.1935956  
C   -0.9576373    0.0002461   -2.0455730  
N   -1.2018460   -0.0001389   -0.6915968  
C   -1.8348314    0.0008319   -3.0810607  
C   -1.2972851    0.0009739   -4.4314603  
O   -2.0050676    0.0014268   -5.4301316  
C    0.2542619    0.0004184   -4.6117572  
O    0.7184666    0.0002257   -5.7439122  
C    1.0974551    0.0000873   -3.4189129  
H    2.0940752   -0.0005484   -0.5817983  
H    2.1707276   -0.0000912   -3.5523673  
H   -2.1128194    0.0014915   -0.2706789  
C    3.2573670    0.0002920    2.9809380  
C    2.5379467    0.0001709    1.8291961  
C    1.1435042   -0.0000331    2.2038498  
C    1.1092607    0.0000083    3.6788474  
N    2.4227561   -0.0001909    4.0882609  
C   -0.0265533    0.0002524    4.4215661  
C   -1.3003036    0.0002640    3.7214979  
O   -2.3786784    0.0004133    4.3006425  
C   -1.2877726   -0.0000311    2.1595606  
O   -2.3539958   -0.0003306    1.5592035  
C    0.0000000    0.0000000    1.4700000  
H    2.9384090    0.0000368    0.8310761  
H   -0.0296291    0.0004086    5.5027230  
H    4.3270393    0.0004765    3.1139444  
H    2.7280493    0.0013407    5.0442112  
