60

C    3.3041277    0.0001176   -1.5420422  
C    2.5845371   -0.0004780   -0.3695846  
C    1.2040006   -0.0000008   -0.7283586  
C    1.1422384    0.0006037   -2.1454371  
N    2.4348644    0.0026109   -2.6077459  
C   -0.0655172    0.0008798   -2.8497916  
C   -1.2321763    0.0002325   -2.1101401  
O   -2.4392807    0.0001147   -2.7472523  
C   -1.1911213   -0.0000008   -0.6955266  
O   -2.4371520   -0.0002319   -0.1032867  
C    0.0000000    0.0000000    0.0000000  
H    3.0031534   -0.0000661    0.6222589  
H    2.7054633   -0.0071100   -3.5745256  
H   -0.1193541    0.0014843   -3.9297470  
H   -3.1132989   -0.0000648   -2.0551790  
H   -2.3200289   -0.0004070    0.8516405  
C    6.6801369   -0.0033359    1.2661402  
C    7.7093287   -0.0019930    0.3802296  
C    7.1273480   -0.0004471   -0.9411831  
C    5.6642442   -0.0009742   -0.7511341  
N    5.4589562   -0.0031398    0.6092857  
C    4.7577224    0.0005128   -1.7610450  
C    5.2563301    0.0025578   -3.1262999  
O    4.5202056    0.0039396   -4.1042669  
C    6.8020700    0.0028971   -3.3510072  
O    7.2336242    0.0043058   -4.4960050  
C    7.6791169    0.0014555   -2.1828292  
H    8.7566703   -0.0022582    0.6245425  
H    6.7110416   -0.0046692    2.3436059  
H    4.5604253   -0.0024244    1.0561502  
C   10.9471141   -2.1085311   -0.1453089  
C   11.9993486   -1.6427788   -0.8663861  
C   11.4628714   -0.7461443   -1.8629173  
C   10.0013606   -0.7275480   -1.6618424  
N    9.7534173   -1.5742309   -0.6061238  
C    9.1320829    0.0020687   -2.4059662  
C    9.6719403    0.8237080   -3.4764792  
O    8.9711277    1.5166614   -4.2024121  
C   11.2167421    0.8191000   -3.7075036  
O   11.6827892    1.5066700   -4.6060066  
C   12.0516401   -0.0082550   -2.8401626  
H   13.0333176   -1.8983250   -0.7173304  
H   13.1202978   -0.0057035   -3.0065603  
H   10.9432511   -2.7973070    0.6838249  
H    8.8454018   -1.7718471   -0.2273059  
C    0.8681109    0.7263879    2.2709268  
C    0.6127770    0.5096195    3.5869401  
C   -0.4920590   -0.4175482    3.6542670  
C   -0.8620974   -0.7254003    2.2596025  
N    0.0000000    0.0000000    1.4700000  
C   -1.8641242   -1.5660088    1.8976294  
C   -2.6293522   -2.2103885    2.9520183  
O   -3.5512764   -2.9839180    2.7283916  
C   -2.2549728   -1.8987399    4.4361073  
O   -2.8923672   -2.4351063    5.3323774  
C   -1.1543735   -0.9755647    4.7012123  
H    1.1382914    0.9492124    4.4159191  
H   -2.1192137   -1.7782617    0.8686553  
H   -0.9013378   -0.7652422    5.7314848  
H    1.6172880    1.3558399    1.8188057  
