58

C    6.6317365    0.0027575   -4.3241616  
C    5.4016570    0.0020952   -3.7488541  
C    5.6054510    0.0015082   -2.3194127  
C    7.0655596    0.0019147   -2.1075798  
N    7.6303533    0.0022710   -3.3621307  
C    7.6659163    0.0019587   -0.8905029  
C    6.8173803    0.0013542    0.2895489  
O    7.2622819    0.0012813    1.4298841  
C    5.2683488    0.0006643    0.0887881  
O    4.5438178   -0.0001546    1.0748482  
C    4.7390840    0.0009613   -1.2727298  
H    4.4591013    0.0018433   -4.2667372  
H    8.7388159    0.0023901   -0.7570955  
H    6.8927419    0.0033431   -5.3699948  
C    9.6973343    0.7328229   -4.6397255  
C   11.0382823    0.5185477   -4.6352478  
C   11.3129134   -0.4083768   -3.5627631  
C   10.0127186   -0.7188035   -2.9383286  
N    9.0743780    0.0050258   -3.6372403  
C    9.8462340   -1.5599843   -1.8864719  
C   11.0264023   -2.2023072   -1.3322522  
O   10.9807037   -2.9761582   -0.3849580  
C   12.4136232   -1.8879169   -1.9776855  
O   13.4143413   -2.4225362   -1.5194225  
C   12.4663489   -0.9643613   -3.1082242  
H   11.7534458    0.9596386   -5.3065111  
H    8.8835772   -1.7741386   -1.4433703  
H   13.4306697   -0.7521348   -3.5495515  
H    9.1118234    1.3613483   -5.2908951  
C    3.2798077    0.0005856   -1.4499661  
C    2.5571132    0.0005565   -2.5996564  
C    1.1637425    0.0001547   -2.2210366  
C    1.1336959   -0.0000200   -0.7459475  
N    2.4483509   -0.0001429   -0.3402730  
C    0.0000000    0.0000000    0.0000000  
C   -1.2757370   -0.0000187   -0.6964411  
O   -2.3524597   -0.0000640   -0.1142306  
C   -1.2676502   -0.0000874   -2.2584078  
O   -2.3355774   -0.0004102   -2.8557287  
C    0.0181551    0.0001758   -2.9516297  
H    2.9547342    0.0006074   -3.5989118  
H    0.0150776    0.0003317   -4.0331632  
H    2.7563626    0.0012823    0.6148051  
C    0.8400945    0.7047457    2.2710304  
C    0.0000000    0.0000000    1.4700000  
C   -0.8844236   -0.7423113    2.3369512  
C   -0.4878984   -0.4098547    3.7186280  
N    0.5629682    0.4714286    3.6095011  
C   -1.0836927   -0.9095027    4.8308716  
C   -2.1891196   -1.8367527    4.6554461  
O   -2.7906899   -2.3413415    5.5944904  
C   -2.6257283   -2.2031529    3.2011665  
O   -3.5549479   -2.9829990    3.0410059  
C   -1.9068976   -1.5999348    2.0816745  
H   -0.7774656   -0.6525820    5.8354244  
H   -2.2155208   -1.8586617    1.0779135  
H    1.6384792    1.3747609    1.9961646  
H    1.0518368    0.8833920    4.3830260  
