58

C    0.8807936   -0.7246964   -5.2251247  
C    0.6214206   -0.5080871   -6.5403741  
C   -0.4848681    0.4175795   -6.6044203  
C   -0.8513575    0.7247245   -5.2086628  
N    0.0139734    0.0003888   -4.4216239  
C   -1.8534974    1.5639103   -4.8437161  
C   -2.6226025    2.2073963   -5.8958280  
O   -3.5449425    2.9796328   -5.6694648  
C   -2.2520214    1.8964737   -7.3810223  
O   -2.8926950    2.4320977   -8.2753961  
C   -1.1509204    0.9748416   -7.6493941  
H    1.1451744   -0.9468419   -7.3709103  
H   -2.1059483    1.7756660   -3.8139887  
H    1.6321137   -1.3531896   -4.7752303  
C    3.2798082    0.0005861   -1.4499653  
C    2.5571141    0.0005572   -2.5996559  
C    1.1637433    0.0001554   -2.2210362  
C    1.1336966   -0.0000198   -0.7459475  
N    2.4483514   -0.0001427   -0.3402724  
C    0.0000000    0.0000000    0.0000000  
C   -1.2757370   -0.0000185   -0.6964413  
O   -2.3524597   -0.0000641   -0.1142310  
C   -1.2676496   -0.0000871   -2.2584082  
O   -2.3355767   -0.0004097   -2.8557289  
C    0.0181556    0.0001766   -2.9516298  
H    2.9547351    0.0006083   -3.5989109  
H    4.3498546    0.0008617   -1.3200028  
H    2.7563630    0.0012823    0.6148051  
C   -0.4633186   -0.5201669   -9.5604567  
C   -0.8105958    0.6896488   -9.0507305  
C   -0.7800091    1.6317892  -10.1444722  
C   -0.3836317    0.8661912  -11.3417763  
N   -0.2062894   -0.4313753  -10.9201592  
C   -0.2410013    1.3980714  -12.5821250  
C   -0.4946051    2.8194734  -12.7489688  
O   -0.3931241    3.3922786  -13.8259546  
C   -0.9153080    3.6497099  -11.4945686  
O   -1.1311685    4.8473090  -11.6227124  
C   -1.0361442    2.9645385  -10.2101269  
H    0.0505354    0.8188083  -13.4472090  
H   -1.3280901    3.5464991   -9.3465216  
H   -0.3733271   -1.4690976   -9.0571459  
H    0.0657710   -1.1964524  -11.5098097  
C    0.0000000    0.0000000    1.4700000  
C    1.0662921    0.0000102    2.3034270  
C    0.4961870   -0.0000064    3.6418889  
C   -0.9663858    0.0000850    3.4240247  
N   -1.2632773    0.0000084    2.1528658  
C   -1.8985362    0.0000517    4.5177257  
C   -1.3925775   -0.0004564    5.7720543  
O   -2.1456383   -0.0005410    6.8851312  
C    0.0786232   -0.0009323    6.0245000  
O    0.4683759   -0.0012588    7.1921102  
C    1.0143166   -0.0008442    4.8859032  
H    2.1107198   -0.0000632    2.0421868  
H   -2.9622183    0.0003270    4.3293377  
H   -1.5042274   -0.0009692    7.6184419  
H    2.0724152   -0.0013148    5.1109744  
