58

C    8.1892491    0.0036053   -2.5367312  
C    8.3413350    0.0052329   -3.8861544  
C    9.7609537    0.0074769   -4.1498066  
C   10.4282441    0.0069906   -2.8339358  
N    9.4199400    0.0050110   -1.8978751  
C   11.7733504    0.0082603   -2.6539584  
C   12.6203933    0.0104640   -3.8350800  
O   13.8431057    0.0117944   -3.7778852  
C   11.9351793    0.0112670   -5.2387489  
O   12.6380264    0.0134258   -6.2403795  
C   10.4759224    0.0094681   -5.3052085  
H    7.5494197    0.0050821   -4.6138098  
H   12.2425976    0.0077438   -1.6799373  
H   10.0092855    0.0098333   -6.2809000  
H    9.5569786    0.0026822   -0.9037612  
C    5.6664810    0.0014065   -2.2647026  
C    4.7390840    0.0009613   -1.2727298  
C    5.4604950    0.0006395   -0.0219693  
C    6.8944812    0.0009652   -0.3690619  
N    6.9515096    0.0010262   -1.7437027  
C    7.9048599    0.0011991    0.5369402  
C    7.5567537    0.0008990    1.9480947  
O    8.3942798    0.0010140    2.8407597  
C    6.0443612    0.0002996    2.3385746  
O    5.7391067   -0.0002636    3.5235134  
C    5.0461773    0.0003722    1.2720470  
H    8.9502793    0.0015667    0.2612453  
H    4.0011828    0.0001603    1.5508123  
H    5.5192864    0.0017636   -3.3325147  
C    3.2798077    0.0005856   -1.4499661  
C    2.5571132    0.0005565   -2.5996564  
C    1.1637425    0.0001547   -2.2210366  
C    1.1336959   -0.0000200   -0.7459475  
N    2.4483509   -0.0001429   -0.3402730  
C    0.0000000    0.0000000    0.0000000  
C   -1.2757370   -0.0000187   -0.6964411  
O   -2.3524597   -0.0000640   -0.1142306  
C   -1.2676502   -0.0000874   -2.2584078  
O   -2.3355774   -0.0004102   -2.8557287  
C    0.0181551    0.0001758   -2.9516297  
H    2.9547342    0.0006074   -3.5989118  
H    0.0150776    0.0003317   -4.0331632  
H    2.7563626    0.0012823    0.6148051  
C    2.5128556    2.1077716    2.9199648  
C    1.9592212    1.6432552    4.0696553  
C    0.8915788    0.7479214    3.6910360  
C    0.8684491    0.7287414    2.2159470  
N    1.8754542    1.5738793    1.8102719  
C    0.0000000    0.0000000    1.4700000  
C   -0.9772830   -0.8200135    2.1664417  
O   -1.8021297   -1.5120829    1.5842315  
C   -0.9711318   -0.8147624    3.7284083  
O   -1.7894187   -1.5009653    4.3257297  
C    0.0140216    0.0115358    4.4216297  
H    2.2638494    1.8988021    5.0689105  
H    0.0117648    0.0094386    5.5031631  
H    3.3327358    2.7953732    2.7900019  
H    2.1123206    1.7707734    0.8551938  
