58

C   -0.2618279    0.5746544   -9.3363591  
C    0.8072170   -0.2583420   -9.4220033  
C    1.2386302   -0.2493096  -10.7999142  
C    0.3267712    0.6638004  -11.5151300  
N   -0.5595937    1.1297403  -10.5716543  
C    0.4030530    0.9439655  -12.8407976  
C    1.4532031    0.3032593  -13.6148884  
O    1.6048821    0.4907154  -14.8149524  
C    2.4300114   -0.6676781  -12.8780492  
O    3.3179054   -1.2131691  -13.5194109  
C    2.2477231   -0.8901026  -11.4458659  
H    1.2436448   -0.8156747   -8.6123588  
H   -0.2757925    1.6169015  -13.3460059  
H    2.9283752   -1.5636502  -10.9431030  
H   -1.3063721    1.7753203  -10.7522000  
C   -0.0202922   -0.6967077   -5.1400949  
C   -1.0641734    0.0073898   -4.6315339  
C   -1.6428383    0.7514419   -5.7253206  
C   -0.8448098    0.4207133   -6.9213805  
N    0.1229401   -0.4613335   -6.4990734  
C   -1.0739323    0.9222826   -8.1613951  
C   -2.1802185    1.8499244   -8.3291660  
O   -2.4675339    2.3561923   -9.4059403  
C   -3.0385134    2.2145166   -7.0760871  
O   -3.9723185    2.9946740   -7.2050180  
C   -2.6944047    1.6092961   -5.7918949  
H   -3.2937355    1.8667792   -4.9292081  
H    0.6565472   -1.3675748   -4.6363932  
H    0.8239110   -0.8724840   -7.0878369  
C    1.1319248    0.0015675   -0.8009270  
C    0.7969916    0.0034959   -2.1169404  
C   -0.6453336    0.0035703   -2.1842672  
C   -1.1266831    0.0015415   -0.7896027  
N    0.0000000    0.0000000    0.0000000  
C   -2.4346129    0.0013924   -0.4276297  
C   -3.4350110    0.0031352   -1.4820184  
O   -4.6384610    0.0030897   -1.2583919  
C   -2.9478958    0.0050460   -2.9661075  
O   -3.7809377    0.0062160   -3.8623775  
C   -1.5113821    0.0053068   -3.2312125  
H    1.4821240    0.0045436   -2.9459192  
H   -2.7664565    0.0000185    0.6013447  
H    2.1104318    0.0009428   -0.3488058  
C    0.8400945    0.7047457    2.2710304  
C    0.0000000    0.0000000    1.4700000  
C   -0.8844236   -0.7423113    2.3369512  
C   -0.4878984   -0.4098547    3.7186280  
N    0.5629682    0.4714286    3.6095011  
C   -1.0836927   -0.9095027    4.8308716  
C   -2.1891196   -1.8367527    4.6554461  
O   -2.7906899   -2.3413415    5.5944904  
C   -2.6257283   -2.2031529    3.2011665  
O   -3.5549479   -2.9829990    3.0410059  
C   -1.9068976   -1.5999348    2.0816745  
H   -0.7774656   -0.6525820    5.8354244  
H   -2.2155208   -1.8586617    1.0779135  
H    1.6384792    1.3747609    1.9961646  
H    1.0518368    0.8833920    4.3830260  
