62

C    1.1188641    0.0008220   -0.8003808  
C    0.0000000    0.0000000    0.0000000  
C   -1.1323866    0.0008906   -0.8673522  
C   -0.6382666    0.0019686   -2.1969277  
N    0.7324014    0.0038484   -2.1202240  
C   -1.4770914    0.0027331   -3.3154805  
C   -2.8395481    0.0020961   -3.0876854  
O   -3.7039204    0.0024448   -4.1440347  
C   -3.3517874    0.0013946   -1.7684327  
O   -4.7300495    0.0012386   -1.7073120  
C   -2.5248549    0.0009135   -0.6644811  
H   -1.1067577    0.0037001   -4.3313811  
H   -4.5940041    0.0021855   -3.7685124  
H   -4.9934602    0.0007280   -0.7819907  
H   -2.9462581    0.0005613    0.3339664  
H    2.1619892    0.0009349   -0.5342070  
C    4.4769653   -2.1470646   -2.7027291  
C    4.8409674   -1.7539562   -3.9455273  
C    3.7877256   -0.8472137   -4.3756423  
C    2.8430643   -0.8072144   -3.2387173  
N    3.2418487   -1.5671443   -2.2551183  
C    1.6478429   -0.0100098   -3.2703000  
C    1.4074689    0.7146095   -4.3867597  
O    0.3314538    1.5023762   -4.5530620  
C    2.3418713    0.6955153   -5.5506701  
O    2.0597581    1.3797252   -6.5342807  
C    3.5612144   -0.1302661   -5.4939936  
H    5.7161623   -2.0434626   -4.5016712  
H    0.4389875    1.8844071   -5.4428040  
H    4.2123683   -0.1166603   -6.3577324  
C    5.1844436   -3.0673590   -1.8008239  
C    6.3665495   -3.7482166   -1.9783804  
C    6.5956868   -4.5017703   -0.7891566  
C    5.5106350   -4.2388217    0.0857410  
N    4.6731039   -3.3625942   -0.5587623  
C    5.4056677   -4.8156153    1.3550241  
C    6.4142763   -5.6737183    1.7481460  
O    6.3614548   -6.2646418    2.9773877  
C    7.5052289   -5.9483061    0.8895188  
O    8.4280627   -6.8226296    1.4255045  
C    7.6095702   -5.3794307   -0.3626873  
H    6.9878914   -3.7059891   -2.8565281  
H    3.8123457   -3.0030405   -0.1875510  
H    4.5813190   -4.6191784    2.0266373  
H    7.1512936   -6.8162212    3.0493510  
H    9.1315005   -6.9542620    0.7825023  
H    8.4570443   -5.6085591   -0.9981131  
C    0.0000000    0.0000000    1.4700000  
C    1.0541688    0.0001722    2.3260392  
C    0.5103138    0.0000454    3.6635956  
C   -0.9576371   -0.0002459    3.5155732  
N   -1.2018458    0.0001392    2.1615969  
C   -1.8348311   -0.0008317    4.5510609  
C   -1.2972847   -0.0009736    5.9014604  
O   -2.0050672   -0.0014265    6.9001319  
C    0.2542623   -0.0004184    6.0817573  
O    0.7184670   -0.0002256    7.2139121  
C    1.0974552   -0.0000873    4.8889129  
H    2.0940752    0.0005483    2.0517982  
H   -2.9081052   -0.0011668    4.4207061  
H    2.1707277    0.0000911    5.0223670  
H   -2.1128194   -0.0014912    1.7406791  
