58

C    8.1165425   -0.0037910   -1.0553574  
C    8.3876022   -0.0044749    0.2752820  
C    9.8249988   -0.0066797    0.4121067  
C   10.3730654   -0.0071989   -0.9577163  
N    9.2857834   -0.0057796   -1.8007507  
C   11.6969327   -0.0087371   -1.2561746  
C   12.6453026   -0.0101893   -0.1547537  
O   13.8581373   -0.0116882   -0.3200668  
C   12.0871627   -0.0099226    1.3041104  
O   12.8759993   -0.0114425    2.2395232  
C   10.6395349   -0.0079239    1.4996116  
H    7.6632794   -0.0037238    1.0702463  
H   12.0780263   -0.0089623   -2.2679441  
H   10.2611895   -0.0075465    2.5128137  
H    9.3341948   -0.0041721   -2.8030985  
C    5.5795936   -0.0015221   -1.1027758  
C    4.5679461   -0.0016854   -2.0086701  
C    5.1756898   -0.0023284   -3.3184345  
C    6.6347911   -0.0025571   -3.0997723  
N    6.8134018   -0.0016466   -1.7355923  
C    7.5609147   -0.0035409   -4.0917396  
C    7.0891356   -0.0042079   -5.4664974  
O    7.8442685   -0.0050452   -6.4298635  
C    5.5480919   -0.0037282   -5.7214290  
O    5.1390410   -0.0039758   -6.8746584  
C    4.6483393   -0.0029380   -4.5706481  
H    8.6266511   -0.0038216   -3.9097633  
H    3.5827541   -0.0028152   -4.7557202  
H    5.5275966   -0.0011044   -0.0261211  
C    3.1301149   -0.0010311   -1.7028252  
C    2.5367768   -0.0002767   -0.4864665  
C    1.1089904    0.0001028   -0.7656183  
C    1.0177872   -0.0004148   -2.2415132  
N    2.1993578   -0.0011611   -2.7963820  
C   -0.2459209   -0.0002877   -2.9257118  
C   -1.3675319   -0.0000605   -2.1698524  
O   -2.6129313    0.0000867   -2.6748490  
C   -1.3083584    0.0000910   -0.6783232  
O   -2.3693261    0.0004206   -0.0541692  
C    0.0000000    0.0000000    0.0000000  
H    3.0096017   -0.0001007    0.4807525  
H   -0.2829630   -0.0004687   -4.0053125  
H   -3.1967441    0.0002094   -1.8949034  
C    0.8400945    0.7047457    2.2710304  
C    0.0000000    0.0000000    1.4700000  
C   -0.8844236   -0.7423113    2.3369512  
C   -0.4878984   -0.4098547    3.7186280  
N    0.5629682    0.4714286    3.6095011  
C   -1.0836927   -0.9095027    4.8308716  
C   -2.1891196   -1.8367527    4.6554461  
O   -2.7906899   -2.3413415    5.5944904  
C   -2.6257283   -2.2031529    3.2011665  
O   -3.5549479   -2.9829990    3.0410059  
C   -1.9068976   -1.5999348    2.0816745  
H   -0.7774656   -0.6525820    5.8354244  
H   -2.2155208   -1.8586617    1.0779135  
H    1.6384792    1.3747609    1.9961646  
H    1.0518368    0.8833920    4.3830260  
