58

C    7.6204913   -0.7028051   -5.0799835  
C    7.1003450    0.0002888   -6.1188200  
C    8.1882841    0.7410904   -6.7124845  
C    9.3935381    0.4095484   -5.9287552  
N    8.9815988   -0.4698178   -4.9541203  
C   10.6315736    0.9082501   -6.1742519  
C   10.7873617    1.8334440   -7.2843339  
O   11.8614553    2.3370530   -7.5859994  
C    9.5244087    2.1988466   -8.1276827  
O    9.6432202    2.9769629   -9.0645281  
C    8.2434299    1.5967999   -7.7664570  
H   11.5026089    0.6520270   -5.5872630  
H    7.3738528    1.8548250   -8.3555093  
H    7.1239530   -1.3713892   -4.3956334  
H    9.5782413   -0.8807785   -4.2597313  
C    3.2973507   -0.0000930   -3.8752373  
C    4.6090968    0.0000009   -4.2265165  
C    4.6584752   -0.0001359   -5.6695676  
C    3.2579291   -0.0002893   -6.1335296  
N    2.4824026   -0.0006539   -4.9971104  
C    2.8797130   -0.0000493   -7.4368552  
C    3.9215762    0.0001635   -8.4502935  
O    3.6829951    0.0003259   -9.6508676  
C    5.4116113    0.0000766   -7.9816782  
O    6.2974493   -0.0000527   -8.8258056  
C    5.6945668    0.0000918   -6.5485739  
H    5.4465356   -0.0000332   -3.5517502  
H    1.8466888   -0.0000377   -7.7558720  
H    1.4789639    0.0007238   -4.9846265  
C    3.3321175    0.0004715   -1.3379331  
C    2.6974186    0.0000117   -2.5332308  
C    1.2800441   -0.0002117   -2.2052838  
C    1.2395036    0.0000644   -0.7271292  
N    2.4394065    0.0005460   -0.2131033  
C    0.0000000    0.0000000    0.0000000  
C   -1.1468701    0.0000635   -0.7169542  
O   -2.3742199    0.0000073   -0.1695491  
C   -1.1388766    0.0001607   -2.2096354  
O   -2.2206227    0.0000905   -2.7970412  
C    0.1454526    0.0001817   -2.9324239  
H   -2.9844344    0.0001026   -0.9290168  
H    0.1083579    0.0003683   -4.0135594  
H    4.3940038    0.0007619   -1.1498630  
C    0.8681109    0.7263879    2.2709268  
C    0.6127770    0.5096195    3.5869401  
C   -0.4920590   -0.4175482    3.6542670  
C   -0.8620974   -0.7254003    2.2596025  
N    0.0000000    0.0000000    1.4700000  
C   -1.8641242   -1.5660088    1.8976294  
C   -2.6293522   -2.2103885    2.9520183  
O   -3.5512764   -2.9839180    2.7283916  
C   -2.2549728   -1.8987399    4.4361073  
O   -2.8923672   -2.4351063    5.3323774  
C   -1.1543735   -0.9755647    4.7012123  
H    1.1382914    0.9492124    4.4159191  
H   -2.1192137   -1.7782617    0.8686553  
H   -0.9013378   -0.7652422    5.7314848  
H    1.6172880    1.3558399    1.8188057  
