62

C   -4.7630506   -0.0017261   -1.3275389  
C   -5.7496382   -0.0041248   -2.2862394  
C   -6.9989995   -0.0038895   -1.5979835  
C   -6.7092697   -0.0009933   -0.2094684  
N   -5.3425445   -0.0016914   -0.0803276  
C   -7.7059384    0.0003208    0.7710617  
C   -9.0190065   -0.0010117    0.3420785  
O  -10.0316333    0.0005299    1.2572836  
C   -9.3281955   -0.0042756   -1.0389385  
O  -10.6818176   -0.0056693   -1.3054849  
C   -8.3454697   -0.0058468   -2.0068093  
H   -5.5886403   -0.0069392   -3.3506946  
H   -4.8418176    0.0104574    0.7897908  
H   -7.4916930    0.0023831    1.8309189  
H  -10.8555486   -0.0010899    0.7528775  
H  -10.8038881   -0.0078436   -2.2597896  
C   -3.3003548   -0.0013941   -1.4738977  
C   -2.5232815   -0.0010120   -2.6090739  
C   -1.1623206   -0.0001731   -2.1820097  
C   -1.1711886   -0.0003658   -0.7636136  
N   -2.4852304    0.0008394   -0.3662353  
C    0.0000000    0.0000000    0.0000000  
C    1.2020380    0.0002638   -0.6806477  
O    2.3759255    0.0002744    0.0157743  
C    1.2314650    0.0008347   -2.0955509  
O    2.5054380    0.0014616   -2.6250181  
C    0.0764505    0.0007474   -2.8495190  
H   -2.8919962   -0.0001972   -3.6205292  
H   -2.8036244   -0.0095543    0.5858671  
H    3.0835632    0.0007749   -0.6418820  
H    2.4360040    0.0017925   -3.5845923  
H    0.1304089    0.0013765   -3.9319086  
C   -6.6613252   -2.1069220   -5.5061763  
C   -6.9115373   -1.6416148   -4.2551934  
C   -8.0396827   -0.7461946   -4.3569020  
C   -8.4290182   -0.7278703   -5.7798821  
N   -7.5541766   -1.5728993   -6.4228971  
C   -9.4561227    0.0000780   -6.2866885  
C  -10.2296204    0.8204267   -5.3694845  
O  -11.1736454    1.5119372   -5.7285556  
C   -9.8348092    0.8164664   -3.8582222  
O  -10.4785523    1.5034313   -3.0765992  
C   -8.7081089   -0.0094864   -3.4313725  
H   -6.3677444   -1.8964133   -3.3630160  
H   -9.7252185   -0.0007417   -7.3338256  
H   -5.8996556   -2.7948586   -5.8355590  
H   -7.5641719   -1.7726479   -7.4062826  
C    2.4951002    2.0940188    2.9809380  
C    1.9440701    1.6314916    1.8291961  
C    0.8759964    0.7350050    2.2038498  
C    0.8497377    0.7130254    3.6788474  
N    1.8560616    1.5571714    4.0882609  
C   -0.0205033   -0.0168748    4.4215661  
C   -0.9962600   -0.8356168    3.7214979  
O   -1.8224391   -1.5286685    4.3006425  
C   -0.9864710   -0.8277881    2.1595606  
O   -1.8030528   -1.5133726    1.5592035  
C    0.0000000    0.0000000    1.4700000  
H    2.2509283    1.8888011    0.8310761  
H   -0.0229599   -0.0187323    5.5027230  
H    3.3143982    2.7817323    3.1139444  
H    2.0889452    1.7545833    5.0442112  
