58

C   -1.5986648    4.3190244    2.1320483  
C   -2.2259634    3.4990644    1.2498712  
C   -3.6357678    3.5491878    1.5577271  
C   -3.7794213    4.4722028    2.6997415  
N   -2.5081146    4.9040644    3.0000167  
C   -4.9603388    4.7884940    3.2888924  
C   -6.1706165    4.1789964    2.7632720  
O   -7.2824315    4.3999864    3.2251493  
C   -6.0419862    3.1982301    1.5544054  
O   -7.0539756    2.6787760    1.1035130  
C   -4.7144546    2.9357727    1.0042885  
H   -1.7548304    2.9245258    0.4723416  
H   -5.0438222    5.4680772    4.1256160  
H   -0.5484813    4.5449610    2.2212540  
H   -2.2768287    5.5469477    3.7350369  
C   -4.6051146    2.0113809   -0.1334481  
C   -3.4864971    1.6298266   -0.7927589  
C   -3.9518793    0.7119511   -1.8210700  
C   -5.4173874    0.6533631   -1.6328192  
N   -5.8061458    1.4130855   -0.6450553  
C   -6.2597396   -0.1589834   -2.4668584  
C   -5.6651267   -0.8797261   -3.4447642  
O   -6.3285773   -1.6802771   -4.2962291  
C   -4.1885399   -0.8414365   -3.6601389  
O   -3.7155091   -1.5233211   -4.5692573  
C   -3.3460097   -0.0004262   -2.7913647  
H   -2.4709777    1.9337813   -0.6045897  
H   -7.3277598   -0.1829238   -2.3066431  
H   -5.6384854   -2.0553379   -4.8726449  
C    0.0000000    0.0000000    0.0000000  
C    1.0662919   -0.0000103   -0.8334272  
C    0.4961868    0.0000066   -2.1718889  
C   -0.9663860   -0.0000849   -1.9540248  
N   -1.2632775   -0.0000084   -0.6828659  
C   -1.8985364   -0.0000515   -3.0477258  
C   -1.3925778    0.0004567   -4.3020543  
O   -2.1456385    0.0005412   -5.4151314  
C    0.0786229    0.0009326   -4.5544999  
O    0.4683756    0.0012594   -5.7221104  
C    1.0143162    0.0008443   -3.4159034  
H    2.1107195    0.0000631   -0.5721869  
H   -1.5042277    0.0009692   -6.1484420  
H    2.0724151    0.0013151   -3.6409746  
C    0.0000000    0.0000000    1.4700000  
C    1.0662921    0.0000102    2.3034270  
C    0.4961870   -0.0000064    3.6418889  
C   -0.9663858    0.0000850    3.4240247  
N   -1.2632773    0.0000084    2.1528658  
C   -1.8985362    0.0000517    4.5177257  
C   -1.3925775   -0.0004564    5.7720543  
O   -2.1456383   -0.0005410    6.8851312  
C    0.0786232   -0.0009323    6.0245000  
O    0.4683759   -0.0012588    7.1921102  
C    1.0143166   -0.0008442    4.8859032  
H    2.1107198   -0.0000632    2.0421868  
H   -2.9622183    0.0003270    4.3293377  
H   -1.5042274   -0.0009692    7.6184419  
H    2.0724152   -0.0013148    5.1109744  
