58

C    7.0267926   -0.7325528   -5.6679095  
C    8.3675245   -0.5170673   -5.6767811  
C    8.6382499    0.4072262   -6.7525249  
C    7.3359986    0.7147897   -7.3740830  
N    6.4003169   -0.0080173   -6.6705639  
C    7.1657476    1.5529926   -8.4277130  
C    8.3437427    2.1949024   -8.9870120  
O    8.2946367    2.9661667   -9.9362439  
C    9.7330824    1.8835109   -8.3446920  
O   10.7320000    2.4178111   -8.8072347  
C    9.7898754    0.9630410   -7.2118363  
H    9.0850006   -0.9557023   -5.0063775  
H    6.2016364    1.7650784   -8.8686428  
H   10.7556432    0.7528795   -6.7726902  
H    6.4437152   -1.3598625   -5.0133918  
C    2.8699641   -0.0020527   -4.0185824  
C    4.1345929   -0.0036612   -4.5133415  
C    4.0234321   -0.0055085   -5.9529508  
C    2.5800295   -0.0048103   -6.2585307  
N    1.9354846   -0.0030990   -5.0430271  
C    2.0594335   -0.0056967   -7.5117997  
C    2.9823235   -0.0076817   -8.6346561  
O    2.6119087   -0.0086656   -9.8013149  
C    4.5151780   -0.0087033   -8.3343880  
O    5.3018074   -0.0106812   -9.2716564  
C    4.9555130   -0.0073181   -6.9415653  
H    5.0417776   -0.0037471   -3.9357352  
H    0.9973748   -0.0050302   -7.7141396  
H    0.9396388   -0.0007141   -4.9192032  
C    3.2573673   -0.0002921   -1.5109381  
C    2.5379469   -0.0001710   -0.3591962  
C    1.1435042    0.0000332   -0.7338498  
C    1.1092607   -0.0000083   -2.2088474  
N    2.4227562    0.0001908   -2.6182610  
C   -0.0265532   -0.0002523   -2.9515663  
C   -1.3003033   -0.0002639   -2.2514979  
O   -2.3786784   -0.0004132   -2.8306425  
C   -1.2877726    0.0000312   -0.6895609  
O   -2.3539956    0.0003308   -0.0892035  
C    0.0000000    0.0000000    0.0000000  
H    2.9384091   -0.0000368    0.6389240  
H   -0.0296292   -0.0004086   -4.0327231  
H    4.3270395   -0.0004765   -1.6439444  
C    2.4951002    2.0940188    2.9809380  
C    1.9440701    1.6314916    1.8291961  
C    0.8759964    0.7350050    2.2038498  
C    0.8497377    0.7130254    3.6788474  
N    1.8560616    1.5571714    4.0882609  
C   -0.0205033   -0.0168748    4.4215661  
C   -0.9962600   -0.8356168    3.7214979  
O   -1.8224391   -1.5286685    4.3006425  
C   -0.9864710   -0.8277881    2.1595606  
O   -1.8030528   -1.5133726    1.5592035  
C    0.0000000    0.0000000    1.4700000  
H    2.2509283    1.8888011    0.8310761  
H   -0.0229599   -0.0187323    5.5027230  
H    3.3143982    2.7817323    3.1139444  
H    2.0889452    1.7545833    5.0442112  
