62

C    3.3041279    0.0001173   -1.5420428  
C    2.5845377   -0.0004782   -0.3695853  
C    1.2040010   -0.0000010   -0.7283587  
C    1.1422381    0.0006033   -2.1454372  
N    2.4348648    0.0026105   -2.6077464  
C   -0.0655169    0.0008790   -2.8497923  
C   -1.2321763    0.0002319   -2.1101406  
O   -2.4392806    0.0001140   -2.7472532  
C   -1.1911206   -0.0000009   -0.6955270  
O   -2.4371521   -0.0002323   -0.1032874  
C    0.0000000    0.0000000    0.0000000  
H    3.0031537   -0.0000658    0.6222585  
H   -0.1193540    0.0014836   -3.9297475  
H   -3.1132985   -0.0000652   -2.0551794  
H   -2.3200278   -0.0004074    0.8516403  
H    4.3686629    0.0004068   -1.7024288  
C    5.6587039   -2.1482573   -4.5997623  
C    5.5107214   -1.7555988   -5.8864245  
C    4.3729234   -0.8490966   -5.8734390  
C    3.9446812   -0.8087295   -4.4586731  
N    4.6947126   -1.5682541   -3.7072977  
C    2.8310674   -0.0116226   -4.0232751  
C    2.1753258    0.7125517   -4.9586407  
O    1.1191542    1.5001776   -4.6937098  
C    2.5836187    0.6930786   -6.3942860  
O    1.9410889    1.3768916   -7.1910144  
C    3.7292197   -0.1325936   -6.8159356  
H    6.1008504   -2.0452555   -6.7390216  
H    0.8721725    1.8818754   -5.5553703  
H    3.9932675   -0.1192719   -7.8649025  
C    6.6614042   -3.0681555   -4.0436333  
C    7.6815871   -3.7489963   -4.6666498  
C    8.3552766   -4.5020781   -3.6598677  
C    7.6957565   -4.2388721   -2.4319911  
N    6.6733366   -3.3629514   -2.7003902  
C    8.0927265   -4.8151870   -1.2215924  
C    9.1750089   -5.6730671   -1.2513204  
O    9.6044540   -6.2635232   -0.0980845  
C    9.8462949   -5.9479059   -2.4664976  
O   10.9051070   -6.8219574   -2.3312465  
C    9.4553900   -5.3795028   -3.6609169  
H    7.9125605   -3.7070608   -5.7173100  
H    6.0245833   -3.0033177   -2.0238082  
H    7.5943619   -4.6185522   -0.2823537  
H   10.3602370   -6.8150191   -0.3387287  
H   11.3031878   -6.9537857   -3.1971320  
H    9.9891386   -5.6088136   -4.5757983  
C    0.0000000    0.0000000    1.4700000  
C    1.0541688    0.0001722    2.3260392  
C    0.5103138    0.0000454    3.6635956  
C   -0.9576371   -0.0002459    3.5155732  
N   -1.2018458    0.0001392    2.1615969  
C   -1.8348311   -0.0008317    4.5510609  
C   -1.2972847   -0.0009736    5.9014604  
O   -2.0050672   -0.0014265    6.9001319  
C    0.2542623   -0.0004184    6.0817573  
O    0.7184670   -0.0002256    7.2139121  
C    1.0974552   -0.0000873    4.8889129  
H    2.0940752    0.0005483    2.0517982  
H   -2.9081052   -0.0011668    4.4207061  
H    2.1707277    0.0000911    5.0223670  
H   -2.1128194   -0.0014912    1.7406791  
