62

C    3.3003548    0.0005277   -1.4738984  
C    2.5232816    0.0003501   -2.6090747  
C    1.1623203   -0.0001316   -2.1820102  
C    1.1711885    0.0000585   -0.7636140  
N    2.4852303   -0.0014920   -0.3662358  
C    0.0000000    0.0000000    0.0000000  
C   -1.2020381    0.0000521   -0.6806484  
O   -2.3759250    0.0003494    0.0157746  
C   -1.2314657   -0.0005108   -2.0955510  
O   -2.5054384   -0.0008032   -2.6250185  
C   -0.0764515   -0.0007267   -2.8495195  
H    2.8036264    0.0088182    0.5858665  
H   -3.0835635    0.0000350   -0.6418819  
H   -2.4360042   -0.0011520   -3.5845924  
H   -0.1304093   -0.0013415   -3.9319085  
H    4.3715550    0.0004898   -1.3667136  
C    4.0803118   -0.6868208   -4.4912472  
C    3.0267439   -0.0008946   -3.9901700  
C    2.4918845    0.7430929   -5.1201735  
C    3.3675127    0.3784074   -6.2545739  
N    4.3004233   -0.4595674   -5.8919908  
C    3.1668460    0.9132815   -7.5731825  
C    2.1379534    1.7730803   -7.7505530  
O    1.8345374    2.3480335   -8.9267369  
C    1.2364333    2.1603526   -6.6256342  
O    0.3199405    2.9480971   -6.8595587  
C    1.4629718    1.5981239   -5.2823162  
H    1.0577289    2.9047337   -8.7375126  
H    0.7877317    1.9036438   -4.4943194  
H    4.7441133   -1.3582263   -3.9701370  
C    4.9829831   -2.9671212   -8.6699972  
C    5.6645600   -2.5336638   -9.7835654  
C    5.3928439   -1.1402322   -9.9218373  
C    4.5325422   -0.7760240   -8.8545232  
N    4.3020368   -1.9091829   -8.1146342  
C    4.0586866    0.5272107   -8.6761197  
C    4.4608656    1.4802042   -9.5916700  
O    4.0280336    2.7684076   -9.4643870  
C    5.3185673    1.1361910  -10.6635008  
O    5.6281056    2.1965451  -11.4900474  
C    5.7862082   -0.1493402  -10.8402722  
H    6.2807943   -3.1466495  -10.4187795  
H    3.7354600   -1.9567297   -7.2871618  
H    4.4204179    3.2618750  -10.1963638  
H    6.2106210    1.8790815  -12.1868239  
H    6.4419133   -0.3829387  -11.6709105  
H    4.9275544   -3.9475352   -8.2287770  
C    0.8400945    0.7047457    2.2710304  
C    0.0000000    0.0000000    1.4700000  
C   -0.8844236   -0.7423113    2.3369512  
C   -0.4878984   -0.4098547    3.7186280  
N    0.5629682    0.4714286    3.6095011  
C   -1.0836927   -0.9095027    4.8308716  
C   -2.1891196   -1.8367527    4.6554461  
O   -2.7906899   -2.3413415    5.5944904  
C   -2.6257283   -2.2031529    3.2011665  
O   -3.5549479   -2.9829990    3.0410059  
C   -1.9068976   -1.5999348    2.0816745  
H   -0.7774656   -0.6525820    5.8354244  
H   -2.2155208   -1.8586617    1.0779135  
H    1.6384792    1.3747609    1.9961646  
H    1.0518368    0.8833920    4.3830260  
