60

C    0.0000000    0.0000000    0.0000000  
C    1.0521659   -0.0011911   -0.8862347  
C    0.4917207   -0.0011958   -2.1979135  
C   -0.9187438    0.0003160   -2.0478679  
N   -1.1833174   -0.0009396   -0.7007910  
C   -1.7951717    0.0010376   -3.1372084  
C   -1.2375856    0.0005245   -4.4010421  
O   -2.0474240    0.0015388   -5.4997572  
C    0.1673561   -0.0013562   -4.5711967  
O    0.5673494   -0.0020686   -5.8915555  
C    1.0325754   -0.0023417   -3.4969895  
H    2.0953050   -0.0030670   -0.6200570  
H   -2.0989780    0.0102397   -0.2891817  
H   -1.4634914    0.0006523   -6.2693587  
H    1.5290679   -0.0033161   -5.9180051  
H    2.1042126   -0.0039627   -3.6584467  
C   -4.0038668    0.6889682   -2.0943569  
C   -3.2578668    0.0024080   -2.9908493  
C   -4.2205571   -0.7421157   -3.7879762  
C   -5.5362275   -0.3770148   -3.2202635  
N   -5.4155461    0.4616460   -2.2272510  
C   -6.7642912   -0.9122290   -3.7403508  
C   -6.6817790   -1.7727502   -4.7805573  
O   -7.7464365   -2.3480907   -5.3649619  
C   -5.3688947   -2.1604567   -5.3756868  
O   -5.3689699   -2.9488569   -6.3210161  
C   -4.1232846   -1.5978670   -4.8244406  
H   -7.3710332   -2.9052862   -6.0704815  
H   -3.1928074   -1.9037204   -5.2836746  
H   -3.6630470    1.3609027   -1.3227875  
C   -8.3884017    0.7503236   -2.7222411  
C   -9.6504392    0.7805667   -2.2218194  
C  -10.1770213   -0.5598091   -2.3264161  
C   -9.1106581   -1.3793043   -2.9331185  
N   -8.0534832   -0.5257270   -3.1491647  
C   -9.2172545   -2.7059633   -3.1982935  
C  -10.4656384   -3.3710562   -2.8640409  
O  -10.6596591   -4.5629866   -3.0639402  
C  -11.6085989   -2.5225954   -2.2209558  
O  -12.6642635   -3.0715623   -1.9355284  
C  -11.3753269   -1.1003571   -1.9828911  
H  -10.1549828    1.6434122   -1.8248972  
H   -8.4229049   -3.2886753   -3.6436753  
H  -12.1716705   -0.5199870   -1.5371000  
H   -7.6749080    1.5529212   -2.8152625  
C    1.0965515   -0.0001358    2.2710304  
C    0.0000000    0.0000000    1.4700000  
C   -1.1546562   -0.0001469    2.3369512  
C   -0.6372014   -0.0003519    3.7186280  
N    0.7342871   -0.0007337    3.6095011  
C   -1.4147739   -0.0001353    4.8308716  
C   -2.8576048    0.0001048    4.6554461  
O   -3.6427778    0.0002493    5.5944904  
C   -3.4275839    0.0000726    3.2011665  
O   -4.6406829   -0.0000333    3.0410059  
C   -2.4891866    0.0001091    2.0816745  
H   -1.0150448   -0.0001615    5.8354244  
H   -2.8919121    0.0002919    1.0779135  
H    2.1388271   -0.0000662    1.9961646  
H    1.3735872    0.0006099    4.3830260  
