58

C    1.4751621   -0.0000335   -7.8706057  
C    0.3461852   -0.0000491   -7.1159628  
C   -0.7713437   -0.0000596   -8.0302740  
C   -0.1967659   -0.0000780   -9.3891894  
N    1.1689842    0.0003380   -9.2230090  
C   -0.9273174   -0.0004884  -10.5328672  
C   -2.3762050   -0.0007162  -10.4177149  
O   -3.1215673   -0.0010258  -11.3886612  
C   -3.0062869   -0.0004492   -8.9884484  
O   -4.2250061   -0.0003309   -8.8789751  
C   -2.1153521   -0.0002888   -7.8308271  
H    0.3013722    0.0001295   -6.0414372  
H   -0.4860769   -0.0006242  -11.5198915  
H   -2.5595534   -0.0003096   -6.8447190  
H    1.8399611   -0.0011266   -9.9692231  
C    3.2973507   -0.0000930   -3.8752373  
C    4.6090968    0.0000005   -4.2265165  
C    4.6584749   -0.0001365   -5.6695683  
C    3.2579284   -0.0002896   -6.1335299  
N    2.4824025   -0.0006539   -4.9971105  
C    2.8797120   -0.0000495   -7.4368546  
C    3.9215751    0.0001629   -8.4502930  
O    3.6829943    0.0003252   -9.6508680  
C    5.4116105    0.0000756   -7.9816786  
O    6.2974484   -0.0000538   -8.8258060  
C    5.6945664    0.0000910   -6.5485741  
H    5.4465358   -0.0000337   -3.5517507  
H    6.7288538    0.0002356   -6.2323876  
H    1.4789637    0.0007241   -4.9846260  
C    3.3321175    0.0004715   -1.3379331  
C    2.6974186    0.0000117   -2.5332308  
C    1.2800441   -0.0002117   -2.2052838  
C    1.2395036    0.0000644   -0.7271292  
N    2.4394065    0.0005460   -0.2131033  
C    0.0000000    0.0000000    0.0000000  
C   -1.1468701    0.0000635   -0.7169542  
O   -2.3742199    0.0000073   -0.1695491  
C   -1.1388766    0.0001607   -2.2096354  
O   -2.2206227    0.0000905   -2.7970412  
C    0.1454526    0.0001817   -2.9324239  
H   -2.9844344    0.0001026   -0.9290168  
H    0.1083579    0.0003683   -4.0135594  
H    4.3940038    0.0007619   -1.1498630  
C    0.8175213    0.6860729    2.3021913  
C    0.0000000    0.0000000    1.4700000  
C   -0.8887526   -0.7456559    2.3478473  
C   -0.4549825   -0.3816753    3.7138435  
N    0.5448156    0.4573574    3.6934124  
C   -1.0945674   -0.9182058    4.8835240  
C   -2.1210866   -1.7789155    4.6970523  
O   -2.8083856   -2.3554314    5.6976972  
C   -2.5824069   -2.1655116    3.3310774  
O   -3.5227682   -2.9541547    3.2362962  
C   -1.9100805   -1.6015804    2.1470656  
H   -0.7567140   -0.6349833    5.8697035  
H   -3.4728268   -2.9124471    5.2533954  
H   -2.2742832   -1.9066565    1.1752040  
H    1.6189533    1.3585343    2.0405121  
