58

C    7.5525365   -0.9027184   -4.8587946  
C    8.8114291   -0.5431998   -5.2193653  
C    8.7874518    0.8783693   -5.4711626  
C    7.4014649    1.3207514   -5.2259443  
N    6.7034526    0.1935463   -4.8584154  
C    6.9684720    2.6003630   -5.3556147  
C    7.9317458    3.6091881   -5.7641630  
O    7.6397331    4.7890455   -5.9089643  
C    9.4049867    3.1631084   -6.0294508  
O   10.2248094    4.0035265   -6.3741921  
C    9.7518190    1.7547520   -5.8559813  
H    9.6599571   -1.1990352   -5.2999464  
H    5.9473732    2.9038375   -5.1707633  
H   10.7740407    1.4541049   -6.0414449  
H    7.1735905   -1.8763308   -4.5935241  
C    4.6171595   -2.0114327   -1.7322444  
C    3.3328193   -1.6298289   -1.9231036  
C    3.3780282   -0.7112571   -3.0503489  
C    4.8069992   -0.6523616   -3.4260571  
N    5.5382134   -1.4125184   -2.6569815  
C    5.2745454    0.1606803   -4.5148406  
C    4.3562407    0.8817945   -5.1975154  
O    4.6514314    1.6829997   -6.2352884  
C    2.9068165    0.8432089   -4.8427747  
O    2.1270270    1.5254609   -5.5073660  
C    2.4521483    0.0014840   -3.7217481  
H    2.4622564   -1.9341723   -1.3676121  
H    3.7953895    2.0581840   -6.5102098  
H    5.0049135   -2.6900162   -0.9891798  
C    0.0000000    0.0000000    0.0000000  
C    1.0662923   -0.0000101   -0.8334270  
C    0.4961873    0.0000065   -2.1718887  
C   -0.9663854   -0.0000848   -1.9540250  
N   -1.2632773   -0.0000083   -0.6828660  
C   -1.8985359   -0.0000514   -3.0477261  
C   -1.3925770    0.0004566   -4.3020547  
O   -2.1456378    0.0005414   -5.4151314  
C    0.0786240    0.0009326   -4.5545000  
O    0.4683767    0.0012591   -5.7221100  
C    1.0143171    0.0008444   -3.4159031  
H    2.1107200    0.0000633   -0.5721865  
H   -2.9622181   -0.0003268   -2.8593381  
H   -1.5042265    0.0009697   -6.1484419  
C    0.0000000    0.0000000    1.4700000  
C    1.0541688    0.0001722    2.3260392  
C    0.5103138    0.0000454    3.6635956  
C   -0.9576371   -0.0002459    3.5155732  
N   -1.2018458    0.0001392    2.1615969  
C   -1.8348311   -0.0008317    4.5510609  
C   -1.2972847   -0.0009736    5.9014604  
O   -2.0050672   -0.0014265    6.9001319  
C    0.2542623   -0.0004184    6.0817573  
O    0.7184670   -0.0002256    7.2139121  
C    1.0974552   -0.0000873    4.8889129  
H    2.0940752    0.0005483    2.0517982  
H   -2.9081052   -0.0011668    4.4207061  
H    2.1707277    0.0000911    5.0223670  
H   -2.1128194   -0.0014912    1.7406791  
