62

C   -3.3012638   -0.1375356   -1.5420425  
C   -2.5823209   -0.1070128   -0.3695849  
C   -1.2029591   -0.0500735   -0.7283585  
C   -1.1412248   -0.0481087   -2.1454371  
N   -2.4326489   -0.1038742   -2.6077460  
C    0.0654976    0.0018458   -2.8497917  
C    1.2311205    0.0510136   -2.1101399  
O    2.4371751    0.1013346   -2.7472521  
C    1.1900899    0.0495392   -0.6955264  
O    2.4350340    0.1015925   -0.1032865  
C    0.0000000    0.0000000    0.0000000  
H   -3.0005579   -0.1248346    0.6222591  
H   -2.7034182   -0.1054160   -3.5745256  
H    0.1193131    0.0034808   -3.9297471  
H    3.1106022    0.1295462   -2.0551789  
H    2.3180042    0.0968962    0.8516406  
C   -5.7026298   -0.2543985   -0.7673027  
C   -6.9530792   -0.3181688   -1.3371935  
C   -6.7674264   -0.3024582   -2.7513668  
C   -5.3706981   -0.2278830   -2.9869805  
N   -4.7535847   -0.1983852   -1.7610452  
C   -4.8212945   -0.1938531   -4.2721991  
C   -5.6978327   -0.2361786   -5.3390014  
O   -5.2149672   -0.2060579   -6.6153047  
C   -7.0946858   -0.3103070   -5.1242398  
O   -7.8349239   -0.3447089   -6.2879447  
C   -7.6374018   -0.3436412   -3.8566141  
H   -7.8845317   -0.3685707   -0.7997463  
H   -3.7576882   -0.1368928   -4.4584756  
H   -5.9837586   -0.2441660   -7.1990620  
H   -8.7668589   -0.3945377   -6.0542395  
H   -5.4127064   -0.2429943    0.2694105  
C   -9.8541668    0.2231512   -2.7594274  
C   -9.0942089   -0.4205395   -3.6757812  
C  -10.0345938   -1.2133689   -4.4526959  
C  -11.3539650   -0.9202351   -3.8527653  
N  -11.2545138   -0.0787257   -2.8598099  
C  -12.5638268   -1.5188545   -4.3456912  
C  -12.4603884   -2.3712561   -5.3907017  
O  -13.5065142   -3.0010855   -5.9519286  
C  -11.1432479   -2.6870460   -6.0180586  
O  -11.1238388   -3.4720558   -6.9660059  
C   -9.9165861   -2.0602300   -5.4942961  
H  -13.5143746   -1.2867446   -3.8879865  
H  -13.1188678   -3.5357957   -6.6681464  
H   -8.9823282   -2.3149799   -5.9764735  
H   -9.5313419    0.9104302   -1.9936566  
C    0.8400945    0.7047457    2.2710304  
C    0.0000000    0.0000000    1.4700000  
C   -0.8844236   -0.7423113    2.3369512  
C   -0.4878984   -0.4098547    3.7186280  
N    0.5629682    0.4714286    3.6095011  
C   -1.0836927   -0.9095027    4.8308716  
C   -2.1891196   -1.8367527    4.6554461  
O   -2.7906899   -2.3413415    5.5944904  
C   -2.6257283   -2.2031529    3.2011665  
O   -3.5549479   -2.9829990    3.0410059  
C   -1.9068976   -1.5999348    2.0816745  
H   -0.7774656   -0.6525820    5.8354244  
H   -2.2155208   -1.8586617    1.0779135  
H    1.6384792    1.3747609    1.9961646  
H    1.0518368    0.8833920    4.3830260  
