62

C   -3.3041232    0.0064568   -1.5420398  
C   -2.5845322    0.0056207   -0.3695828  
C   -1.2039993    0.0023964   -0.7283578  
C   -1.1422396    0.0016690   -2.1454364  
N   -2.4348672    0.0022339   -2.6077441  
C    0.0655126   -0.0010103   -2.8497916  
C    1.2321704   -0.0026844   -2.1101410  
O    2.4392731   -0.0049686   -2.7472546  
C    1.1911172   -0.0023693   -0.6955280  
O    2.4371472   -0.0046175   -0.1032889  
C    0.0000000    0.0000000    0.0000000  
H   -3.0031471    0.0060418    0.6222612  
H   -2.7054473    0.0124931   -3.5745231  
H    0.1193475   -0.0017221   -3.9297473  
H    3.1132901   -0.0061302   -2.0551820  
H    2.3200255   -0.0042093    0.8516386  
C   -4.7577163    0.0089541   -1.7610415  
C   -5.7406947    0.0122646   -0.8308149  
C   -6.9792840    0.0135142   -1.5939617  
C   -6.5459610    0.0106506   -3.0077535  
N   -5.2447597    0.0078898   -3.1119529  
C   -7.4885852    0.0108277   -4.0924404  
C   -8.8042911    0.0133446   -3.7789987  
O   -9.7927559    0.0138200   -4.6894812  
C   -9.2730961    0.0158977   -2.3618266  
O  -10.4857399    0.0182436   -2.1503751  
C   -8.2866053    0.0157054   -1.2669479  
H   -5.6379666    0.0135933    0.2408761  
H   -7.1438342    0.0089030   -5.1161846  
H  -10.6134385    0.0157711   -4.1644777  
C   -8.8032425    0.0181266    0.1092715  
C   -8.1296684    0.0197966    1.3087559  
C   -9.1153542    0.0224846    2.3397829  
C  -10.3831054    0.0220407    1.7035963  
N  -10.1573634    0.0213242    0.3494703  
C  -11.5864739    0.0239310    2.4154173  
C  -11.5086382    0.0260060    3.7945885  
O  -12.6529604    0.0275564    4.5385892  
C  -10.2531239    0.0268567    4.4476602  
O  -10.3426920    0.0293710    5.8243638  
C   -9.0655669    0.0252660    3.7460681  
H   -7.0595258    0.0202612    1.4261736  
H  -10.8699635    0.0103208   -0.3576800  
H  -12.5559229    0.0237490    1.9364892  
H  -12.3767584    0.0291664    5.4643187  
H   -9.4516211    0.0297654    6.1871255  
H   -8.1190376    0.0261535    4.2738555  
C    0.0000000    0.0000000    1.4700000  
C    1.0541688    0.0001722    2.3260392  
C    0.5103138    0.0000454    3.6635956  
C   -0.9576371   -0.0002459    3.5155732  
N   -1.2018458    0.0001392    2.1615969  
C   -1.8348311   -0.0008317    4.5510609  
C   -1.2972847   -0.0009736    5.9014604  
O   -2.0050672   -0.0014265    6.9001319  
C    0.2542623   -0.0004184    6.0817573  
O    0.7184670   -0.0002256    7.2139121  
C    1.0974552   -0.0000873    4.8889129  
H    2.0940752    0.0005483    2.0517982  
H   -2.9081052   -0.0011668    4.4207061  
H    2.1707277    0.0000911    5.0223670  
H   -2.1128194   -0.0014912    1.7406791  
