60

C    1.1188650    0.0008222   -0.8003808  
C    0.0000000    0.0000000    0.0000000  
C   -1.1323856    0.0008897   -0.8673534  
C   -0.6382649    0.0019678   -2.1969285  
N    0.7324026    0.0038480   -2.1202240  
C   -1.4770900    0.0027314   -3.3154818  
C   -2.8395465    0.0020940   -3.0876867  
O   -3.7039184    0.0024421   -4.1440361  
C   -3.3517859    0.0013925   -1.7684342  
O   -4.7300486    0.0012362   -1.7073139  
C   -2.5248539    0.0009122   -0.6644828  
H   -1.1067552    0.0036986   -4.3313817  
H   -4.5940017    0.0021823   -3.7685147  
H   -4.9934592    0.0007256   -0.7819932  
H   -2.9462578    0.0005601    0.3339647  
H    2.1619901    0.0009355   -0.5342063  
C    4.5841865   -2.0202110   -3.0853082  
C    3.4713878   -1.6303065   -2.4210555  
C    2.7894971   -0.7233874   -3.3315622  
C    3.6536755   -0.6796189   -4.5306716  
N    4.7071677   -1.4378856   -4.3921933  
C    3.3222621    0.1187973   -5.6786193  
C    2.1792868    0.8403743   -5.6309815  
O    1.7472617    1.6288353   -6.6298431  
C    1.2859871    0.8168684   -4.4353128  
O    0.2614373    1.4986633   -4.4612745  
C    1.6478449   -0.0100100   -3.2702997  
H    3.1525877   -1.9221623   -1.4350213  
H    0.9116310    2.0080726   -6.3026525  
H    5.3560074   -2.6944334   -2.7496145  
C    4.8555495   -0.9316064   -7.3832266  
C    4.2068241    0.1368585   -6.8525548  
C    4.5531877    1.2830078   -7.6595303  
C    5.4633821    0.7911640   -8.7113982  
N    5.6063925   -0.5588078   -8.4877605  
C    6.0143561    1.5694428   -9.6770143  
C    5.6893900    2.9861010   -9.6804135  
O    6.1350442    3.7697393  -10.5084255  
C    4.7277129    3.5287474   -8.5756428  
O    4.4471084    4.7197411   -8.5682028  
C    4.1966141    2.5921808   -7.5884101  
H    6.6795922    1.1887028  -10.4395153  
H    3.5312763    2.9758489   -6.8269318  
H    4.8484547   -1.9599536   -7.0602070  
H    6.1679345   -1.1782248   -9.0427748  
C    2.5128556    2.1077716    2.9199648  
C    1.9592212    1.6432552    4.0696553  
C    0.8915788    0.7479214    3.6910360  
C    0.8684491    0.7287414    2.2159470  
N    1.8754542    1.5738793    1.8102719  
C    0.0000000    0.0000000    1.4700000  
C   -0.9772830   -0.8200135    2.1664417  
O   -1.8021297   -1.5120829    1.5842315  
C   -0.9711318   -0.8147624    3.7284083  
O   -1.7894187   -1.5009653    4.3257297  
C    0.0140216    0.0115358    4.4216297  
H    2.2638494    1.8988021    5.0689105  
H    0.0117648    0.0094386    5.5031631  
H    3.3327358    2.7953732    2.7900019  
H    2.1123206    1.7707734    0.8551938  
