58

C    5.7979798   -0.7270346   -0.5187772  
C    6.3681037   -0.5110711    0.6946452  
C    7.4569565    0.4147333    0.4894113  
C    7.4745635    0.7226627   -0.9533844  
N    6.4444274   -0.0013963   -1.5078646  
C    8.3584923    1.5621942   -1.5496733  
C    9.3594536    2.2052501   -0.7147522  
O   10.1995148    2.9777475   -1.1572954  
C    9.3595326    1.8934960    0.8158079  
O   10.1976912    2.4287525    1.5287239  
C    8.3562046    0.9715537    1.3423127  
H    6.0610526   -0.9503397    1.6270483  
H    8.3540872    1.7745255   -2.6097704  
H    8.3629221    0.7611496    2.4031660  
H    4.9600958   -1.3554091   -0.7737002  
C    2.5562217   -0.0001551   -3.6003001  
C    3.5357956   -0.0006715   -2.6598164  
C    4.7960225   -0.0006602   -3.3645597  
C    4.4679970   -0.0000615   -4.8030274  
N    3.0942343   -0.0001763   -4.8782995  
C    5.3873325    0.0005227   -5.8012894  
C    6.7937415    0.0003386   -5.4344808  
O    7.6974454    0.0007633   -6.2600829  
C    7.1641097   -0.0005455   -3.9170382  
O    8.3448916   -0.0010145   -3.5960807  
C    6.0844250   -0.0008427   -2.9331008  
H    3.3919673   -0.0012030   -1.5940179  
H    5.1255396    0.0010863   -6.8502770  
H    2.5641260    0.0016989   -5.7303728  
C    0.0000000    0.0000000    0.0000000  
C    1.0541688   -0.0001722   -0.8560390  
C    0.5103141   -0.0000453   -2.1935955  
C   -0.9576367    0.0002460   -2.0455731  
N   -1.2018459   -0.0001392   -0.6915969  
C   -1.8348307    0.0008318   -3.0810611  
C   -1.2972843    0.0009738   -4.4314606  
O   -2.0050665    0.0014267   -5.4301321  
C    0.2542628    0.0004186   -4.6117570  
O    0.7184676    0.0002258   -5.7439117  
C    1.0974555    0.0000874   -3.4189127  
H    2.0940752   -0.0005483   -0.5817978  
H   -2.9081051    0.0011670   -2.9507061  
H   -2.1128194    0.0014912   -0.2706792  
C    3.2573670    0.0002920    2.9809380  
C    2.5379467    0.0001709    1.8291961  
C    1.1435042   -0.0000331    2.2038498  
C    1.1092607    0.0000083    3.6788474  
N    2.4227561   -0.0001909    4.0882609  
C   -0.0265533    0.0002524    4.4215661  
C   -1.3003036    0.0002640    3.7214979  
O   -2.3786784    0.0004133    4.3006425  
C   -1.2877726   -0.0000311    2.1595606  
O   -2.3539958   -0.0003306    1.5592035  
C    0.0000000    0.0000000    1.4700000  
H    2.9384090    0.0000368    0.8310761  
H   -0.0296291    0.0004086    5.5027230  
H    4.3270393    0.0004765    3.1139444  
H    2.7280493    0.0013407    5.0442112  
