60

C    0.9360397   -0.7247808   -5.2319384  
C    0.6354724   -0.5080892   -6.5383762  
C   -0.4721188    0.4177752   -6.5675797  
C   -0.7944792    0.7249464   -5.1609813  
N    0.0950450    0.0004357   -4.4015596  
C   -1.7844976    1.5643000   -4.7646820  
C   -2.5861939    2.2079509   -5.7920731  
O   -3.5008219    2.9803446   -5.5367992  
C   -2.2625565    1.8970038   -7.2881930  
O   -2.9309436    2.4327661   -8.1619652  
C   -1.1706040    0.9751844   -7.5910794  
H    1.1327709   -0.9469135   -7.3849815  
H   -2.0044040    1.7760715   -3.7275202  
H   -0.9527972    0.7653406   -8.6294671  
H    1.7010237   -1.3534193   -4.8059069  
C    3.3321174    0.0004722   -1.3379336  
C    2.6974183    0.0000122   -2.5332313  
C    1.2800441   -0.0002113   -2.2052840  
C    1.2395036    0.0000646   -0.7271298  
N    2.4394063    0.0005463   -0.2131037  
C    0.0000000    0.0000000    0.0000000  
C   -1.1468699    0.0000637   -0.7169543  
O   -2.3742201    0.0000076   -0.1695489  
C   -1.1388769    0.0001611   -2.2096357  
O   -2.2206234    0.0000908   -2.7970412  
C    0.1454523    0.0001820   -2.9324241  
H    3.1367987   -0.0000643   -3.5160945  
H   -2.9844345    0.0001025   -0.9290168  
C    6.8354435    0.0008793   -4.0255231  
C    5.5758878    0.0005999   -3.5179854  
C    5.7016163    0.0007911   -2.0795738  
C    7.1480386    0.0012368   -1.7886227  
N    7.7802458    0.0008706   -3.0105902  
C    7.6812952    0.0019206   -0.5406880  
C    6.7698194    0.0020125    0.5914546  
O    7.1520256    0.0025453    1.7543040  
C    5.2340030    0.0012942    0.3067216  
O    4.4569020    0.0010581    1.2519064  
C    4.7795905    0.0008679   -1.0815729  
H    4.6629021    0.0001126   -4.0863779  
H    8.7453481    0.0023685   -0.3491108  
H    7.1529574    0.0008738   -5.0556076  
H    8.7747886    0.0025952   -3.1444921  
C    0.8676693    0.7151171    2.2619005  
C    0.5875920    0.4624972    3.5848544  
C   -0.5048400   -0.4542819    3.6114698  
C   -0.8517165   -0.7276451    2.2635546  
N    0.0000000    0.0000000    1.4700000  
C   -1.8902865   -1.5946756    1.9108239  
C   -2.5912627   -2.1969500    2.9375057  
O   -3.6148162   -3.0527051    2.6493466  
C   -2.2603868   -1.9365747    4.2886322  
O   -3.0513550   -2.6123276    5.1947621  
C   -1.2361111   -1.0811317    4.6373480  
H    1.1060808    0.8876438    4.4271209  
H   -2.1597133   -1.8070987    0.8854031  
H   -3.9636755   -3.3565188    3.4974381  
H   -2.7621927   -2.3810384    6.0827341  
H   -1.0058879   -0.9010589    5.6809233  
H    1.6167816    1.3499334    1.8205408  
