58

C    7.6222554   -1.1532201   -4.5651377  
C    8.8810525   -0.7934224   -4.9257628  
C    8.8564128    0.6278810   -5.1789923  
C    7.4701420    1.0698031   -4.9345550  
N    6.7726139   -0.0573878   -4.5660651  
C    7.0365290    2.3490633   -5.0656148  
C    7.9993888    3.3579684   -5.4749409  
O    7.7068119    4.5375306   -5.6209971  
C    9.4729217    2.9123730   -5.7394230  
O   10.2924006    3.7528622   -6.0848086  
C    9.8204283    1.5043680   -5.5644560  
H    9.7299338   -1.4489061   -5.0054796  
H    6.0152314    2.6522035   -4.8813162  
H   10.8428478    1.2040551   -5.7493693  
H    7.2437404   -2.1267584   -4.2989821  
C    4.2926942   -2.1403413   -1.5040812  
C    5.3604709   -1.7320208   -2.2284477  
C    4.8134481   -0.8208703   -3.2219620  
C    3.3612075   -0.7952320   -2.9446112  
N    3.0500070   -1.5667026   -1.9386405  
C    2.4521483    0.0014840   -3.7217481  
C    2.9703735    0.7393569   -4.7298757  
O    2.2390463    1.5283420   -5.5352975  
C    4.4316781    0.7349405   -5.0343914  
O    4.8335663    1.4307757   -5.9668722  
C    5.3436401   -0.0906363   -4.2228046  
H    6.3919441   -2.0142020   -2.1038949  
H    2.8845131    1.9211529   -6.1502981  
H    4.2782631   -2.8230632   -0.6694220  
C    0.0000000    0.0000000    0.0000000  
C    1.0662923   -0.0000101   -0.8334270  
C    0.4961873    0.0000065   -2.1718887  
C   -0.9663854   -0.0000848   -1.9540250  
N   -1.2632773   -0.0000083   -0.6828660  
C   -1.8985359   -0.0000514   -3.0477261  
C   -1.3925770    0.0004566   -4.3020547  
O   -2.1456378    0.0005414   -5.4151314  
C    0.0786240    0.0009326   -4.5545000  
O    0.4683767    0.0012591   -5.7221100  
C    1.0143171    0.0008444   -3.4159031  
H    2.1107200    0.0000633   -0.5721865  
H   -2.9622181   -0.0003268   -2.8593381  
H   -1.5042265    0.0009697   -6.1484419  
C    1.0672568    0.0000697    2.3021913  
C    0.0000000    0.0000000    1.4700000  
C   -1.1601224    0.0000736    2.3478473  
C   -0.5938729    0.0000769    3.7138435  
N    0.7113367    0.0001554    3.6934124  
C   -1.4286986    0.0001879    4.8835240  
C   -2.7683114    0.0006799    4.6970523  
O   -3.6653903    0.0008304    5.6976972  
C   -3.3702025    0.0010610    3.3310774  
O   -4.5974910    0.0013779    3.2362962  
C   -2.4926826    0.0008943    2.1470656  
H   -0.9878360   -0.0000190    5.8697035  
H   -4.5324246    0.0012261    5.2533954  
H   -2.9677772    0.0012974    1.1752040  
H    2.1134392    0.0000545    2.0405121  
