58

C    0.5423183    0.1903025   -8.8942131  
C    1.6008181   -0.4682287   -9.4327193  
C    1.6685619   -0.0894351  -10.8243954  
C    0.5547937    0.8505204  -11.0541655  
N   -0.0893693    0.9774034   -9.8450989  
C    0.2772441    1.4371704  -12.2460181  
C    1.1324214    1.1215890  -13.3781049  
O    0.9647542    1.5985032  -14.4928874  
C    2.3176941    0.1284389  -13.1576827  
O    3.0442743   -0.1450724  -14.1034802  
C    2.5164897   -0.4396254  -11.8266540  
H    2.2589306   -1.1425443   -8.9142607  
H   -0.5446354    2.1240154  -12.3932176  
H    3.3395310   -1.1262812  -11.6823269  
H   -0.8932034    1.5546097   -9.6785722  
C    1.9859499   -2.0121220   -5.4225061  
C    1.1142987   -1.6302694   -4.4602217  
C    0.2013162   -0.7124157   -5.1239293  
C    0.6817516   -0.6541652   -6.5212026  
N    1.7275937   -1.4140510   -6.7022479  
C    0.0351778    0.1580614   -7.5148406  
C   -1.0426004    0.8790120   -7.1301864  
O   -1.7423831    1.6794832   -7.9521292  
C   -1.5518362    0.8410640   -5.7275458  
O   -2.5376879    1.5231241   -5.4480627  
C   -0.8712826    0.0001710   -4.7267111  
H    1.0933977   -1.9340155   -3.4275666  
H   -2.4462797    2.0547411   -7.3927861  
H    2.8195222   -2.6903517   -5.3323142  
C    1.0965514    0.0001359   -0.8010305  
C    0.0000000    0.0000000    0.0000000  
C   -1.1546563    0.0001470   -0.8669513  
C   -0.6372014    0.0003519   -2.2486282  
N    0.7342871    0.0007337   -2.1395014  
C   -1.4147739    0.0001352   -3.3608717  
C   -2.8576049   -0.0001048   -3.1854462  
O   -3.6427779   -0.0002494   -4.1244907  
C   -3.4275840   -0.0000725   -1.7311666  
O   -4.6406831    0.0000333   -1.5710060  
C   -2.4891867   -0.0001091   -0.6116744  
H   -2.8919122   -0.0002918    0.3920866  
H    2.1388272    0.0000663   -0.5261648  
H    1.3735872   -0.0006099   -2.9130262  
C    2.5128556    2.1077716    2.9199648  
C    1.9592212    1.6432552    4.0696553  
C    0.8915788    0.7479214    3.6910360  
C    0.8684491    0.7287414    2.2159470  
N    1.8754542    1.5738793    1.8102719  
C    0.0000000    0.0000000    1.4700000  
C   -0.9772830   -0.8200135    2.1664417  
O   -1.8021297   -1.5120829    1.5842315  
C   -0.9711318   -0.8147624    3.7284083  
O   -1.7894187   -1.5009653    4.3257297  
C    0.0140216    0.0115358    4.4216297  
H    2.2638494    1.8988021    5.0689105  
H    0.0117648    0.0094386    5.5031631  
H    3.3327358    2.7953732    2.7900019  
H    2.1123206    1.7707734    0.8551938  
