58

C    2.5092667   -2.0880360   -5.9399682  
C    1.9605216   -1.6268625   -4.7865938  
C    0.8894587   -0.7326233   -5.1580727  
C    0.8589566   -0.7104876   -6.6329863  
N    1.8659263   -1.5524061   -7.0453878  
C   -0.0149631    0.0176445   -7.3731170  
C   -0.9904844    0.8341830   -6.6701527  
O   -1.8197975    1.5255377   -7.2468408  
C   -0.9762348    0.8261500   -5.1082510  
O   -1.7925790    1.5098881   -4.5054701  
C    0.0139737    0.0003881   -4.4216233  
H    2.2707711   -1.8836544   -3.7893895  
H    3.3296620   -2.7739652   -6.0754079  
H    2.0965136   -1.7491781   -8.0020269  
C    3.2798083    0.0005857   -1.4499649  
C    2.5571142    0.0005565   -2.5996554  
C    1.1637433    0.0001549   -2.2210361  
C    1.1336964   -0.0000199   -0.7459471  
N    2.4483512   -0.0001430   -0.3402719  
C    0.0000000    0.0000000    0.0000000  
C   -1.2757369   -0.0000185   -0.6964413  
O   -2.3524597   -0.0000639   -0.1142311  
C   -1.2676496   -0.0000872   -2.2584080  
O   -2.3355767   -0.0004098   -2.8557291  
C    0.0181559    0.0001762   -2.9516297  
H    2.9547353    0.0006075   -3.5989106  
H    4.3498547    0.0008612   -1.3200022  
H    2.7563628    0.0012821    0.6148060  
C    0.5423245   -3.1834593  -10.3628994  
C    0.4218244   -2.4773716   -9.2092117  
C    0.1748803   -1.1039349   -9.5800554  
C    0.1612641   -1.0674927  -11.0549364  
N    0.3903547   -2.3597171  -11.4679302  
C   -0.0425237    0.0519523  -11.7945442  
C   -0.2629515    1.3045442  -11.0910099  
O   -0.4557071    2.3671583  -11.6672021  
C   -0.2524588    1.2893592   -9.5291313  
O   -0.4365954    2.3378991   -8.9258748  
C   -0.0224908    0.0203749   -8.8430949  
H    0.4974931   -2.8734219   -8.2121997  
H   -0.0487548    0.0569608  -12.8756758  
H    0.7295741   -4.2362426  -10.4988218  
H    0.4376404   -2.6587450  -12.4246917  
C    2.4951002    2.0940188    2.9809380  
C    1.9440701    1.6314916    1.8291961  
C    0.8759964    0.7350050    2.2038498  
C    0.8497377    0.7130254    3.6788474  
N    1.8560616    1.5571714    4.0882609  
C   -0.0205033   -0.0168748    4.4215661  
C   -0.9962600   -0.8356168    3.7214979  
O   -1.8224391   -1.5286685    4.3006425  
C   -0.9864710   -0.8277881    2.1595606  
O   -1.8030528   -1.5133726    1.5592035  
C    0.0000000    0.0000000    1.4700000  
H    2.2509283    1.8888011    0.8310761  
H   -0.0229599   -0.0187323    5.5027230  
H    3.3143982    2.7817323    3.1139444  
H    2.0889452    1.7545833    5.0442112  
