60

C    3.2573672   -0.0002920   -1.5109380  
C    2.5379470   -0.0001710   -0.3591959  
C    1.1435044    0.0000331   -0.7338498  
C    1.1092609   -0.0000083   -2.2088475  
N    2.4227564    0.0001909   -2.6182609  
C   -0.0265532   -0.0002524   -2.9515660  
C   -1.3003037   -0.0002640   -2.2514978  
O   -2.3786783   -0.0004133   -2.8306423  
C   -1.2877723    0.0000311   -0.6895608  
O   -2.3539957    0.0003306   -0.0892035  
C    0.0000000    0.0000000    0.0000000  
H    2.9384091   -0.0000368    0.6389235  
H    2.7280494   -0.0013407   -3.5742112  
C    6.6174609    0.0016339    1.3537082  
C    5.3857491    0.0013495    0.7819026  
C    5.5854753    0.0003216   -0.6481124  
C    7.0449755   -0.0000008   -0.8640984  
N    7.6133367    0.0012282    0.3888398  
C    7.6418663   -0.0013232   -2.0828783  
C    6.7899767   -0.0022819   -3.2605105  
O    7.2316313   -0.0034333   -4.4021063  
C    5.2415223   -0.0017089   -3.0553434  
O    4.5141883   -0.0021996   -4.0393383  
C    4.7161333   -0.0005436   -1.6923256  
H    4.4446717    0.0019900    1.3024652  
H    8.7143818   -0.0016670   -2.2193376  
H    6.8814410    0.0023224    2.3987939  
H    8.5996527   -0.0002112    0.5738435  
C   -0.0307352   -0.0004647   -4.4215603  
C    1.0209940   -0.0006524   -5.2805949  
C    0.4733359   -0.0007746   -6.6165986  
C   -0.9941879   -0.0006125   -6.4644009  
N   -1.2345436   -0.0008271   -5.1097353  
C   -1.8743243   -0.0002663   -7.4973884  
C   -1.3406219   -0.0002643   -8.8493122  
O   -2.0512426   -0.0000283   -9.8459652  
C    0.2104060   -0.0006863   -9.0340214  
O    0.6713879   -0.0009950  -10.1674928  
C    1.0569890   -0.0007586   -7.8435811  
H    2.0616764   -0.0008822   -5.0093130  
H   -2.9472231   -0.0000225   -7.3639812  
H    2.1298776   -0.0008462   -7.9800882  
H   -2.1443163    0.0007706   -4.6862276  
C    0.0000000    0.0000000    1.4700000  
C    1.0521667    0.0011902    2.3562342  
C    0.4917218    0.0011957    3.6679131  
C   -0.9187428   -0.0003148    3.5178682  
N   -1.1833171    0.0009411    2.1707914  
C   -1.7951701   -0.0010350    4.6072090  
C   -1.2375837   -0.0005224    5.8710424  
O   -2.0474215   -0.0015360    6.9697579  
C    0.1673580    0.0013566    6.0411963  
O    0.5673524    0.0020687    7.3615553  
C    1.0325770    0.0023412    4.9669890  
H    2.0953057    0.0030649    2.0900562  
H   -2.0989778   -0.0102372    1.7591824  
H   -2.8710934   -0.0020419    4.4995513  
H   -1.4634884   -0.0006497    7.7393593  
H    1.5290710    0.0033153    7.3880045  
H    2.1042148    0.0039609    5.1284455  
