58

C    0.0072374   -0.7172705   -5.1312249  
C    0.1641342   -0.4988122   -6.4622900  
C   -0.8688537    0.4276940   -6.8614858  
C   -1.6459760    0.7333164   -5.6451523  
N   -1.0641723    0.0073878   -4.6315341  
C   -2.7115375    1.5727256   -5.6042187  
C   -3.1204211    2.2180752   -6.8406950  
O   -4.0675163    2.9906565   -6.9072576  
C   -2.3119548    1.9087859   -8.1408976  
O   -2.6470503    2.4459854   -9.1879827  
C   -1.1818732    0.9867404   -8.0596608  
H   -3.2678040    1.7833457   -4.7013808  
H   -0.6271702    0.7780511   -8.9643581  
H    0.5840392   -1.3468500   -4.4733349  
C    1.1319252    0.0015682   -0.8009266  
C    0.7969921    0.0034960   -2.1169402  
C   -0.6453331    0.0035691   -2.1842673  
C   -1.1266827    0.0015403   -0.7896030  
N    0.0000000    0.0000000    0.0000000  
C   -2.4346126    0.0013901   -0.4276302  
C   -3.4350106    0.0031320   -1.4820190  
O   -4.6384606    0.0030853   -1.2583929  
C   -2.9478949    0.0050426   -2.9661082  
O   -3.7809369    0.0062120   -3.8623782  
C   -1.5113814    0.0053047   -3.2312128  
H    1.4821247    0.0045440   -2.9459190  
H   -2.7664566    0.0000163    0.6013442  
H    2.1104320    0.0009443   -0.3488051  
C    1.8475477   -4.5516947   -6.6159138  
C    2.7326072   -4.3889963   -7.6329058  
C    2.6210083   -3.0183006   -8.0728773  
C    1.5910181   -2.3912768   -7.2227291  
N    1.1616029   -3.3739238   -6.3608147  
C    1.1937549   -1.0975752   -7.3238371  
C    1.8224320   -0.2673818   -8.3377796  
O    1.5335158    0.9098638   -8.5078417  
C    2.9155269   -0.9106847   -9.2494324  
O    3.4516140   -0.2216424  -10.1068076  
C    3.2592612   -2.3156437   -9.0450112  
H    3.3886329   -5.1431733   -8.0297214  
H    4.0172412   -2.7534479   -9.6802417  
H    1.6385419   -5.4329655   -6.0314756  
H    0.4596343   -3.2534495   -5.6538682  
C    0.0000000    0.0000000    1.4700000  
C    1.0662921    0.0000102    2.3034270  
C    0.4961870   -0.0000064    3.6418889  
C   -0.9663858    0.0000850    3.4240247  
N   -1.2632773    0.0000084    2.1528658  
C   -1.8985362    0.0000517    4.5177257  
C   -1.3925775   -0.0004564    5.7720543  
O   -2.1456383   -0.0005410    6.8851312  
C    0.0786232   -0.0009323    6.0245000  
O    0.4683759   -0.0012588    7.1921102  
C    1.0143166   -0.0008442    4.8859032  
H    2.1107198   -0.0000632    2.0421868  
H   -2.9622183    0.0003270    4.3293377  
H   -1.5042274   -0.0009692    7.6184419  
H    2.0724152   -0.0013148    5.1109744  
