60

C    0.0000000    0.0000000    0.0000000  
C    1.0521656   -0.0012043   -0.8862351  
C    0.4917200   -0.0012020   -2.1979137  
C   -0.9187445    0.0003274   -2.0478677  
N   -1.1833177   -0.0009251   -0.7007905  
C   -1.7951725    0.0010595   -3.1372079  
C   -1.2375873    0.0005399   -4.4010417  
O   -2.0474259    0.0015643   -5.4997564  
C    0.1673544   -0.0013583   -4.5711967  
O    0.5673477   -0.0020758   -5.8915560  
C    1.0325744   -0.0023546   -3.4969900  
H    2.0953046   -0.0030932   -0.6200577  
H   -2.0989779    0.0102656   -0.2891810  
H   -1.4634938    0.0006700   -6.2693583  
H    1.5290660   -0.0033352   -5.9180057  
H    2.1042114   -0.0039890   -3.6584473  
C   -4.7114417    2.0140794   -0.4339566  
C   -3.5467357    1.6314859   -1.0072465  
C   -3.9343411    0.7149573   -2.0684898  
C   -5.4099524    0.6582045   -1.9914546  
N   -5.8711923    1.4177554   -1.0352486  
C   -6.1879822   -0.1524256   -2.8873535  
C   -5.5221693   -0.8732798   -3.8181580  
O   -6.1204783   -1.6723418   -4.7179179  
C   -4.0334893   -0.8368211   -3.9214197  
O   -3.4940551   -1.5187026   -4.7927805  
C   -3.2578679    0.0024482   -2.9908485  
H   -2.5479293    1.9339456   -0.7427094  
H   -5.3893233   -2.0479243   -5.2408934  
H   -4.8535640    2.6917474    0.3928087  
C   -9.1248328    3.0148775   -2.0958767  
C  -10.2655855    2.2794110   -2.1388553  
C   -9.8773000    0.9158160   -2.4121291  
C   -8.4062770    0.9171557   -2.5256193  
N   -8.0119768    2.2197788   -2.3241499  
C   -7.6537112   -0.1832057   -2.7796940  
C   -8.3382457   -1.4535826   -2.9531598  
O   -7.7493874   -2.5012782   -3.1852831  
C   -9.8957424   -1.4783153   -2.8374093  
O  -10.4830780   -2.5420016   -2.9818707  
C  -10.5968928   -0.2271677   -2.5601560  
H  -11.2650156    2.6498852   -1.9956644  
H  -11.6752483   -0.2528700   -2.4813352  
H   -9.0035180    4.0708727   -1.9168603  
H   -7.0619521    2.5427251   -2.3385071  
C    3.2798086   -0.0005857    2.9199648  
C    2.5571146   -0.0005566    4.0696553  
C    1.1637436   -0.0001548    3.6910360  
C    1.1336965    0.0000200    2.2159470  
N    2.4483514    0.0001428    1.8102719  
C    0.0000000    0.0000000    1.4700000  
C   -1.2757367    0.0000186    2.1664417  
O   -2.3524596    0.0000640    1.5842315  
C   -1.2676493    0.0000873    3.7284083  
O   -2.3355761    0.0004100    4.3257297  
C    0.0181563   -0.0001760    4.4216297  
H    2.9547357   -0.0006076    5.0689105  
H    0.0150794   -0.0003319    5.5031631  
H    4.3498549   -0.0008612    2.7900019  
H    2.7563627   -0.0012824    0.8551938  
