62

C    0.3821150    3.2819571   -1.5420439  
C    0.2994622    2.5671295   -0.3695860  
C    0.1392835    1.1959169   -0.7283591  
C    0.1315378    1.1346380   -2.1454375  
N    0.2790790    2.4188181   -2.6077471  
C   -0.0084536   -0.0649774   -2.8497918  
C   -0.1427734   -1.2238780   -2.1101399  
O   -0.2822983   -2.4228917   -2.7472514  
C   -0.1377922   -1.1831242   -0.6955258  
O   -0.2817073   -2.4208175   -0.1032850  
C    0.0000000    0.0000000    0.0000000  
H    0.3474803    2.9829831    0.6222579  
H   -0.0152821   -0.1183828   -3.9297468  
H   -0.3600924   -3.0924044   -2.0551776  
H   -0.2679838   -2.3044988    0.8516418  
H    0.5049762    4.3393785   -1.7024304  
C    2.6568012    5.3371762   -4.9939710  
C    2.1806098    4.6204336   -3.9494130  
C    1.1665189    3.7494312   -4.5234113  
C    1.1616017    4.0821274   -5.9642001  
N    2.0331786    5.0121391   -6.2460176  
C    0.2820259    3.4276083   -6.8931986  
C   -0.5543358    2.4833641   -6.4051043  
O   -1.4280894    1.7932114   -7.1576238  
C   -0.5728012    2.1250284   -4.9561682  
O   -1.3603168    1.2561348   -4.5819176  
C    0.3390501    2.8107133   -4.0232756  
H    2.4805382    4.6758744   -2.9169185  
H    0.2995978    3.6907636   -7.9407439  
H   -1.8791982    1.1986814   -6.5313746  
C    3.7021616    6.3705973   -4.9811897  
C    4.4481626    6.8636813   -3.9358101  
C    5.3197123    7.8545697   -4.4772359  
C    5.0578712    7.9232229   -5.8695905  
N    4.0718936    7.0078043   -6.1424883  
C    5.7362857    8.7970886   -6.7245184  
C    6.6963057    9.6167920   -6.1636045  
O    7.3884577   10.4892826   -6.9527183  
C    6.9720996    9.5626953   -4.7765832  
O    7.9552384   10.4413347   -4.3706609  
C    6.3034065    8.7006589   -3.9326228  
H    4.3741383    6.5472393   -2.9094683  
H    3.6713885    6.8386314   -7.0474513  
H    5.5414854    8.8541366   -7.7865927  
H    8.0001525   10.9580424   -6.3701743  
H    8.0799788   10.3410429   -3.4219855  
H    6.5364218    8.6815284   -2.8744091  
C    2.4951002    2.0940188    2.9809380  
C    1.9440701    1.6314916    1.8291961  
C    0.8759964    0.7350050    2.2038498  
C    0.8497377    0.7130254    3.6788474  
N    1.8560616    1.5571714    4.0882609  
C   -0.0205033   -0.0168748    4.4215661  
C   -0.9962600   -0.8356168    3.7214979  
O   -1.8224391   -1.5286685    4.3006425  
C   -0.9864710   -0.8277881    2.1595606  
O   -1.8030528   -1.5133726    1.5592035  
C    0.0000000    0.0000000    1.4700000  
H    2.2509283    1.8888011    0.8310761  
H   -0.0229599   -0.0187323    5.5027230  
H    3.3143982    2.7817323    3.1139444  
H    2.0889452    1.7545833    5.0442112  
