58

C    8.1698811   -0.0026509   -0.4381472  
C    8.3258054   -0.0040680    0.9108379  
C    9.7461697   -0.0061282    1.1704499  
C   10.4097121   -0.0057635   -0.1473142  
N    9.3987483   -0.0040225   -1.0805025  
C   11.7543010   -0.0069211   -0.3311185  
C   12.6047016   -0.0088672    0.8475885  
O   13.8272473   -0.0100805    0.7869148  
C   11.9234855   -0.0095379    2.2532016  
O   12.6291791   -0.0114798    3.2528286  
C   10.4644234   -0.0078791    2.3238129  
H    7.5359638   -0.0038933    1.6407439  
H   12.2207756   -0.0064972   -1.3064709  
H   10.0005639   -0.0081513    3.3008284  
H    9.5329574   -0.0018233   -2.0750025  
C    5.6463485   -0.0007503   -0.7029966  
C    4.7161325   -0.0005435   -1.6923264  
C    5.4339816   -0.0003284   -2.9451346  
C    6.8689501   -0.0004567   -2.6021239  
N    6.9298893   -0.0003134   -1.2276508  
C    7.8767467   -0.0007179   -3.5109972  
C    7.5246255   -0.0006573   -4.9211555  
O    8.3596091   -0.0008153   -5.8162002  
C    6.0111284   -0.0002695   -5.3073303  
O    5.7025034    0.0000912   -6.4913958  
C    5.0159834   -0.0002905   -4.2379666  
H    8.9229464   -0.0009383   -3.2382781  
H    3.9701999   -0.0002261   -4.5137575  
H    5.5021930   -0.0009683    0.3652301  
C    3.2573665   -0.0002920   -1.5109385  
C    2.5379463   -0.0001709   -0.3591964  
C    1.1435038    0.0000331   -0.7338500  
C    1.1092599   -0.0000083   -2.2088477  
N    2.4227553    0.0001909   -2.6182613  
C   -0.0265539   -0.0002524   -2.9515660  
C   -1.3003040   -0.0002640   -2.2514977  
O   -2.3786790   -0.0004133   -2.8306421  
C   -1.2877727    0.0000311   -0.6895603  
O   -2.3539959    0.0003306   -0.0892030  
C    0.0000000    0.0000000    0.0000000  
H    2.9384091   -0.0000367    0.6389234  
H   -0.0296303   -0.0004086   -4.0327229  
H    2.7280482   -0.0013407   -3.5742119  
C    0.0000000    0.0000000    1.4700000  
C    1.0662921    0.0000102    2.3034270  
C    0.4961870   -0.0000064    3.6418889  
C   -0.9663858    0.0000850    3.4240247  
N   -1.2632773    0.0000084    2.1528658  
C   -1.8985362    0.0000517    4.5177257  
C   -1.3925775   -0.0004564    5.7720543  
O   -2.1456383   -0.0005410    6.8851312  
C    0.0786232   -0.0009323    6.0245000  
O    0.4683759   -0.0012588    7.1921102  
C    1.0143166   -0.0008442    4.8859032  
H    2.1107198   -0.0000632    2.0421868  
H   -2.9622183    0.0003270    4.3293377  
H   -1.5042274   -0.0009692    7.6184419  
H    2.0724152   -0.0013148    5.1109744  
