58

C    5.5868518    0.0001902   -1.0681562  
C    6.8043815    0.0013361   -1.6695678  
C    6.5701480    0.0005340   -3.0943378  
C    5.1058544   -0.0011564   -3.2749817  
N    4.5679461   -0.0016852   -2.0086700  
C    4.4796775   -0.0019121   -4.4789772  
C    5.3028522   -0.0012258   -5.6768582  
O    4.8337320   -0.0018782   -6.8074450  
C    6.8558126    0.0003102   -5.5091801  
O    7.5591489    0.0005923   -6.5104685  
C    7.4139945    0.0012962   -4.1592600  
H    7.7577676    0.0024169   -1.1719050  
H    3.4041778   -0.0030227   -4.5894716  
H    8.4901785    0.0025631   -4.0517884  
H    5.3482114    0.0003409   -0.0169951  
C    3.1301152   -0.0010311   -1.7028251  
C    2.5367770   -0.0002766   -0.4864665  
C    1.1089905    0.0001028   -0.7656183  
C    1.0177873   -0.0004148   -2.2415130  
N    2.1993580   -0.0011610   -2.7963820  
C   -0.2459208   -0.0002877   -2.9257119  
C   -1.3675318   -0.0000605   -2.1698523  
O   -2.6129310    0.0000866   -2.6748492  
C   -1.3083584    0.0000911   -0.6783232  
O   -2.3693259    0.0004206   -0.0541692  
C    0.0000000    0.0000000    0.0000000  
H    3.0096019   -0.0001007    0.4807529  
H   -3.1967440    0.0002093   -1.8949035  
C   -0.2963281   -0.0005339   -4.3948471  
C    0.7407580   -0.0008424   -5.2643483  
C    0.1250914   -0.0009651   -6.5824737  
C   -1.3291505   -0.0008024   -6.3145847  
N   -1.5822785   -0.0004687   -5.0339930  
C   -2.2982564   -0.0008136   -7.3756783  
C   -1.8356072   -0.0005908   -8.6466191  
O   -2.6263931   -0.0005806   -9.7332187  
C   -0.3739281   -0.0003762   -8.9493654  
O   -0.0244428   -0.0003032  -10.1296538  
C    0.6002582   -0.0004128   -7.8435235  
H    1.7935297   -0.0008806   -5.0390756  
H   -3.3548530   -0.0008990   -7.1509267  
H   -2.0105053   -0.0003707  -10.4880926  
H    1.6500167   -0.0001373   -8.1047447  
C    0.0000000    0.0000000    1.4700000  
C    1.0541688    0.0001722    2.3260392  
C    0.5103138    0.0000454    3.6635956  
C   -0.9576371   -0.0002459    3.5155732  
N   -1.2018458    0.0001392    2.1615969  
C   -1.8348311   -0.0008317    4.5510609  
C   -1.2972847   -0.0009736    5.9014604  
O   -2.0050672   -0.0014265    6.9001319  
C    0.2542623   -0.0004184    6.0817573  
O    0.7184670   -0.0002256    7.2139121  
C    1.0974552   -0.0000873    4.8889129  
H    2.0940752    0.0005483    2.0517982  
H   -2.9081052   -0.0011668    4.4207061  
H    2.1707277    0.0000911    5.0223670  
H   -2.1128194   -0.0014912    1.7406791  
