62

C   -3.3039370    0.0352494   -1.5420461  
C   -2.5843829    0.0281426   -0.3695873  
C   -1.2039309    0.0128882   -0.7283601  
C   -1.1421754    0.0116226   -2.1454382  
N   -2.4347492    0.0234517   -2.6077487  
C    0.0655087   -0.0015811   -2.8497913  
C    1.2321062   -0.0134216   -2.1101384  
O    2.4391434   -0.0262247   -2.7472494  
C    1.1910533   -0.0127490   -0.6955248  
O    2.4370159   -0.0258552   -0.1032836  
C    0.0000000    0.0000000    0.0000000  
H   -3.0029808    0.0322116    0.6222556  
H   -2.7052271    0.0360685   -3.5745287  
H    0.1193367   -0.0027619   -3.9297469  
H    3.1131239   -0.0332599   -2.0551752  
H    2.3198992   -0.0244264    0.8516432  
C   -5.7155363    0.0607657   -0.7739158  
C   -4.7574522    0.0504134   -1.7610507  
C   -5.4464040    0.0555178   -3.0100181  
C   -6.8346866    0.0694439   -2.7194955  
N   -6.9630420    0.0703472   -1.3526957  
C   -7.8157499    0.0780310   -3.7156029  
C   -7.3875462    0.0727654   -5.0289161  
O   -8.3032935    0.0810599   -6.0410192  
C   -6.0067753    0.0585220   -5.3388936  
O   -5.7410269    0.0544533   -6.6926682  
C   -5.0383817    0.0497712   -4.3567212  
H   -7.8327502    0.0895448   -0.8514768  
H   -7.7993898    0.0751247   -6.8652227  
H   -4.7868391    0.0447315   -6.8152824  
H   -3.9883529    0.0387246   -4.6246700  
H   -5.6077361    0.0606270    0.2972233  
C  -10.4293154    2.1189220   -0.7376031  
C   -9.3311918    1.7256673   -1.4239377  
C   -9.8309518    0.8115249   -2.4393603  
C  -11.2918617    0.7676769   -2.2148519  
N  -11.6485099    1.5321265   -1.2186547  
C  -12.1626055   -0.0370181   -3.0268602  
C  -11.5995464   -0.7645268   -4.0183386  
O  -12.2917673   -1.5592204   -4.8522054  
C  -10.1284337   -0.7411109   -4.2702134  
O   -9.6848262   -1.4284923   -5.1899631  
C   -9.2563688    0.0922765   -3.4235180  
H   -8.3083639    2.0196857   -1.2612961  
H  -13.2265199   -0.0501962   -2.8402494  
H  -11.6199006   -1.9416469   -5.4450785  
H  -10.4821244    2.7985935    0.0979991  
C    0.8400945    0.7047457    2.2710304  
C    0.0000000    0.0000000    1.4700000  
C   -0.8844236   -0.7423113    2.3369512  
C   -0.4878984   -0.4098547    3.7186280  
N    0.5629682    0.4714286    3.6095011  
C   -1.0836927   -0.9095027    4.8308716  
C   -2.1891196   -1.8367527    4.6554461  
O   -2.7906899   -2.3413415    5.5944904  
C   -2.6257283   -2.2031529    3.2011665  
O   -3.5549479   -2.9829990    3.0410059  
C   -1.9068976   -1.5999348    2.0816745  
H   -0.7774656   -0.6525820    5.8354244  
H   -2.2155208   -1.8586617    1.0779135  
H    1.6384792    1.3747609    1.9961646  
H    1.0518368    0.8833920    4.3830260  
