58

C   -1.6707547   -0.0059435   -3.2725972  
C   -3.0286634   -0.0106125   -3.2608752  
C   -3.4615586   -0.0107290   -4.6383501  
C   -2.2357522   -0.0057382   -5.4594254  
N   -1.1849528   -0.0026160   -4.5713370  
C   -2.2192701   -0.0047389   -6.8164187  
C   -3.4938984   -0.0086271   -7.5148761  
O   -3.5845462   -0.0080291   -8.7355659  
C   -4.8047027   -0.0136881   -6.6654223  
O   -5.8837652   -0.0166830   -7.2423761  
C   -4.6947303   -0.0146046   -5.2087973  
H   -3.6555237   -0.0134483   -2.3870037  
H   -1.3089383   -0.0011811   -7.3996794  
H   -0.2146128   -0.0005084   -4.8272344  
C   -1.0965411   -0.0048466   -0.8010305  
C    0.0000000    0.0000000    0.0000000  
C    1.1546462    0.0048134   -0.8669513  
C    0.6371965    0.0023853   -2.2486285  
N   -0.7342777   -0.0038884   -2.1395013  
C    1.4147610    0.0059424   -3.3608716  
C    2.8575773    0.0123808   -3.1854462  
O    3.6427423    0.0158985   -4.1244910  
C    3.4275516    0.0147974   -1.7311672  
O    4.6406395    0.0199031   -1.5710067  
C    2.4891633    0.0108026   -0.6116745  
H    1.0150358    0.0041988   -4.3654248  
H    2.8918846    0.0127156    0.3920864  
H   -2.1388072   -0.0092547   -0.5261646  
C   -5.8765345    2.0720289   -1.5012738  
C   -5.1993291    1.6128294   -2.5850652  
C   -6.0858419    0.7138283   -3.2855837  
C   -7.3440654    0.6867469   -2.5155635  
N   -7.1519129    1.5306405   -1.4460729  
C   -8.4353855   -0.0467063   -2.8513790  
C   -8.3660356   -0.8641615   -4.0511677  
O   -9.2958416   -1.5601530   -4.4376353  
C   -7.0432723   -0.8509509   -4.8817865  
O   -6.9730106   -1.5354085   -5.8936370  
C   -5.9347124   -0.0196591   -4.4192918  
H   -4.1934884    1.8739233   -2.8620644  
H   -9.3486811   -0.0522841   -2.2727864  
H   -5.5511221    2.7602259   -0.7381342  
H   -7.8338996    1.7250329   -0.7360348  
C    0.0000000    0.0000000    1.4700000  
C    1.0662921    0.0000102    2.3034270  
C    0.4961870   -0.0000064    3.6418889  
C   -0.9663858    0.0000850    3.4240247  
N   -1.2632773    0.0000084    2.1528658  
C   -1.8985362    0.0000517    4.5177257  
C   -1.3925775   -0.0004564    5.7720543  
O   -2.1456383   -0.0005410    6.8851312  
C    0.0786232   -0.0009323    6.0245000  
O    0.4683759   -0.0012588    7.1921102  
C    1.0143166   -0.0008442    4.8859032  
H    2.1107198   -0.0000632    2.0421868  
H   -2.9622183    0.0003270    4.3293377  
H   -1.5042274   -0.0009692    7.6184419  
H    2.0724152   -0.0013148    5.1109744  
