62

C    4.8697991    0.2266424   -1.4420373  
C    3.5582470    0.0403841   -1.8129917  
C    3.3083112    0.9143774   -2.9122042  
C    4.5146004    1.6147119   -3.1697381  
N    5.4416796    1.1746374   -2.2578847  
C    4.6353550    2.5633956   -4.1896432  
C    3.5180990    2.8093595   -4.9638648  
O    3.5807884    3.7257120   -5.9735093  
C    2.3054237    2.1210205   -4.7221527  
O    1.2838770    2.4773129   -5.5782141  
C    2.1854970    1.1851879   -3.7159913  
H    2.8664144   -0.6407382   -1.3477683  
H    5.5518744    3.1006769   -4.3909457  
H    2.7051617    3.7430790   -6.3812356  
H    0.5016448    1.9670191   -5.3473115  
H    5.4421698   -0.2406884   -0.6591247  
C    0.0000000    0.0000000    0.0000000  
C    0.9245702    0.5022222   -0.8862337  
C    0.4323963    0.2341484   -2.1979127  
C   -0.8069792   -0.4391711   -2.0478683  
N   -1.0387250   -0.5668243   -0.7007914  
C   -1.5769920   -0.8577465   -3.1372092  
C   -1.0870809   -0.5914946   -4.4010427  
O   -1.7987556   -0.9779617   -5.4997582  
C    0.1476214    0.0788598   -4.5711961  
O    0.4992325    0.2695580   -5.8915551  
C    0.9079177    0.4918422   -3.4969887  
H    1.8415395    0.9995248   -0.6200556  
H   -1.8481943   -0.9949818   -0.2891827  
H   -2.5223373   -1.3714927   -3.0295517  
H   -1.2855283   -0.6994360   -6.2693595  
H    1.3443993    0.7284674   -5.9180039  
C    6.8371007    1.6298904   -2.1776030  
C    7.8158455    1.2427038   -1.3195704  
C    8.9998203    1.9934934   -1.6650451  
C    8.6279466    2.8560272   -2.8028216  
N    7.3042916    2.5875110   -3.0649786  
C    9.4725339    3.7198229   -3.4210713  
C   10.8390768    3.8055794   -2.9334832  
O   11.6754431    4.5530685   -3.4234325  
C   11.2548303    2.9011322   -1.7297682  
O   12.4027370    2.9644311   -1.3107630  
C   10.2554428    2.0098227   -1.1461209  
H    7.7194620    0.5141502   -0.5343739  
H    9.1796018    4.3436884   -4.2540734  
H   10.5512751    1.3870316   -0.3128509  
H    6.7607566    3.0219164   -3.7881031  
C    3.1301144    0.0010313    3.1728260  
C    2.5367765    0.0002768    1.9564670  
C    1.1089900   -0.0001027    2.2356185  
C    1.0177864    0.0004150    3.7115134  
N    2.1993570    0.0011613    4.2663826  
C   -0.2459220    0.0002880    4.3957118  
C   -1.3675327    0.0000606    3.6398520  
O   -2.6129319   -0.0000866    4.1448486  
C   -1.3083589   -0.0000910    2.1483229  
O   -2.3693264   -0.0004206    1.5241687  
C    0.0000000    0.0000000    1.4700000  
H    3.0096015    0.0001008    0.9892483  
H   -0.2829642    0.0004689    5.4753125  
H   -3.1967446   -0.0002093    3.3649027  
H    4.1849273    0.0015113    3.3971983  
