58

C   -0.9337313   -0.5215843   -9.5155953  
C   -1.2650274    0.6885080   -8.9959857  
C   -1.2695818    1.6298259  -10.0908522  
C   -0.9112412    0.8634438  -11.2995881  
N   -0.7201285   -0.4337451  -10.8828543  
C   -0.8083334    1.3944254  -12.5442456  
C   -1.0676044    2.8156191  -12.7040019  
O   -1.0006407    3.3876370  -13.7841014  
C   -1.4484638    3.6466755  -11.4374734  
O   -1.6687030    4.8441079  -11.5595824  
C   -1.5281334    2.9624435  -10.1493234  
H   -0.5442729    0.8145971  -13.4177336  
H   -1.7926504    3.5449679   -9.2773021  
H   -0.8274448   -1.4701032   -9.0146914  
H   -0.4667065   -1.1991840  -11.4802894  
C    0.5437040   -0.7271841   -5.2249457  
C    0.2434239   -0.5105988   -6.5314673  
C   -0.8629401    0.4167202   -6.5610285  
C   -1.1848933    0.7248606   -5.1545486  
N   -0.2963293   -0.0005341   -4.3948471  
C   -2.1737995    1.5656769   -4.7585734  
C   -2.9746425    2.2099925   -5.7862126  
O   -3.8882472    2.9836954   -5.5312379  
C   -2.6514176    1.8980399   -7.2822132  
O   -3.3190953    2.4343498   -8.1561921  
C   -1.5606866    0.9746586   -7.5847433  
H    0.7401408   -0.9504079   -7.3779028  
H   -2.3934249    1.7781400   -3.7214936  
H    1.3078554   -1.3566705   -4.7986721  
C    3.1301146   -0.0010313   -1.7028256  
C    2.5367765   -0.0002766   -0.4864669  
C    1.1089901    0.0001027   -0.7656184  
C    1.0177865   -0.0004150   -2.2415133  
N    2.1993571   -0.0011612   -2.7963824  
C   -0.2459219   -0.0002879   -2.9257116  
C   -1.3675326   -0.0000606   -2.1698520  
O   -2.6129318    0.0000865   -2.6748483  
C   -1.3083588    0.0000910   -0.6783229  
O   -2.3693264    0.0004206   -0.0541685  
C    0.0000000    0.0000000    0.0000000  
H    3.0096016   -0.0001007    0.4807518  
H   -3.1967444    0.0002093   -1.8949026  
H    4.1849275   -0.0015114   -1.9271979  
C    2.3971438    2.0127888    3.1728260  
C    1.9431056    1.6308205    1.9564670  
C    0.8496017    0.7127664    2.2356185  
C    0.7794028    0.6545384    3.7115134  
N    1.6840587    1.4146091    4.2663826  
C   -0.1885723   -0.1578550    4.3957118  
C   -1.0476298   -0.8789867    3.6398520  
O   -2.0015663   -1.6796266    4.1448486  
C   -1.0022026   -0.8410666    2.1483229  
O   -1.8147390   -1.5232959    1.5241687  
C    0.0000000    0.0000000    1.4700000  
H    2.3054237    1.9346118    0.9892483  
H   -0.2170646   -0.1815267    5.4753125  
H   -2.4487139   -2.0549881    3.3649027  
H    3.2048689    2.6911772    3.3971983  
