60

C    3.3003552    0.0005285   -1.4738972  
C    2.5232826    0.0003507   -2.6090736  
C    1.1623212   -0.0001311   -2.1820097  
C    1.1711890    0.0000587   -0.7636137  
N    2.4852304   -0.0014914   -0.3662351  
C    0.0000000    0.0000000    0.0000000  
C   -1.2020381    0.0000523   -0.6806491  
O   -2.3759247    0.0003490    0.0157734  
C   -1.2314645   -0.0005108   -2.0955513  
O   -2.5054375   -0.0008033   -2.6250193  
C   -0.0764506   -0.0007263   -2.8495194  
H    2.8036265    0.0088185    0.5858674  
H   -3.0835635    0.0000345   -0.6418830  
H   -2.4360031   -0.0011517   -3.5845931  
H   -0.1304079   -0.0013410   -3.9319087  
H    4.3715557    0.0004903   -1.3667118  
C    5.8850917   -2.1080177   -4.4895951  
C    5.7585093   -1.6448877   -5.7598559  
C    4.6253954   -0.7500301   -5.7707340  
C    4.0984511   -0.7296185   -4.3927995  
N    4.9059601   -1.5736615   -3.6658810  
C    3.0267453   -0.0008938   -3.9901690  
C    2.3467562    0.8178009   -4.9800624  
O    1.3721093    1.5097474   -4.7162936  
C    2.8874981    0.8112320   -6.4454499  
O    2.3229964    1.4963187   -7.2876228  
C    4.0508322   -0.0149179   -6.7584712  
H    6.3870555   -1.9010531   -6.5940757  
H    4.4191272   -0.0137378   -7.7753693  
H    4.8014755   -1.7695703   -2.6872340  
C    9.1990335   -4.1576210   -6.4400855  
C    9.7334258   -4.8694392   -5.4206160  
C    8.9074299   -4.5497217   -4.2664879  
C    7.8942871   -3.6048421   -4.7835267  
N    8.0601236   -3.3712601   -6.0570759  
C    6.8752642   -3.0447502   -3.9391486  
C    6.8684342   -3.4121999   -2.6375079  
O    5.9756555   -2.9675883   -1.7367823  
C    7.8772384   -4.3640832   -2.0857909  
O    7.8110357   -4.6539583   -0.8912993  
C    8.9125051   -4.9248729   -2.9721674  
H   10.5831346   -5.5299688   -5.4483905  
H    6.2265989   -3.4040171   -0.9026900  
H    9.6247913   -5.6110575   -2.5339554  
H    9.5256104   -4.1208355   -7.4672020  
C    2.4951002    2.0940188    2.9809380  
C    1.9440701    1.6314916    1.8291961  
C    0.8759964    0.7350050    2.2038498  
C    0.8497377    0.7130254    3.6788474  
N    1.8560616    1.5571714    4.0882609  
C   -0.0205033   -0.0168748    4.4215661  
C   -0.9962600   -0.8356168    3.7214979  
O   -1.8224391   -1.5286685    4.3006425  
C   -0.9864710   -0.8277881    2.1595606  
O   -1.8030528   -1.5133726    1.5592035  
C    0.0000000    0.0000000    1.4700000  
H    2.2509283    1.8888011    0.8310761  
H   -0.0229599   -0.0187323    5.5027230  
H    3.3143982    2.7817323    3.1139444  
H    2.0889452    1.7545833    5.0442112  
