62

C   -3.3041007    0.0133623   -1.5420424  
C   -2.5845140    0.0110222   -0.3695848  
C   -1.2039907    0.0049127   -0.7283589  
C   -1.1422316    0.0040563   -2.1454368  
N   -2.4348549    0.0073227   -2.6077461  
C    0.0655133   -0.0011470   -2.8497919  
C    1.2321649   -0.0052594   -2.1101400  
O    2.4392600   -0.0100663   -2.7472527  
C    1.1911103   -0.0048587   -0.6955268  
O    2.4371330   -0.0097109   -0.1032865  
C    0.0000000    0.0000000    0.0000000  
H   -3.0031281    0.0123181    0.6222588  
H   -2.7054122    0.0181474   -3.5745255  
H    0.1193471   -0.0019713   -3.9297468  
H    3.1132732   -0.0126366   -2.0551793  
H    2.3200112   -0.0090580    0.8516404  
C   -6.7747393    0.0313099    1.2764688  
C   -5.5081714    0.0260265    0.7395840  
C   -5.6572754    0.0240909   -0.6789945  
C   -7.0493304    0.0286965   -0.9511861  
N   -7.6990533    0.0310605    0.2581411  
C   -7.5658955    0.0286148   -2.2503969  
C   -6.6606986    0.0241030   -3.2938409  
O   -7.1108670    0.0241633   -4.5823914  
C   -5.2679974    0.0190931   -3.0424922  
O   -4.4967428    0.0145586   -4.1863842  
C   -4.7576851    0.0188974   -1.7610452  
H   -4.5897688    0.0227317    1.3012947  
H   -8.6953102    0.0449721    0.3816733  
H   -8.6257730    0.0319672   -2.4645253  
H   -6.3261101    0.0203651   -5.1457800  
H   -3.5699274    0.0113765   -3.9283012  
C   -4.5402506    0.0321216    5.0848138  
C   -4.8883955    0.0307488    3.7722330  
C   -6.3313207    0.0341264    3.7194033  
C   -6.7986241    0.0376335    5.1188337  
N   -5.6640639    0.0358174    5.8970753  
C   -8.1028438    0.0418032    5.4939303  
C   -9.1137875    0.0426845    4.4496469  
O  -10.3149239    0.0462705    4.6853545  
C   -8.6416184    0.0387656    2.9607391  
O   -9.4836264    0.0391610    2.0728862  
C   -7.2078470    0.0346974    2.6812131  
H   -4.2116336    0.0275340    2.9364117  
H   -8.4243253    0.0444569    6.5261861  
H   -3.5572508    0.0305275    5.5270788  
H   -5.6539724    0.0389568    6.9005375  
C    0.8681109    0.7263879    2.2709268  
C    0.6127770    0.5096195    3.5869401  
C   -0.4920590   -0.4175482    3.6542670  
C   -0.8620974   -0.7254003    2.2596025  
N    0.0000000    0.0000000    1.4700000  
C   -1.8641242   -1.5660088    1.8976294  
C   -2.6293522   -2.2103885    2.9520183  
O   -3.5512764   -2.9839180    2.7283916  
C   -2.2549728   -1.8987399    4.4361073  
O   -2.8923672   -2.4351063    5.3323774  
C   -1.1543735   -0.9755647    4.7012123  
H    1.1382914    0.9492124    4.4159191  
H   -2.1192137   -1.7782617    0.8686553  
H   -0.9013378   -0.7652422    5.7314848  
H    1.6172880    1.3558399    1.8188057  
