58

C    5.6664810    0.0014065   -2.2647026  
C    4.7390840    0.0009613   -1.2727298  
C    5.4604950    0.0006395   -0.0219693  
C    6.8944812    0.0009652   -0.3690619  
N    6.9515096    0.0010262   -1.7437030  
C    7.9048599    0.0011991    0.5369403  
C    7.5567532    0.0008990    1.9480948  
O    8.3942798    0.0010140    2.8407597  
C    6.0443611    0.0002996    2.3385749  
O    5.7391068   -0.0002636    3.5235129  
C    5.0461778    0.0003722    1.2720468  
H    8.9502793    0.0015667    0.2612452  
H    4.0011829    0.0001603    1.5508120  
H    5.5192864    0.0017636   -3.3325147  
C    8.3941212    0.7311520   -3.6992470  
C    9.6403034    0.5167650   -4.1943659  
C   10.2945358   -0.4099709   -3.3010703  
C    9.3203566   -0.7201649   -2.2373293  
N    8.1892491    0.0036053   -2.5367312  
C    9.5575151   -1.5611239   -1.1989415  
C   10.8591822   -2.2034361   -1.1238915  
O   11.1695050   -2.9770962   -0.2275376  
C   11.9063078   -1.8892902   -2.2395279  
O   13.0056996   -2.4239029   -2.1867366  
C   11.5342752   -0.9659623   -3.3085976  
H   10.0540849    0.9576631   -5.0837522  
H    8.8290797   -1.7751098   -0.4292001  
H   12.2649149   -0.7539042   -4.0773114  
H    7.6082467    1.3595979   -4.0857012  
C    3.2798077    0.0005856   -1.4499661  
C    2.5571132    0.0005565   -2.5996564  
C    1.1637425    0.0001547   -2.2210366  
C    1.1336959   -0.0000200   -0.7459475  
N    2.4483509   -0.0001429   -0.3402730  
C    0.0000000    0.0000000    0.0000000  
C   -1.2757370   -0.0000187   -0.6964411  
O   -2.3524597   -0.0000640   -0.1142306  
C   -1.2676502   -0.0000874   -2.2584078  
O   -2.3355774   -0.0004102   -2.8557287  
C    0.0181551    0.0001758   -2.9516297  
H    2.9547342    0.0006074   -3.5989118  
H    0.0150776    0.0003317   -4.0331632  
H    2.7563626    0.0012823    0.6148051  
C    2.5128556    2.1077716    2.9199648  
C    1.9592212    1.6432552    4.0696553  
C    0.8915788    0.7479214    3.6910360  
C    0.8684491    0.7287414    2.2159470  
N    1.8754542    1.5738793    1.8102719  
C    0.0000000    0.0000000    1.4700000  
C   -0.9772830   -0.8200135    2.1664417  
O   -1.8021297   -1.5120829    1.5842315  
C   -0.9711318   -0.8147624    3.7284083  
O   -1.7894187   -1.5009653    4.3257297  
C    0.0140216    0.0115358    4.4216297  
H    2.2638494    1.8988021    5.0689105  
H    0.0117648    0.0094386    5.5031631  
H    3.3327358    2.7953732    2.7900019  
H    2.1123206    1.7707734    0.8551938  
