60

C    1.1243404    0.0100774   -0.7919005  
C    0.7474057    0.0235105   -2.1148545  
C   -0.6787398    0.0233965   -2.1414699  
C   -1.1201750    0.0097737   -0.7935548  
N    0.0000000    0.0000000    0.0000000  
C   -2.4730822    0.0061825   -0.4408239  
C   -3.3971968    0.0168391   -1.4675063  
O   -4.7313527    0.0142657   -1.1793469  
C   -2.9763674    0.0301236   -2.8186325  
O   -4.0166505    0.0392055   -3.7247622  
C   -1.6418590    0.0334002   -3.1673482  
H   -2.8160158   -0.0043253    0.5845962  
H   -5.1938839    0.0226913   -2.0274378  
H   -3.6464708    0.0479508   -4.6127341  
H   -1.3497503    0.0434828   -4.2109233  
H    2.1062461    0.0054418   -0.3505411  
C    2.8195323   -0.6690162   -3.3744983  
C    1.6628925    0.0340155   -3.2649301  
C    1.5103291    0.7867448   -4.4876151  
C    2.6812795    0.4622690   -5.3245026  
N    3.4361213   -0.4248113   -4.5922511  
C    2.9074701    0.9727100   -6.5614315  
C    1.9326953    1.9039838   -7.1046431  
O    2.0464983    2.4181550   -8.2096217  
C    0.6851447    2.2620757   -6.2356248  
O   -0.1421574    3.0452134   -6.6823094  
C    0.5507751    1.6474254   -4.9172917  
H   -0.3159918    1.9004524   -4.3219629  
H    3.2734676   -1.3448072   -2.6680010  
H    4.3006311   -0.8335805   -4.8965170  
C    5.2202228   -2.7461433   -7.3895308  
C    4.2899563   -1.8982198   -6.8923289  
C    4.6168143   -0.6030283   -7.4686472  
C    5.8044347   -0.8591766   -8.3115759  
N    6.1627216   -2.1136997   -8.2692389  
C    6.4434926    0.1855683   -9.0633742  
C    5.9196863    1.4295764   -8.9773155  
O    6.4139950    2.4985228   -9.6246585  
C    4.7216484    1.7197941   -8.1355075  
O    4.2989403    2.8754577   -8.1042077  
C    4.0840885    0.6311610   -7.3737200  
H    3.4817052   -2.1238245   -6.2178598  
H    7.3101969   -0.0300257   -9.6710352  
H    5.8319787    3.2358499   -9.3662835  
H    5.3232922   -3.8030864   -7.2018578  
C    0.8400945    0.7047457    2.2710304  
C    0.0000000    0.0000000    1.4700000  
C   -0.8844236   -0.7423113    2.3369512  
C   -0.4878984   -0.4098547    3.7186280  
N    0.5629682    0.4714286    3.6095011  
C   -1.0836927   -0.9095027    4.8308716  
C   -2.1891196   -1.8367527    4.6554461  
O   -2.7906899   -2.3413415    5.5944904  
C   -2.6257283   -2.2031529    3.2011665  
O   -3.5549479   -2.9829990    3.0410059  
C   -1.9068976   -1.5999348    2.0816745  
H   -0.7774656   -0.6525820    5.8354244  
H   -2.2155208   -1.8586617    1.0779135  
H    1.6384792    1.3747609    1.9961646  
H    1.0518368    0.8833920    4.3830260  
