60

C    3.3041272    0.0001176   -1.5420427  
C    2.5845371   -0.0004783   -0.3695852  
C    1.2040006   -0.0000009   -0.7283586  
C    1.1422374    0.0006035   -2.1454371  
N    2.4348638    0.0026108   -2.6077464  
C   -0.0655183    0.0008794   -2.8497913  
C   -1.2321770    0.0002322   -2.1101398  
O   -2.4392812    0.0001143   -2.7472517  
C   -1.1911210   -0.0000008   -0.6955262  
O   -2.4371530   -0.0002321   -0.1032856  
C    0.0000000    0.0000000    0.0000000  
H    3.0031533   -0.0000661    0.6222589  
H   -0.1193551    0.0014842   -3.9297465  
H   -3.1132988   -0.0000649   -2.0551781  
H   -2.3200286   -0.0004070    0.8516415  
H    4.3686622    0.0004069   -1.7024291  
C    3.8594204   -0.7175077   -4.5601988  
C    2.8310659   -0.0116220   -4.0232747  
C    2.2094024    0.7153300   -5.1048987  
C    2.9652785    0.3726183   -6.3247312  
N    3.9521592   -0.4993327   -5.9264123  
C    2.6888637    0.8568055   -7.5620111  
C    1.5725228    1.7770483   -7.7015487  
O    1.2438400    2.2678073   -8.7736603  
C    0.7583121    2.1540909   -6.4229925  
O   -0.1835068    2.9281700   -6.5280646  
C    1.1517637    1.5673729   -5.1443959  
H    3.2557692    0.5925696   -8.4438887  
H    0.5827554    1.8333881   -4.2639475  
H    4.5574573   -1.3785741   -4.0727306  
C    4.9501295   -1.1081275   -6.8176614  
C    5.9521032   -1.9737635   -6.5163347  
C    6.6430794   -2.2639915   -7.7504968  
C    5.9566249   -1.4909170   -8.8030777  
N    4.9396740   -0.8120966   -8.1722817  
C    6.3097115   -1.4941140  -10.1134298  
C    7.4412115   -2.3138273  -10.5138188  
O    7.8368680   -2.3839975  -11.6700345  
C    8.1827942   -3.1409925   -9.4157940  
O    9.1366390   -3.8350284   -9.7409928  
C    7.7094597   -3.0559495   -8.0364556  
H    6.1809189   -2.3645420   -5.5408608  
H    5.7928708   -0.9196314  -10.8695747  
H    8.2285006   -3.6315942   -7.2821655  
H    4.2911753   -0.1949505   -8.6257438  
C    2.4951002    2.0940188    2.9809380  
C    1.9440701    1.6314916    1.8291961  
C    0.8759964    0.7350050    2.2038498  
C    0.8497377    0.7130254    3.6788474  
N    1.8560616    1.5571714    4.0882609  
C   -0.0205033   -0.0168748    4.4215661  
C   -0.9962600   -0.8356168    3.7214979  
O   -1.8224391   -1.5286685    4.3006425  
C   -0.9864710   -0.8277881    2.1595606  
O   -1.8030528   -1.5133726    1.5592035  
C    0.0000000    0.0000000    1.4700000  
H    2.2509283    1.8888011    0.8310761  
H   -0.0229599   -0.0187323    5.5027230  
H    3.3143982    2.7817323    3.1139444  
H    2.0889452    1.7545833    5.0442112  
