58

C    8.3929498    0.7025185   -3.9058239  
C    8.8719481   -0.0001311   -2.8470892  
C   10.0183329   -0.7412372   -3.3176205  
C   10.1690420   -0.4103579   -4.7475145  
N    9.1526963    0.4689542   -5.0420343  
C   11.1396253   -0.9095029   -5.5540664  
C   12.0997777   -1.8345091   -4.9752685  
O   13.0106948   -2.3384827   -5.6191168  
C   11.9590146   -2.1992121   -3.4629912  
O   12.7613491   -2.9771648   -2.9646854  
C   10.8715117   -1.5967305   -2.6960459  
H   11.2325545   -0.6537636   -6.6004270  
H   10.7811023   -1.8542721   -1.6495171  
H    7.5487209    1.3711481   -3.9516680  
H    8.9893627    0.8795176   -5.9430377  
C    4.7795901    0.0008674   -1.0815733  
C    5.7862016    0.0008772   -1.9861798  
C    7.0047290    0.0013415   -1.1913902  
C    6.5351379    0.0016830    0.2107753  
N    5.2316823    0.0013266    0.2814336  
C    7.4495166    0.0021412    1.3193773  
C    8.7728605    0.0018640    1.0399208  
O    9.7375504    0.0022381    1.9755566  
C    9.2780077    0.0011456   -0.3647098  
O   10.4956961    0.0010514   -0.5448642  
C    8.3200392    0.0007295   -1.4846298  
H    5.7111077    0.0005129   -3.0601616  
H    7.0785145    0.0025903    2.3339055  
H   10.5714828    0.0018725    1.4718605  
C    3.3321168    0.0004716   -1.3379341  
C    2.6974177    0.0000118   -2.5332316  
C    1.2800432   -0.0002116   -2.2052842  
C    1.2395033    0.0000644   -0.7271298  
N    2.4394059    0.0005460   -0.2131041  
C    0.0000000    0.0000000    0.0000000  
C   -1.1468704    0.0000635   -0.7169542  
O   -2.3742206    0.0000074   -0.1695488  
C   -1.1388774    0.0001608   -2.2096352  
O   -2.2206238    0.0000906   -2.7970409  
C    0.1454514    0.0001818   -2.9324241  
H    3.1367978   -0.0000649   -3.5160956  
H   -2.9844350    0.0001027   -0.9290164  
H    0.1083567    0.0003684   -4.0135594  
C    0.0000000    0.0000000    1.4700000  
C    1.0662921    0.0000102    2.3034270  
C    0.4961870   -0.0000064    3.6418889  
C   -0.9663858    0.0000850    3.4240247  
N   -1.2632773    0.0000084    2.1528658  
C   -1.8985362    0.0000517    4.5177257  
C   -1.3925775   -0.0004564    5.7720543  
O   -2.1456383   -0.0005410    6.8851312  
C    0.0786232   -0.0009323    6.0245000  
O    0.4683759   -0.0012588    7.1921102  
C    1.0143166   -0.0008442    4.8859032  
H    2.1107198   -0.0000632    2.0421868  
H   -2.9622183    0.0003270    4.3293377  
H   -1.5042274   -0.0009692    7.6184419  
H    2.0724152   -0.0013148    5.1109744  
