58

C    0.0072365   -0.7172700   -5.1312248  
C    0.1641333   -0.4988117   -6.4622900  
C   -0.8688542    0.4276950   -6.8614858  
C   -1.6459761    0.7333178   -5.6451523  
N   -1.0641729    0.0073888   -4.6315341  
C   -2.7115371    1.5727277   -5.6042187  
C   -3.1204207    2.2180775   -6.8406948  
O   -4.0675155    2.9906594   -6.9072573  
C   -2.3119544    1.9087878   -8.1408974  
O   -2.6470496    2.4459876   -9.1879827  
C   -1.1818733    0.9867416   -8.0596605  
H    0.9174093   -0.9368705   -7.0926027  
H   -3.2678034    1.7833478   -4.7013802  
H    0.5840379   -1.3468501   -4.4733345  
C    1.1319245    0.0015676   -0.8009266  
C    0.7969918    0.0034958   -2.1169401  
C   -0.6453336    0.0035698   -2.1842670  
C   -1.1266830    0.0015411   -0.7896029  
N    0.0000000    0.0000000    0.0000000  
C   -2.4346131    0.0013918   -0.4276298  
C   -3.4350111    0.0031343   -1.4820188  
O   -4.6384610    0.0030885   -1.2583924  
C   -2.9478953    0.0050447   -2.9661079  
O   -3.7809377    0.0062145   -3.8623779  
C   -1.5113819    0.0053060   -3.2312128  
H    1.4821243    0.0045434   -2.9459189  
H   -2.7664570    0.0000181    0.6013443  
H    2.1104314    0.0009432   -0.3488054  
C    0.0623237   -0.5400412   -9.6594325  
C    0.7158148   -0.4714005  -10.8478402  
C    0.6508474    0.9031198  -11.2852272  
C   -0.0994158    1.6348889  -10.2467618  
N   -0.4279348    0.7030958   -9.2893038  
C   -0.3754788    2.9629161  -10.2896386  
C    0.0977339    3.7221714  -11.4351235  
O   -0.1000719    4.9230152  -11.5660699  
C    0.8941587    2.9675778  -12.5469243  
O    1.2973375    3.5962383  -13.5161999  
C    1.1295113    1.5345678  -12.3889902  
H    1.1891750   -1.2902431  -11.3597401  
H   -0.9273047    3.4804265   -9.5172522  
H    1.6819444    1.0195446  -13.1631291  
H   -0.1025504   -1.3942331   -9.0229872  
C    2.3971438    2.0127888    3.1728260  
C    1.9431056    1.6308205    1.9564670  
C    0.8496017    0.7127664    2.2356185  
C    0.7794028    0.6545384    3.7115134  
N    1.6840587    1.4146091    4.2663826  
C   -0.1885723   -0.1578550    4.3957118  
C   -1.0476298   -0.8789867    3.6398520  
O   -2.0015663   -1.6796266    4.1448486  
C   -1.0022026   -0.8410666    2.1483229  
O   -1.8147390   -1.5232959    1.5241687  
C    0.0000000    0.0000000    1.4700000  
H    2.3054237    1.9346118    0.9892483  
H   -0.2170646   -0.1815267    5.4753125  
H   -2.4487139   -2.0549881    3.3649027  
H    3.2048689    2.6911772    3.3971983  
