60

C   -2.4230947    2.2463020   -1.5420426  
C   -1.8949929    1.7575085   -0.3695846  
C   -0.8829291    0.8185687   -0.7283585  
C   -0.8380475    0.7761344   -2.1454372  
N   -1.7873335    1.6534847   -2.6077461  
C    0.0474476   -0.0451884   -2.8497921  
C    0.9034335   -0.8378945   -2.1101402  
O    1.7887189   -1.6584859   -2.7472525  
C    0.8734845   -0.8098110   -0.6955265  
O    1.7873937   -1.6567849   -0.1032869  
C    0.0000000    0.0000000    0.0000000  
H   -2.2022566    2.0418121    0.6222589  
H    0.0865169   -0.0822342   -3.9297471  
H    2.2831179   -2.1166009   -2.0551794  
H    1.7016219   -1.5770266    0.8516404  
H   -3.2039467    2.9698385   -1.7024286  
C   -2.7165354    5.3825691   -4.7819000  
C   -2.4170994    4.4650468   -3.8266170  
C   -2.3348036    3.1828675   -4.4854633  
C   -2.6128049    3.4303926   -5.9131316  
N   -2.8363602    4.7831868   -6.0265378  
C   -2.6289749    2.4693657   -6.8711872  
C   -2.3544591    1.0997966   -6.4693694  
O   -2.3458145    0.1633717   -7.2576175  
C   -2.0576948    0.8146114   -4.9625829  
O   -1.8254650   -0.3345958   -4.6123642  
C   -2.0682040    1.9332898   -4.0232747  
H   -2.2707703    4.6637347   -2.7798483  
H   -2.8350575    2.6721947   -7.9129647  
H   -3.0512518    5.2616922   -6.8820501  
C   -2.8208363    7.5448667   -3.4582862  
C   -3.0568273    8.8662441   -3.6640653  
C   -3.3199359    9.0323226   -5.0740392  
C   -3.2171766    7.6897548   -5.6771507  
N   -2.9121340    6.8330280   -4.6447469  
C   -3.3992696    7.4229862   -6.9952486  
C   -3.7174949    8.5322241   -7.8789102  
O   -3.8996925    8.3947293   -9.0814909  
C   -3.8310223    9.9626462   -7.2618135  
O   -4.0981684   10.9043892   -7.9959900  
C   -3.6134979   10.1249345   -5.8264741  
H   -3.0474615    9.6367105   -2.9137930  
H   -3.3194712    6.4308214   -7.4173277  
H   -3.6941195   11.1185506   -5.4070113  
H   -2.5876956    7.0312384   -2.5397433  
C    0.8400945    0.7047457    2.2710304  
C    0.0000000    0.0000000    1.4700000  
C   -0.8844236   -0.7423113    2.3369512  
C   -0.4878984   -0.4098547    3.7186280  
N    0.5629682    0.4714286    3.6095011  
C   -1.0836927   -0.9095027    4.8308716  
C   -2.1891196   -1.8367527    4.6554461  
O   -2.7906899   -2.3413415    5.5944904  
C   -2.6257283   -2.2031529    3.2011665  
O   -3.5549479   -2.9829990    3.0410059  
C   -1.9068976   -1.5999348    2.0816745  
H   -0.7774656   -0.6525820    5.8354244  
H   -2.2155208   -1.8586617    1.0779135  
H    1.6384792    1.3747609    1.9961646  
H    1.0518368    0.8833920    4.3830260  
