58

C   -5.7424043    0.7217326    1.1030198  
C   -6.0428764    0.5042243    2.4093440  
C   -7.1500605   -0.4221419    2.4380624  
C   -7.4722864   -0.7287177    1.0313031  
N   -6.5830804   -0.0034181    0.2722612  
C   -8.4619355   -1.5682984    0.6345640  
C   -9.2633485   -2.2128401    1.6616177  
O  -10.1776369   -2.9855018    1.4059396  
C   -8.9398473   -1.9025347    3.1579005  
O   -9.6079986   -2.4390488    4.0313919  
C   -7.8482999   -0.9803943    3.4612698  
H   -5.5457702    0.9428234    3.2561790  
H   -8.6817491   -1.7796229   -0.4027084  
H   -7.6305854   -0.7709990    4.4997680  
H   -4.9776967    1.3509304    0.6773180  
C   -3.3460096   -0.0004265   -2.7913646  
C   -3.9807084   -0.0008719   -1.5960668  
C   -5.3980827   -0.0010995   -1.9240138  
C   -5.4386236   -0.0006186   -3.4021678  
N   -4.2387207   -0.0003035   -3.9161945  
C   -6.6781270   -0.0007177   -4.1292973  
C   -7.8249971   -0.0016611   -3.4123433  
O   -9.0523473   -0.0018575   -3.9597482  
C   -7.8170030   -0.0025372   -1.9196622  
O   -8.8987492   -0.0032501   -1.3322566  
C   -6.5326742   -0.0023725   -1.1968739  
H   -3.5413277   -0.0011173   -0.6132035  
H   -6.6781274   -0.0001516   -5.2095336  
H   -9.6625614   -0.0026186   -3.2002807  
C    0.0000000    0.0000000    0.0000000  
C    1.0662919   -0.0000103   -0.8334269  
C    0.4961869    0.0000064   -2.1718889  
C   -0.9663859   -0.0000850   -1.9540246  
N   -1.2632774   -0.0000084   -0.6828657  
C   -1.8985363   -0.0000518   -3.0477257  
C   -1.3925778    0.0004564   -4.3020545  
O   -2.1456384    0.0005409   -5.4151311  
C    0.0786230    0.0009323   -4.5544998  
O    0.4683758    0.0012588   -5.7221098  
C    1.0143164    0.0008442   -3.4159030  
H    2.1107195    0.0000633   -0.5721867  
H   -1.5042275    0.0009691   -6.1484418  
H    2.0724152    0.0013148   -3.6409744  
C    1.0965515   -0.0001358    2.2710304  
C    0.0000000    0.0000000    1.4700000  
C   -1.1546562   -0.0001469    2.3369512  
C   -0.6372014   -0.0003519    3.7186280  
N    0.7342871   -0.0007337    3.6095011  
C   -1.4147739   -0.0001353    4.8308716  
C   -2.8576048    0.0001048    4.6554461  
O   -3.6427778    0.0002493    5.5944904  
C   -3.4275839    0.0000726    3.2011665  
O   -4.6406829   -0.0000333    3.0410059  
C   -2.4891866    0.0001091    2.0816745  
H   -1.0150448   -0.0001615    5.8354244  
H   -2.8919121    0.0002919    1.0779135  
H    2.1388271   -0.0000662    1.9961646  
H    1.3735872    0.0006099    4.3830260  
