58

C   -0.0671592    0.0182948   -8.8430377  
C    0.7360140   -0.6579289   -9.7042629  
C    0.3125698   -0.3062308  -11.0391188  
C   -0.8111742    0.6371062  -10.8838587  
N   -0.9915966    0.7916163   -9.5286974  
C   -1.4881695    1.2028938  -11.9150072  
C   -1.0831409    0.8596848  -13.2680383  
O   -1.6302365    1.3164440  -14.2632064  
C    0.1043165   -0.1375247  -13.4559837  
O    0.4540553   -0.4342022  -14.5904119  
C    0.7562304   -0.6815148  -12.2673138  
H    1.5339126   -1.3269216   -9.4351549  
H   -2.3095895    1.8926619  -11.7793618  
H    1.5777336   -1.3711565  -12.4060589  
H   -1.6863486    1.3776206   -9.1032962  
C    2.4602721   -2.0944455   -5.9392888  
C    1.9124732   -1.6318086   -4.7860506  
C    0.8432456   -0.7354855   -5.1577935  
C    0.8127886   -0.7137216   -6.6327140  
N    1.8180307   -1.5578236   -7.0448669  
C   -0.0596369    0.0159820   -7.3730587  
C   -1.0334825    0.8347249   -6.6703356  
O   -1.8613772    1.5276083   -7.2472273  
C   -1.0192492    0.8271228   -5.1084314  
O   -1.8341905    1.5127102   -4.5058520  
C   -0.0307352   -0.0004646   -4.4215603  
H    2.2221962   -1.8889424   -3.7887704  
H    3.2792594   -2.7820942   -6.0745265  
H    2.0482142   -1.7553496   -8.0014469  
C    3.2573670   -0.0002920   -1.5109380  
C    2.5379468   -0.0001709   -0.3591961  
C    1.1435043    0.0000332   -0.7338500  
C    1.1092609   -0.0000082   -2.2088477  
N    2.4227562    0.0001909   -2.6182613  
C   -0.0265532   -0.0002522   -2.9515663  
C   -1.3003035   -0.0002639   -2.2514981  
O   -2.3786784   -0.0004131   -2.8306429  
C   -1.2877725    0.0000312   -0.6895608  
O   -2.3539958    0.0003307   -0.0892036  
C    0.0000000    0.0000000    0.0000000  
H    2.9384091   -0.0000369    0.6389239  
H    4.3270394   -0.0004765   -1.6439446  
H    2.7280494   -0.0013406   -3.5742113  
C    2.5528530    2.1414826    2.8079335  
C    2.0663498    1.7338582    4.0032312  
C    0.9804344    0.8229586    3.6752840  
C    0.9495562    0.7966882    2.1971295  
N    1.8690446    1.5676019    1.6831036  
C    0.0000000    0.0000000    1.4700000  
C   -0.8785127   -0.7372425    2.1869543  
O   -1.8187535   -1.5261249    1.6395491  
C   -0.8723269   -0.7321790    3.6796354  
O   -1.7010379   -1.4274584    4.2670412  
C    0.1115397    0.0933559    4.4024240  
H    2.4028853    2.0163452    4.9860947  
H   -2.2861435   -1.9184361    2.3990168  
H    0.0832434    0.0693689    5.4835595  
H    3.3664920    2.8238276    2.6198634  
