60

C    1.1243409    0.0099920   -0.7919010  
C    0.7474074    0.0234540   -2.1148551  
C   -0.6787386    0.0234487   -2.1414701  
C   -1.1201748    0.0098591   -0.7935547  
N    0.0000000    0.0000000    0.0000000  
C   -2.4730816    0.0063711   -0.4408240  
C   -3.3971960    0.0170983   -1.4675056  
O   -4.7313520    0.0146263   -1.1793466  
C   -2.9763654    0.0303508   -2.8186318  
O   -4.0166481    0.0395118   -3.7247620  
C   -1.6418567    0.0335258   -3.1673482  
H    1.4178710    0.0310964   -2.9571212  
H   -2.8160167   -0.0041105    0.5845963  
H   -5.1938821    0.0230870   -2.0274377  
H   -3.6464681    0.0482293   -4.6127339  
H    2.1062465    0.0052813   -0.3505407  
C    1.5648140   -2.0538521   -5.3222154  
C    1.3416075   -1.5771838   -6.5740305  
C    0.2115233   -0.6825126   -6.4885403  
C   -0.2083430   -0.6769645   -5.0741599  
N    0.6519551   -1.5285585   -4.4202758  
C   -1.2456335    0.0471722   -4.5828767  
C   -1.9989392    0.8762618   -5.5089850  
O   -2.9501118    1.5651299   -5.1639732  
C   -1.5720047    0.8854945   -7.0114648  
O   -2.1989302    1.5794286   -7.8005659  
C   -0.4365512    0.0629997   -7.4214650  
H    1.9042726   -1.8242681   -7.4566242  
H    2.3192453   -2.7448504   -4.9827386  
H    0.6226025   -1.7349519   -3.4386511  
C    0.9073189   -3.1127109  -10.1792363  
C    0.4785746   -2.4168550   -9.0947845  
C    0.3449799   -1.0388209   -9.5046728  
C    0.7337991   -0.9885302  -10.9270242  
N    1.0639521   -2.2779439  -11.2753071  
C    0.7416511    0.1387615  -11.6825736  
C    0.3405879    1.3857872  -11.0528043  
O    0.3144087    2.4546702  -11.6487111  
C   -0.0748931    1.3559549   -9.5473838  
O   -0.4141582    2.3996995   -9.0063134  
C   -0.0432833    0.0795047   -8.8377868  
H    0.2788820   -2.8225711   -8.1190121  
H    1.0302280    0.1539043  -12.7244015  
H    1.1222421   -4.1650814  -10.2698706  
H    1.3694785   -2.5682449  -12.1860360  
C    0.8681109    0.7263879    2.2709268  
C    0.6127770    0.5096195    3.5869401  
C   -0.4920590   -0.4175482    3.6542670  
C   -0.8620974   -0.7254003    2.2596025  
N    0.0000000    0.0000000    1.4700000  
C   -1.8641242   -1.5660088    1.8976294  
C   -2.6293522   -2.2103885    2.9520183  
O   -3.5512764   -2.9839180    2.7283916  
C   -2.2549728   -1.8987399    4.4361073  
O   -2.8923672   -2.4351063    5.3323774  
C   -1.1543735   -0.9755647    4.7012123  
H    1.1382914    0.9492124    4.4159191  
H   -2.1192137   -1.7782617    0.8686553  
H   -0.9013378   -0.7652422    5.7314848  
H    1.6172880    1.3558399    1.8188057  
