62

C   -3.3041007    0.0133623   -1.5420424  
C   -2.5845140    0.0110222   -0.3695848  
C   -1.2039907    0.0049127   -0.7283589  
C   -1.1422316    0.0040563   -2.1454368  
N   -2.4348549    0.0073227   -2.6077461  
C    0.0655133   -0.0011470   -2.8497919  
C    1.2321649   -0.0052594   -2.1101400  
O    2.4392600   -0.0100663   -2.7472527  
C    1.1911103   -0.0048587   -0.6955268  
O    2.4371330   -0.0097109   -0.1032865  
C    0.0000000    0.0000000    0.0000000  
H   -3.0031281    0.0123181    0.6222588  
H   -2.7054122    0.0181474   -3.5745255  
H    0.1193471   -0.0019713   -3.9297468  
H    3.1132732   -0.0126366   -2.0551793  
H    2.3200112   -0.0090580    0.8516404  
C   -6.7747393    0.0313099    1.2764688  
C   -5.5081714    0.0260265    0.7395840  
C   -5.6572754    0.0240909   -0.6789945  
C   -7.0493304    0.0286965   -0.9511861  
N   -7.6990533    0.0310605    0.2581411  
C   -7.5658955    0.0286148   -2.2503969  
C   -6.6606986    0.0241030   -3.2938409  
O   -7.1108670    0.0241633   -4.5823914  
C   -5.2679974    0.0190931   -3.0424922  
O   -4.4967428    0.0145586   -4.1863842  
C   -4.7576851    0.0188974   -1.7610452  
H   -4.5897688    0.0227317    1.3012947  
H   -8.6953102    0.0449721    0.3816733  
H   -8.6257730    0.0319672   -2.4645253  
H   -6.3261101    0.0203651   -5.1457800  
H   -3.5699274    0.0113765   -3.9283012  
C   -6.4331572    0.0346044    3.7909134  
C   -7.2078470    0.0346974    2.6812131  
C   -8.5751097    0.0390554    3.1782777  
C   -8.4364624    0.0411027    4.6504723  
N   -7.1831741    0.0385899    5.0155089  
C   -9.5788521    0.0455365    5.5222594  
C  -10.8040544    0.0482101    4.9493669  
O  -11.9561311    0.0524152    5.6412795  
C  -10.9767669    0.0466167    3.4666907  
O  -12.1216467    0.0491075    3.0145135  
C   -9.7893562    0.0420109    2.5937878  
H   -9.4481199    0.0467428    6.5945547  
H  -12.6537693    0.0534771    4.9612415  
H   -9.9570189    0.0411006    1.5250885  
H   -5.3563188    0.0319469    3.8490936  
C    2.4951002    2.0940188    2.9809380  
C    1.9440701    1.6314916    1.8291961  
C    0.8759964    0.7350050    2.2038498  
C    0.8497377    0.7130254    3.6788474  
N    1.8560616    1.5571714    4.0882609  
C   -0.0205033   -0.0168748    4.4215661  
C   -0.9962600   -0.8356168    3.7214979  
O   -1.8224391   -1.5286685    4.3006425  
C   -0.9864710   -0.8277881    2.1595606  
O   -1.8030528   -1.5133726    1.5592035  
C    0.0000000    0.0000000    1.4700000  
H    2.2509283    1.8888011    0.8310761  
H   -0.0229599   -0.0187323    5.5027230  
H    3.3143982    2.7817323    3.1139444  
H    2.0889452    1.7545833    5.0442112  
