64

C    1.9074116   -2.1157068   -5.2171214  
C    1.7366767   -1.6153236   -6.4871348  
C    0.6103641   -0.7412456   -6.4423309  
C    0.1310752   -0.7480686   -5.1073547  
N    0.9400194   -1.5942803   -4.3903106  
C   -0.9736297    0.0040464   -4.6965763  
C   -1.6058298    0.7773678   -5.6507645  
O   -2.6892500    1.5315498   -5.3037413  
C   -1.1427628    0.7971174   -6.9879237  
O   -1.8787348    1.6162792   -7.8189839  
C   -0.0531708    0.0551805   -7.3939358  
H    0.8493706   -1.7918998   -3.4101523  
H   -2.9736278    1.9867686   -6.1069657  
H   -1.5003142    1.5722375   -8.7024221  
H    0.2783222    0.0903615   -8.4251255  
H    2.6418356   -2.8044017   -4.8359664  
C    3.5424748   -5.4145947   -7.8522404  
C    4.1554208   -4.9222243   -8.9811044  
C    3.8573752   -3.5286680   -9.0425053  
C    3.0524895   -3.2251050   -7.9147047  
N    2.8788233   -4.3929109   -7.2142140  
C    2.5713807   -1.9386689   -7.6531613  
C    2.9092013   -0.9404328   -8.5462337  
O    2.4664295    0.3338713   -8.3385918  
C    3.7109644   -1.2236677   -9.6775042  
O    3.9597426   -0.1235481  -10.4719784  
C    4.1857148   -2.4925903   -9.9362948  
H    4.7439433   -5.4970088   -9.6755520  
H    2.3595742   -4.4855003   -6.3599372  
H    2.8109286    0.8649420   -9.0683510  
H    4.5071408   -0.4009979  -11.2129119  
H    4.7976316   -2.6792685  -10.8110458  
H    3.5249902   -6.4140185   -7.4524839  
C    1.1188642    0.0008222   -0.8003808  
C    0.0000000    0.0000000    0.0000000  
C   -1.1323862    0.0008899   -0.8673528  
C   -0.6382663    0.0019679   -2.1969280  
N    0.7324016    0.0038481   -2.1202242  
C   -1.4770914    0.0027318   -3.3154808  
C   -2.8395473    0.0020945   -3.0876857  
O   -3.7039201    0.0024425   -4.1440349  
C   -3.3517868    0.0013931   -1.7684331  
O   -4.7300497    0.0012366   -1.7073121  
C   -2.5248543    0.0009123   -0.6644817  
H    1.3576314   -0.0056167   -2.9057046  
H   -4.5940032    0.0021826   -3.7685128  
H   -4.9934602    0.0007259   -0.7819913  
H   -2.9462577    0.0005603    0.3339659  
H    2.1619895    0.0009355   -0.5342068  
C    0.8681109    0.7263879    2.2709268  
C    0.6127770    0.5096195    3.5869401  
C   -0.4920590   -0.4175482    3.6542670  
C   -0.8620974   -0.7254003    2.2596025  
N    0.0000000    0.0000000    1.4700000  
C   -1.8641242   -1.5660088    1.8976294  
C   -2.6293522   -2.2103885    2.9520183  
O   -3.5512764   -2.9839180    2.7283916  
C   -2.2549728   -1.8987399    4.4361073  
O   -2.8923672   -2.4351063    5.3323774  
C   -1.1543735   -0.9755647    4.7012123  
H    1.1382914    0.9492124    4.4159191  
H   -2.1192137   -1.7782617    0.8686553  
H   -0.9013378   -0.7652422    5.7314848  
H    1.6172880    1.3558399    1.8188057  
