60

C   -3.9842536    0.7274601   -1.9451207  
C   -5.3215327    0.5112358   -2.0400276  
C   -5.5219229   -0.4153213   -3.1291426  
C   -4.1821618   -0.7234082   -3.6647868  
N   -3.2941075    0.0012873   -2.9038235  
C   -3.9439561   -1.5635939   -4.7035602  
C   -5.0831558   -2.2072385   -5.3363964  
O   -4.9726034   -2.9803452   -6.2789384  
C   -6.5111638   -1.8953296   -4.7856590  
O   -7.4779449   -2.4310778   -5.3106044  
C   -6.6412925   -0.9726598   -3.6606704  
H   -6.0809397    0.9508052   -1.4181812  
H   -2.9533232   -1.7760295   -5.0809560  
H   -7.6334626   -0.7621530   -3.2851582  
H   -3.4448691    1.3563721   -1.2556109  
C    0.0000000    0.0000000    0.0000000  
C    1.0541688   -0.0001722   -0.8560392  
C    0.5103135   -0.0000454   -2.1935954  
C   -0.9576375    0.0002459   -2.0455728  
N   -1.2018462   -0.0001392   -0.6915966  
C   -1.8348315    0.0008316   -3.0810604  
C   -1.2972851    0.0009737   -4.4314603  
O   -2.0050681    0.0014265   -5.4301316  
C    0.2542617    0.0004185   -4.6117570  
O    0.7184664    0.0002257   -5.7439119  
C    1.0974549    0.0000874   -3.4189129  
H    2.0940751   -0.0005482   -0.5817983  
H   -2.1128195    0.0014911   -0.2706785  
C    2.5562209   -0.0001551   -3.6003007  
C    3.5357955   -0.0006719   -2.6598172  
C    4.7960222   -0.0006608   -3.3645613  
C    4.4679959   -0.0000618   -4.8030288  
N    3.0942332   -0.0001764   -4.8783002  
C    5.3873307    0.0005225   -5.8012910  
C    6.7937398    0.0003379   -5.4344827  
O    7.6974440    0.0007626   -6.2600850  
C    7.1641087   -0.0005465   -3.9170402  
O    8.3448907   -0.0010157   -3.5960830  
C    6.0844243   -0.0008436   -2.9331024  
H    3.3919669   -0.0012035   -1.5940186  
H    5.1255381    0.0010862   -6.8502781  
H    6.3492930   -0.0012511   -1.8844993  
H    2.5641247    0.0016992   -5.7303733  
C    1.1188642   -0.0008217    2.2703808  
C    0.0000000    0.0000000    1.4700000  
C   -1.1323862   -0.0008904    2.3373528  
C   -0.6382662   -0.0019682    3.6669281  
N    0.7324016   -0.0038477    3.5902241  
C   -1.4770914   -0.0027325    4.7854808  
C   -2.8395474   -0.0020958    4.5576857  
O   -3.7039201   -0.0024443    5.6140350  
C   -3.3517868   -0.0013946    3.2384331  
O   -4.7300496   -0.0012389    3.1773122  
C   -2.5248543   -0.0009135    2.1344818  
H    1.3576314    0.0056174    4.3757045  
H   -1.1067570   -0.0036993    5.8013813  
H   -4.5940033   -0.0021850    5.2385129  
H   -4.9934601   -0.0007286    2.2519915  
H   -2.9462578   -0.0005617    1.1360343  
H    2.1619896   -0.0009344    2.0042067  
