58

C    3.2798083    0.0005856   -1.4499654  
C    2.5571141    0.0005565   -2.5996560  
C    1.1637428    0.0001547   -2.2210363  
C    1.1336961   -0.0000201   -0.7459473  
N    2.4483511   -0.0001429   -0.3402725  
C    0.0000000    0.0000000    0.0000000  
C   -1.2757382   -0.0000187   -0.6964417  
O   -2.3524603   -0.0000641   -0.1142312  
C   -1.2676502   -0.0000875   -2.2584083  
O   -2.3355768   -0.0004103   -2.8557295  
C    0.0181556    0.0001758   -2.9516298  
H    2.9547345    0.0006074   -3.5989111  
H    0.0150785    0.0003317   -4.0331631  
H    2.7563627    0.0012824    0.6148057  
C    6.4690079    0.0019757   -4.4192242  
C    7.5790604    0.0025232   -3.6450397  
C    7.0826141    0.0021762   -2.2775453  
C    5.6103551    0.0015083   -2.4155207  
N    5.2447503    0.0013072   -3.6686457  
C    4.7390843    0.0009614   -1.2727288  
C    5.3125315    0.0006874   -0.0477826  
O    4.6211394    0.0001824    1.1046137  
C    6.7952870    0.0009745    0.1242535  
O    7.2479823    0.0008235    1.2689314  
C    7.6676530    0.0015792   -1.0635604  
H    8.6077290    0.0030020   -3.9627113  
H    5.3014934    0.0000717    1.8019445  
H    6.4103405    0.0020017   -5.4960397  
C   10.9405630    2.1108020   -3.0939729  
C   11.9909524    1.6460934   -2.3695400  
C   11.4520209    0.7502044   -1.3736626  
C    9.9910809    0.7309080   -1.5787786  
N    9.7457767    1.5765152   -2.6359749  
C    9.1199933    0.0016838   -0.8363884  
C    9.6571607   -0.8187636    0.2363895  
O    8.9545762   -1.5112826    0.9610223  
C   11.2013130   -0.8133983    0.4716991  
O   11.6651025   -1.4999636    1.3721370  
C   12.0383293    0.0134367   -0.3940948  
H   13.0252435    1.9018621   -2.5159628  
H   13.1065215    0.0114154   -0.2247272  
H   10.9387636    2.7988000   -3.9237591  
H    8.8387483    1.7734586   -3.0174978  
C    2.5128556    2.1077716    2.9199648  
C    1.9592212    1.6432552    4.0696553  
C    0.8915788    0.7479214    3.6910360  
C    0.8684491    0.7287414    2.2159470  
N    1.8754542    1.5738793    1.8102719  
C    0.0000000    0.0000000    1.4700000  
C   -0.9772830   -0.8200135    2.1664417  
O   -1.8021297   -1.5120829    1.5842315  
C   -0.9711318   -0.8147624    3.7284083  
O   -1.7894187   -1.5009653    4.3257297  
C    0.0140216    0.0115358    4.4216297  
H    2.2638494    1.8988021    5.0689105  
H    0.0117648    0.0094386    5.5031631  
H    3.3327358    2.7953732    2.7900019  
H    2.1123206    1.7707734    0.8551938  
