58

C   -2.8696924   -0.0395364   -4.0185831  
C   -4.1342080   -0.0565049   -4.5133425  
C   -4.0230872   -0.0529172   -5.9529518  
C   -2.5798306   -0.0323489   -6.2585309  
N   -1.9353303   -0.0246619   -5.0430273  
C   -2.0593051   -0.0237095   -7.5117999  
C   -2.9821249   -0.0352261   -8.6346567  
O   -2.6117650   -0.0287057   -9.8013143  
C   -4.5148284   -0.0567871   -8.3343896  
O   -5.3014021   -0.0663191   -9.2716578  
C   -4.9550946   -0.0647543   -6.9415671  
H   -5.0412955   -0.0698131   -3.9357371  
H   -0.9973520   -0.0087296   -7.7141391  
H   -0.9395568   -0.0123987   -4.9192025  
C   -3.2570294   -0.0469108   -1.5109388  
C   -2.5376829   -0.0366067   -0.3591965  
C   -1.1433837   -0.0166038   -0.7338501  
C   -1.1091445   -0.0160661   -2.2088482  
N   -2.4224991   -0.0352992   -2.6182617  
C    0.0265469    0.0006373   -2.9515663  
C    1.3001631    0.0191068   -2.2514981  
O    2.3784223    0.0348830   -2.8306429  
C    1.2876377    0.0186301   -0.6895611  
O    2.3537530    0.0337814   -0.0892041  
C    0.0000000    0.0000000    0.0000000  
H   -2.9381013   -0.0425441    0.6389230  
H    0.0296205    0.0008380   -4.0327235  
H   -4.3265918   -0.0622271   -1.6439453  
C   -7.3909942    2.0052753   -3.9308014  
C   -8.6164211    1.5239654   -4.2635845  
C   -8.4286095    0.6325960   -5.3838630  
C   -6.9829462    0.6340437   -5.6785596  
N   -6.4104599    1.4861240   -4.7625311  
C   -6.3997519   -0.0853397   -6.6705660  
C   -7.2528647   -0.9163303   -7.5037458  
O   -6.8230600   -1.6012800   -8.4226654  
C   -8.7868425   -0.9329448   -7.2097378  
O   -9.5151070   -1.6285375   -7.9047503  
C   -9.2980728   -0.1151199   -6.1126241  
H   -9.5458699    1.7659007   -3.7796363  
H  -10.3613472   -0.1323654   -5.9154590  
H   -7.1217569    2.6957240   -3.1480617  
H   -5.4309385    1.6966897   -4.7055484  
C    2.5528530    2.1414826    2.8079335  
C    2.0663498    1.7338582    4.0032312  
C    0.9804344    0.8229586    3.6752840  
C    0.9495562    0.7966882    2.1971295  
N    1.8690446    1.5676019    1.6831036  
C    0.0000000    0.0000000    1.4700000  
C   -0.8785127   -0.7372425    2.1869543  
O   -1.8187535   -1.5261249    1.6395491  
C   -0.8723269   -0.7321790    3.6796354  
O   -1.7010379   -1.4274584    4.2670412  
C    0.1115397    0.0933559    4.4024240  
H    2.4028853    2.0163452    4.9860947  
H   -2.2861435   -1.9184361    2.3990168  
H    0.0832434    0.0693689    5.4835595  
H    3.3664920    2.8238276    2.6198634  
