64

C    2.3020056   -2.1258164   -5.9826648  
C    1.8093619   -1.6631472   -4.7844546  
C    0.7354062   -0.7757529   -5.0906404  
C    0.6179773   -0.7364002   -6.5036468  
N    1.5853771   -1.5658594   -7.0142853  
C   -0.3411005    0.0396027   -7.1615059  
C   -1.1974273    0.7893054   -6.3786729  
O   -2.1529117    1.5646263   -6.9693846  
C   -1.0957281    0.7635435   -4.9673575  
O   -2.0198644    1.5644922   -4.3287676  
C   -0.1496415   -0.0015615   -4.3176961  
H    2.1793384   -1.9313020   -3.8096709  
H    1.7380675   -1.7477618   -7.9897736  
H   -0.4356787    0.0740527   -8.2381070  
H   -2.6343338    1.9980538   -6.2526986  
H   -1.8828076    1.4896276   -3.3794446  
C    4.1859227   -3.6751056   -5.3066128  
C    3.4036594   -3.0598227   -6.2563273  
C    3.8701367   -3.5015724   -7.5298489  
C    4.9475812   -4.3929465   -7.2921697  
N    5.1141544   -4.4743016   -5.9319295  
C    5.6499614   -5.0225702   -8.3241695  
C    5.2573218   -4.7475788   -9.6196968  
O    5.9086644   -5.3355465  -10.6651919  
C    4.1849090   -3.8607361   -9.8771034  
O    3.9149178   -3.6897603  -11.2191976  
C    3.4917193   -3.2390314   -8.8595087  
H    5.7983907   -5.0406289   -5.4638753  
H    6.4721336   -5.7028487   -8.1496508  
H    5.4823581   -5.0117331  -11.4693512  
H    3.1783056   -3.0769452  -11.3055931  
H    2.6747187   -2.5644706   -9.0874476  
H    4.1561153   -3.6059982   -4.2326970  
C    3.3003543    0.0005276   -1.4738987  
C    2.5232814    0.0003497   -2.6090747  
C    1.1623200   -0.0001320   -2.1820103  
C    1.1711883    0.0000582   -0.7636140  
N    2.4852300   -0.0014919   -0.3662360  
C    0.0000000    0.0000000    0.0000000  
C   -1.2020384    0.0000519   -0.6806477  
O   -2.3759249    0.0003493    0.0157743  
C   -1.2314656   -0.0005115   -2.0955510  
O   -2.5054392   -0.0008039   -2.6250180  
C   -0.0764516   -0.0007274   -2.8495195  
H    2.8919955   -0.0005620   -3.6205304  
H    2.8036267    0.0088183    0.5858662  
H   -3.0835638    0.0000347   -0.6418818  
H   -2.4360047   -0.0011529   -3.5845921  
H    4.3715549    0.0004895   -1.3667136  
C    0.0000000    0.0000000    1.4700000  
C    1.0541688    0.0001722    2.3260392  
C    0.5103138    0.0000454    3.6635956  
C   -0.9576371   -0.0002459    3.5155732  
N   -1.2018458    0.0001392    2.1615969  
C   -1.8348311   -0.0008317    4.5510609  
C   -1.2972847   -0.0009736    5.9014604  
O   -2.0050672   -0.0014265    6.9001319  
C    0.2542623   -0.0004184    6.0817573  
O    0.7184670   -0.0002256    7.2139121  
C    1.0974552   -0.0000873    4.8889129  
H    2.0940752    0.0005483    2.0517982  
H   -2.9081052   -0.0011668    4.4207061  
H    2.1707277    0.0000911    5.0223670  
H   -2.1128194   -0.0014912    1.7406791  
