58

C   -0.6344196    0.5338005   -9.1752518  
C    0.3696859   -0.3090208   -9.5295106  
C    0.4035668   -0.3403608  -10.9726696  
C   -0.6707925    0.5597654  -11.4334459  
N   -1.2621496    1.0574976  -10.2952679  
C   -0.9638940    0.8034663  -12.7359079  
C   -0.1682532    0.1344094  -13.7517102  
O   -0.3541491    0.2882765  -14.9517379  
C    0.9745254   -0.8234138  -13.2864829  
O    1.6508618   -1.3925190  -14.1326202  
C    1.1951551   -1.0057434  -11.8540266  
H    1.0130680   -0.8474735   -8.8566512  
H   -1.7561850    1.4674749  -13.0525759  
H    1.9885064   -1.6704425  -11.5401922  
H   -2.0300085    1.7034248  -10.2805056  
C    0.8291947   -0.6854810   -5.2562366  
C    0.0139741    0.0003876   -4.4216236  
C   -0.8773491    0.7460786   -5.2968311  
C   -0.4474296    0.3823395   -6.6641086  
N    0.5525087   -0.4565932   -6.6466432  
C   -1.0903947    0.9189728   -7.8318869  
C   -2.1164676    1.7795498   -7.6423715  
O   -2.8066699    2.3561391   -8.6409740  
C   -2.5739393    2.1659014   -6.2750339  
O   -3.5141077    2.9544335   -6.1774632  
C   -1.8981893    1.6018688   -5.0930209  
H   -3.4699012    2.9130222   -8.1947025  
H   -2.2596569    1.9067673   -4.1200828  
H    1.6314370   -1.3578977   -4.9969357  
C    3.2798085    0.0005853   -1.4499648  
C    2.5571144    0.0005562   -2.5996554  
C    1.1637436    0.0001546   -2.2210360  
C    1.1336965   -0.0000201   -0.7459470  
N    2.4483513   -0.0001430   -0.3402717  
C    0.0000000    0.0000000    0.0000000  
C   -1.2757367   -0.0000188   -0.6964414  
O   -2.3524597   -0.0000640   -0.1142313  
C   -1.2676494   -0.0000875   -2.2584081  
O   -2.3355762   -0.0004102   -2.8557294  
C    0.0181562    0.0001757   -2.9516296  
H    2.9547357    0.0006072   -3.5989105  
H    4.3498550    0.0008609   -1.3200021  
H    2.7563627    0.0012824    0.6148063  
C    2.4951002    2.0940188    2.9809380  
C    1.9440701    1.6314916    1.8291961  
C    0.8759964    0.7350050    2.2038498  
C    0.8497377    0.7130254    3.6788474  
N    1.8560616    1.5571714    4.0882609  
C   -0.0205033   -0.0168748    4.4215661  
C   -0.9962600   -0.8356168    3.7214979  
O   -1.8224391   -1.5286685    4.3006425  
C   -0.9864710   -0.8277881    2.1595606  
O   -1.8030528   -1.5133726    1.5592035  
C    0.0000000    0.0000000    1.4700000  
H    2.2509283    1.8888011    0.8310761  
H   -0.0229599   -0.0187323    5.5027230  
H    3.3143982    2.7817323    3.1139444  
H    2.0889452    1.7545833    5.0442112  
