58

C    4.7405458   -1.0806248   -4.9792602  
C    5.5335136   -1.9544484   -4.3071667  
C    6.6655378   -2.2359156   -5.1581279  
C    6.4656576   -1.4487778   -6.3898960  
N    5.2807312   -0.7710055   -6.2182416  
C    7.3199571   -1.4407074   -7.4443208  
C    8.5160138   -2.2622667   -7.3605119  
O    9.3466442   -2.3229285   -8.2575469  
C    8.7478063   -3.1042331   -6.0654562  
O    9.7510704   -3.7999488   -5.9835751  
C    7.7556719   -3.0305263   -4.9958360  
H    5.3466556   -2.3561554   -3.3272036  
H    7.1547094   -0.8559991   -8.3385912  
H    7.9236814   -3.6163889   -4.1023816  
H    4.8723878   -0.1459786   -6.8887968  
C    2.8279729   -0.7071295   -3.3541666  
C    1.6707636   -0.0012343   -3.2725974  
C    1.5420221    0.7399978   -4.5050081  
C    2.7275721    0.4056552   -5.3170902  
N    3.4672606   -0.4755786   -4.5626515  
C    2.9773518    0.9038688   -6.5544653  
C    2.0143736    1.8314552   -7.1243701  
O    2.1493672    2.3348422   -8.2319256  
C    0.7517059    2.1998425   -6.2818939  
O   -0.0658610    2.9799880   -6.7511667  
C    0.5920508    1.5980569   -4.9604489  
H    3.8531180    0.6455753   -7.1334536  
H   -0.2850565    1.8581559   -4.3835990  
H    3.2676542   -1.3768498   -2.6330257  
C    1.0965514    0.0001358   -0.8010306  
C    0.0000000    0.0000000    0.0000000  
C   -1.1546565    0.0001470   -0.8669508  
C   -0.6372019    0.0003520   -2.2486278  
N    0.7342867    0.0007338   -2.1395012  
C   -1.4147744    0.0001354   -3.3608712  
C   -2.8576052   -0.0001047   -3.1854454  
O   -3.6427785   -0.0002490   -4.1244896  
C   -3.4275841   -0.0000727   -1.7311660  
O   -4.6406832    0.0000333   -1.5710049  
C   -2.4891868   -0.0001090   -0.6116739  
H   -1.0150456    0.0001617   -4.3654239  
H   -2.8919122   -0.0002919    0.3920871  
H    2.1388270    0.0000663   -0.5261650  
C    2.4951002    2.0940188    2.9809380  
C    1.9440701    1.6314916    1.8291961  
C    0.8759964    0.7350050    2.2038498  
C    0.8497377    0.7130254    3.6788474  
N    1.8560616    1.5571714    4.0882609  
C   -0.0205033   -0.0168748    4.4215661  
C   -0.9962600   -0.8356168    3.7214979  
O   -1.8224391   -1.5286685    4.3006425  
C   -0.9864710   -0.8277881    2.1595606  
O   -1.8030528   -1.5133726    1.5592035  
C    0.0000000    0.0000000    1.4700000  
H    2.2509283    1.8888011    0.8310761  
H   -0.0229599   -0.0187323    5.5027230  
H    3.3143982    2.7817323    3.1139444  
H    2.0889452    1.7545833    5.0442112  
