58

C    0.2317326   -0.7258270   -5.1498276  
C    0.4809622   -0.5091361   -6.4670234  
C   -0.5210724    0.4175599   -6.9381882  
C   -1.3806544    0.7252200   -5.7791994  
N   -0.8712817    0.0001698   -4.7267113  
C   -2.4458510    1.5653908   -5.8134607  
C   -2.7672881    2.2094683   -7.0761474  
O   -3.7068815    2.9825979   -7.2093273  
C   -1.8706090    1.8980157   -8.3166185  
O   -2.1316859    2.4341305   -9.3851127  
C   -0.7496050    0.9753182   -8.1558973  
H    1.2759107   -0.9484842   -7.0429092  
H   -3.0633864    1.7775094   -4.9517379  
H    0.7609217   -1.3549694   -4.4526696  
C    1.0965517    0.0001355   -0.8010306  
C    0.0000000    0.0000000    0.0000000  
C   -1.1546558    0.0001466   -0.8669519  
C   -0.6372007    0.0003512   -2.2486288  
N    0.7342878    0.0007329   -2.1395013  
C   -1.4147733    0.0001343   -3.3608721  
C   -2.8576040   -0.0001059   -3.1854469  
O   -3.6427770   -0.0002503   -4.1244914  
C   -3.4275835   -0.0000734   -1.7311670  
O   -4.6406826    0.0000325   -1.5710066  
C   -2.4891866   -0.0001094   -0.6116747  
H   -2.8919120   -0.0002921    0.3920860  
H    2.1388274    0.0000659   -0.5261646  
H    1.3735878   -0.0006106   -2.9130262  
C    0.5987894   -0.5205695   -9.6738423  
C    0.0877917    0.6896339   -9.3298019  
C    0.5243122    1.6316109  -10.3332782  
C    1.3373158    0.8654942  -11.2970626  
N    1.3437205   -0.4321861  -10.8400349  
C    1.9320378    1.3970878  -12.3949783  
C    1.7601014    2.8187063  -12.6439231  
O    2.2558399    3.3912835  -13.6055358  
C    0.9033192    3.6494918  -11.6361897  
O    0.7517962    4.8472769  -11.8352160  
C    0.3122650    2.9645920  -10.4892727  
H    2.5242040    0.8174453  -13.0894300  
H   -0.2797282    3.5469324   -9.7963452  
H    0.4940249   -1.4695223   -9.1734398  
H    1.8150795   -1.1975908  -11.2861560  
C    0.8175213    0.6860729    2.3021913  
C    0.0000000    0.0000000    1.4700000  
C   -0.8887526   -0.7456559    2.3478473  
C   -0.4549825   -0.3816753    3.7138435  
N    0.5448156    0.4573574    3.6934124  
C   -1.0945674   -0.9182058    4.8835240  
C   -2.1210866   -1.7789155    4.6970523  
O   -2.8083856   -2.3554314    5.6976972  
C   -2.5824069   -2.1655116    3.3310774  
O   -3.5227682   -2.9541547    3.2362962  
C   -1.9100805   -1.6015804    2.1470656  
H   -0.7567140   -0.6349833    5.8697035  
H   -3.4728268   -2.9124471    5.2533954  
H   -2.2742832   -1.9066565    1.1752040  
H    1.6189533    1.3585343    2.0405121  
