58

C    5.9870137   -1.8395315   -4.9503392  
C    7.0481945   -2.6538694   -4.7161935  
C    7.8987005   -2.5824485   -5.8808286  
C    7.2413317   -1.6530633   -6.8193913  
N    6.0872505   -1.2382219   -6.1957788  
C    7.7318260   -1.3176802   -8.0394892  
C    8.9911249   -1.9118817   -8.4561739  
O    9.5150839   -1.6732674   -9.5363723  
C    9.7045411   -2.8990560   -7.4782525  
O   10.7651540   -3.4057630   -7.8182685  
C    9.0779993   -3.1825518   -6.1894840  
H    7.2159258   -3.2380760   -3.8289611  
H    7.2338712   -0.6337406   -8.7126737  
H    9.5784670   -3.8669781   -5.5180550  
H    5.4214739   -0.5958620   -6.5845752  
C    4.6190968   -2.0899186   -2.8279649  
C    3.4606683   -1.6280057   -2.2906061  
C    2.8761397   -0.7301693   -3.2586202  
C    3.7955631   -0.7067284   -4.4122673  
N    4.8319966   -1.5514031   -4.0878913  
C    3.5979916    0.0246977   -5.5381831  
C    2.3999528    0.8436572   -5.6190795  
O    2.1321346    1.5380348   -6.5908891  
C    1.4124499    0.8342975   -4.4088912  
O    0.4006154    1.5200499   -4.4654210  
C    1.7334695    0.0049281   -3.2500363  
H    3.0613134   -1.8865706   -1.3260989  
H    4.2848598    0.0276109   -6.3731160  
H    5.3352944   -2.7782577   -2.4094675  
C    1.1319246    0.0015678   -0.8009268  
C    0.7969914    0.0034958   -2.1169401  
C   -0.6453340    0.0035696   -2.1842669  
C   -1.1266832    0.0015410   -0.7896025  
N    0.0000000    0.0000000    0.0000000  
C   -2.4346129    0.0013913   -0.4276292  
C   -3.4350111    0.0031335   -1.4820181  
O   -4.6384614    0.0030875   -1.2583914  
C   -2.9478961    0.0050442   -2.9661074  
O   -3.7809382    0.0062135   -3.8623773  
C   -1.5113825    0.0053055   -3.2312122  
H   -2.7664565    0.0000174    0.6013448  
H   -1.1823533    0.0068381   -4.2614848  
H    2.1104316    0.0009435   -0.3488059  
C    2.5528530    2.1414826    2.8079335  
C    2.0663498    1.7338582    4.0032312  
C    0.9804344    0.8229586    3.6752840  
C    0.9495562    0.7966882    2.1971295  
N    1.8690446    1.5676019    1.6831036  
C    0.0000000    0.0000000    1.4700000  
C   -0.8785127   -0.7372425    2.1869543  
O   -1.8187535   -1.5261249    1.6395491  
C   -0.8723269   -0.7321790    3.6796354  
O   -1.7010379   -1.4274584    4.2670412  
C    0.1115397    0.0933559    4.4024240  
H    2.4028853    2.0163452    4.9860947  
H   -2.2861435   -1.9184361    2.3990168  
H    0.0832434    0.0693689    5.4835595  
H    3.3664920    2.8238276    2.6198634  
