62

C   -4.7577222    0.0041170   -1.7610414  
C   -5.7908160    0.0076219   -0.8526514  
C   -7.0043615    0.0076314   -1.6022564  
C   -6.6458624    0.0037378   -2.9746225  
N   -5.2744018    0.0036320   -3.0355572  
C   -7.5924774    0.0023568   -4.0035576  
C   -8.9252742    0.0046468   -3.6404820  
O   -9.8910793    0.0030865   -4.6049668  
C   -9.3028352    0.0089140   -2.2765734  
O  -10.6680482    0.0111879   -2.0777523  
C   -8.3695153    0.0105516   -1.2609766  
H   -5.6830130    0.0109976    0.2184975  
H   -4.7309822   -0.0093112   -3.8796596  
H  -10.7390859    0.0054501   -4.1422085  
H  -10.8374787    0.0140068   -1.1307100  
H   -8.6888204    0.0140149   -0.2253556  
C   -3.3041279    0.0030977   -1.5420399  
C   -2.5845362    0.0029931   -0.3695828  
C   -1.2040010    0.0011725   -0.7283576  
C   -1.1422400    0.0005079   -2.1454361  
N   -2.4348682   -0.0002414   -2.6077441  
C    0.0655140   -0.0009435   -2.8497920  
C    1.2321734   -0.0014315   -2.1101413  
O    2.4392770   -0.0024884   -2.7472544  
C    1.1911195   -0.0011583   -0.6955276  
O    2.4371506   -0.0021397   -0.1032884  
C    0.0000000    0.0000000    0.0000000  
H   -3.0031518    0.0029885    0.6222611  
H   -2.7054585    0.0097428   -3.5745234  
H    0.1193490   -0.0016004   -3.9297474  
H    3.1132953   -0.0029647   -2.0551816  
H    2.3200275   -0.0018506    0.8516388  
C   -6.1917794   -0.7303605   -5.9883835  
C   -6.1143350   -0.5169046   -7.3272315  
C   -7.1673949    0.4106051   -7.6672680  
C   -7.8697094    0.7222680   -6.4077400  
N   -7.2298419   -0.0014770   -5.4281210  
C   -8.9291375    1.5642900   -6.3061746  
C   -9.4098974    2.2062784   -7.5183025  
O  -10.3576440    2.9808231   -7.5308857  
C   -8.6813208    1.8905838   -8.8634112  
O   -9.0773242    2.4249114   -9.8905129  
C   -7.5503538    0.9662015   -8.8465865  
H   -5.4010442   -0.9589058   -7.9998873  
H   -9.4299482    1.7793460   -5.3724460  
H   -7.0512113    0.7530735   -9.7820848  
H   -5.5779831   -1.3589844   -5.3639029  
C    0.8175213    0.6860729    2.3021913  
C    0.0000000    0.0000000    1.4700000  
C   -0.8887526   -0.7456559    2.3478473  
C   -0.4549825   -0.3816753    3.7138435  
N    0.5448156    0.4573574    3.6934124  
C   -1.0945674   -0.9182058    4.8835240  
C   -2.1210866   -1.7789155    4.6970523  
O   -2.8083856   -2.3554314    5.6976972  
C   -2.5824069   -2.1655116    3.3310774  
O   -3.5227682   -2.9541547    3.2362962  
C   -1.9100805   -1.6015804    2.1470656  
H   -0.7567140   -0.6349833    5.8697035  
H   -3.4728268   -2.9124471    5.2533954  
H   -2.2742832   -1.9066565    1.1752040  
H    1.6189533    1.3585343    2.0405121  
