60

C    1.1188644    0.0008221   -0.8003800  
C    0.0000000    0.0000000    0.0000000  
C   -1.1323862    0.0008898   -0.8673528  
C   -0.6382657    0.0019678   -2.1969278  
N    0.7324022    0.0038479   -2.1202235  
C   -1.4770906    0.0027317   -3.3154808  
C   -2.8395468    0.0020943   -3.0876862  
O   -3.7039190    0.0024425   -4.1440357  
C   -3.3517866    0.0013930   -1.7684337  
O   -4.7300490    0.0012365   -1.7073132  
C   -2.5248543    0.0009123   -0.6644820  
H    1.3576320   -0.0056170   -2.9057037  
H   -4.5940019    0.0021828   -3.7685142  
H   -4.9934598    0.0007262   -0.7819929  
H   -2.9462579    0.0005602    0.3339648  
H    2.1619894    0.0009352   -0.5342066  
C    1.8643876   -2.0046421   -5.4763639  
C    1.0207151   -1.6242496   -4.4888941  
C    0.0877448   -0.7071218   -5.1252453  
C    0.5271961   -0.6476496   -6.5358937  
N    1.5681767   -1.4062512   -6.7477267  
C   -0.1489730    0.1643148   -7.5098529  
C   -1.2158991    0.8838465   -7.0935867  
O   -1.9402382    1.6839123   -7.8943796  
C   -1.6840051    0.8446417   -5.6767239  
O   -2.6620642    1.5254390   -5.3682834  
C   -0.9736284    0.0040463   -4.6965764  
H    1.0302558   -1.9285164   -3.4562241  
H   -2.6279609    2.0580956   -7.3145714  
H    2.7010000   -2.6819611   -5.4108473  
C    0.7617995   -0.8633055   -9.6251530  
C    0.3177231    0.1977995   -8.9034003  
C    0.3934126    1.3541429   -9.7647807  
C    0.9217478    0.8763020  -11.0568024  
N    1.1246446   -0.4761225  -10.9062353  
C    1.1401873    1.6669921  -12.1379121  
C    0.8347448    3.0831847  -12.0211256  
O    0.9969496    3.8774236  -12.9382811  
C    0.2744969    3.6111148  -10.6620014  
O    0.0139539    4.8015818  -10.5517050  
C    0.0813340    2.6619093   -9.5685900  
H    1.5282669    1.2964116  -13.0765142  
H   -0.3071587    3.0354303   -8.6308906  
H    0.8547222   -1.8955282   -9.3288902  
H    1.4795321   -1.0880236  -11.6180496  
C    2.5128556    2.1077716    2.9199648  
C    1.9592212    1.6432552    4.0696553  
C    0.8915788    0.7479214    3.6910360  
C    0.8684491    0.7287414    2.2159470  
N    1.8754542    1.5738793    1.8102719  
C    0.0000000    0.0000000    1.4700000  
C   -0.9772830   -0.8200135    2.1664417  
O   -1.8021297   -1.5120829    1.5842315  
C   -0.9711318   -0.8147624    3.7284083  
O   -1.7894187   -1.5009653    4.3257297  
C    0.0140216    0.0115358    4.4216297  
H    2.2638494    1.8988021    5.0689105  
H    0.0117648    0.0094386    5.5031631  
H    3.3327358    2.7953732    2.7900019  
H    2.1123206    1.7707734    0.8551938  
