58

C    0.3024911    3.5204857   -2.8368671  
C   -0.0662272    4.7594619   -3.2528712  
C   -0.9770150    4.5785745   -4.3585748  
C   -1.1096631    3.1222112   -4.5540266  
N   -0.3087805    2.5375027   -3.6003009  
C   -1.8847519    2.5414567   -5.5046402  
C   -2.6384682    3.4086499   -6.3948219  
O   -3.3648188    2.9820869   -7.2829439  
C   -2.5128311    4.9540951   -6.2060925  
O   -3.1424297    5.6942169   -6.9497893  
C   -1.6457537    5.4614618   -5.1456175  
H   -1.9681357    1.4709525   -5.6310418  
H   -1.5644087    6.5327605   -5.0214163  
H    0.9695127    3.2428215   -2.0369456  
C    0.0000000    0.0000000    0.0000000  
C   -0.1272315    1.0464625   -0.8560396  
C   -0.0616294    0.5065786   -2.1935958  
C    0.1154921   -0.9506473   -2.0455731  
N    0.1453883   -1.1930198   -0.6915971  
C    0.2209249   -1.8214826   -3.0810609  
C    0.1558182   -1.2878939   -4.4314605  
O    0.2409085   -1.9905430   -5.4301318  
C   -0.0311441    0.2523476   -4.6117574  
O   -0.0870550    0.7131725   -5.7439123  
C   -0.1327204    1.0894000   -3.4189132  
H   -0.2525371    2.0787919   -0.5817987  
H    0.3503036   -2.8869306   -2.9507060  
H    0.2538666   -2.0975129   -0.2706790  
C    1.6731386    6.3127305   -2.2527075  
C    1.7654950    7.5789051   -1.7706835  
C    0.4536404    8.1706594   -1.8877315  
C   -0.4168093    7.1380318   -2.4816904  
N    0.3830466    6.0361692   -2.6792236  
C   -1.7356647    7.3073156   -2.7531105  
C   -2.3379790    8.5923859   -2.4395093  
O   -3.5180576    8.8431596   -2.6464597  
C   -1.4348451    9.7005865   -1.8101882  
O   -1.9307498   10.7866388   -1.5421768  
C   -0.0268360    9.3995909   -1.5636843  
H    2.6515355    8.0452050   -1.3781139  
H   -2.3563871    6.5367967   -3.1889014  
H    0.5916473   10.1722255   -1.1275210  
H    2.4390424    5.5584598   -2.3324345  
C    3.2798086   -0.0005857    2.9199648  
C    2.5571146   -0.0005566    4.0696553  
C    1.1637436   -0.0001548    3.6910360  
C    1.1336965    0.0000200    2.2159470  
N    2.4483514    0.0001428    1.8102719  
C    0.0000000    0.0000000    1.4700000  
C   -1.2757367    0.0000186    2.1664417  
O   -2.3524596    0.0000640    1.5842315  
C   -1.2676493    0.0000873    3.7284083  
O   -2.3355761    0.0004100    4.3257297  
C    0.0181563   -0.0001760    4.4216297  
H    2.9547357   -0.0006076    5.0689105  
H    0.0150794   -0.0003319    5.5031631  
H    4.3498549   -0.0008612    2.7900019  
H    2.7563627   -0.0012824    0.8551938  
