60

C   -1.1239075    0.0327664   -0.7919009  
C   -0.7477578    0.0049816   -2.1148548  
C    0.6773568   -0.0492402   -2.1414694  
C    1.1189899   -0.0524453   -0.7935543  
N    0.0000000    0.0000000    0.0000000  
C    2.4710516   -0.1004019   -0.4408227  
C    3.3940895   -0.1462595   -1.4675046  
O    4.7273746   -0.1945187   -1.1793444  
C    2.9730598   -0.1435010   -2.8186308  
O    4.0122422   -0.1922109   -3.7247600  
C    1.6393959   -0.0959313   -3.1673471  
H    2.8141365   -0.1029671    0.5845984  
H    5.1892488   -0.2205604   -2.0274357  
H    3.6419987   -0.1868467   -4.6127322  
H    1.3471155   -0.0948778   -4.2109226  
H   -2.1049239    0.0748091   -0.3505418  
C   -1.6629795    0.0293635   -3.2649308  
C   -3.0152972    0.0810574   -3.2529376  
C   -3.4030227    0.0829985   -4.6551372  
C   -2.1242127    0.0275454   -5.3955116  
N   -1.1007385   -0.0041565   -4.5858911  
C   -2.0765721    0.0125552   -6.8316842  
C   -3.2529993    0.0508169   -7.4979341  
O   -3.3574031    0.0424557   -8.8377368  
C   -4.5600983    0.1067656   -6.7792386  
O   -5.5916998    0.1396444   -7.4500124  
C   -4.5825542    0.1211918   -5.3057356  
H   -3.6689891    0.1137350   -2.3981304  
H   -1.1278846   -0.0280621   -7.3467101  
H   -4.3153128    0.0769649   -9.0120083  
C   -5.9923587    2.3163085   -1.7734201  
C   -7.2848228    1.9002271   -1.7513426  
C   -7.4565022    1.0003191   -2.8673749  
C   -6.1487275    0.9256712   -3.5463032  
N   -5.3047931    1.7463309   -2.8341366  
C   -5.8968235    0.1766780   -4.6495975  
C   -6.9865105   -0.6081529   -5.2056173  
O   -6.8601572   -1.3146906   -6.1971515  
C   -8.3800610   -0.5440003   -4.5029741  
O   -9.3051324   -1.2002093   -4.9622064  
C   -8.5290683    0.2994977   -3.3196906  
H   -8.0326438    2.1907189   -1.0351083  
H   -9.4971110    0.3382444   -2.8389451  
H   -5.4843708    2.9915424   -1.1041687  
H   -4.3377705    1.9050204   -3.0503131  
C    0.8681109    0.7263879    2.2709268  
C    0.6127770    0.5096195    3.5869401  
C   -0.4920590   -0.4175482    3.6542670  
C   -0.8620974   -0.7254003    2.2596025  
N    0.0000000    0.0000000    1.4700000  
C   -1.8641242   -1.5660088    1.8976294  
C   -2.6293522   -2.2103885    2.9520183  
O   -3.5512764   -2.9839180    2.7283916  
C   -2.2549728   -1.8987399    4.4361073  
O   -2.8923672   -2.4351063    5.3323774  
C   -1.1543735   -0.9755647    4.7012123  
H    1.1382914    0.9492124    4.4159191  
H   -2.1192137   -1.7782617    0.8686553  
H   -0.9013378   -0.7652422    5.7314848  
H    1.6172880    1.3558399    1.8188057  
