58

C    2.7353851   -3.0454472   -8.1726206  
C    2.2512038   -1.8345385   -7.7940135  
C    2.6153806   -0.8938058   -8.8270829  
C    3.3567079   -1.6614207   -9.8459010  
N    3.3949194   -2.9586929   -9.3892664  
C    3.8716236   -1.1312786  -10.9841091  
C    3.6832998    0.2902476  -11.2214541  
O    4.1092806    0.8615728  -12.2166582  
C    2.9015014    1.1226045  -10.1557263  
O    2.7369566    2.3203266  -10.3445306  
C    2.3936456    0.4391981   -8.9687599  
H    4.4121082   -1.7120059  -11.7186443  
H    1.8532267    1.0226213   -8.2357595  
H    2.6660677   -3.9938667   -7.6650922  
H    3.8325659   -3.7248642   -9.8672775  
C    1.7720687   -2.0859334   -5.3149826  
C    0.8968265   -1.6247192   -4.3847637  
C   -0.0065337   -0.7270828   -5.0652227  
C    0.4171838   -0.7029980   -6.4782598  
N    1.5002591   -1.5471467   -6.5634087  
C   -0.1857669    0.0284587   -7.4494066  
C   -1.3281510    0.8467741   -7.0781197  
O   -1.9388960    1.5411248   -7.8800975  
C   -1.7940048    0.8367264   -5.5872531  
O   -2.7544406    1.5219332   -5.2627294  
C   -1.0641734    0.0073898   -4.6315339  
H    0.8854567   -1.8836208   -3.3409941  
H    0.1408064    0.0318495   -8.4800607  
H    2.5929127   -2.7739333   -5.1934849  
C    1.1319248    0.0015675   -0.8009270  
C    0.7969916    0.0034959   -2.1169404  
C   -0.6453336    0.0035703   -2.1842672  
C   -1.1266831    0.0015415   -0.7896027  
N    0.0000000    0.0000000    0.0000000  
C   -2.4346129    0.0013924   -0.4276297  
C   -3.4350110    0.0031352   -1.4820184  
O   -4.6384610    0.0030897   -1.2583919  
C   -2.9478958    0.0050460   -2.9661075  
O   -3.7809377    0.0062160   -3.8623775  
C   -1.5113821    0.0053068   -3.2312125  
H    1.4821240    0.0045436   -2.9459192  
H   -2.7664565    0.0000185    0.6013447  
H    2.1104318    0.0009428   -0.3488058  
C    0.8175213    0.6860729    2.3021913  
C    0.0000000    0.0000000    1.4700000  
C   -0.8887526   -0.7456559    2.3478473  
C   -0.4549825   -0.3816753    3.7138435  
N    0.5448156    0.4573574    3.6934124  
C   -1.0945674   -0.9182058    4.8835240  
C   -2.1210866   -1.7789155    4.6970523  
O   -2.8083856   -2.3554314    5.6976972  
C   -2.5824069   -2.1655116    3.3310774  
O   -3.5227682   -2.9541547    3.2362962  
C   -1.9100805   -1.6015804    2.1470656  
H   -0.7567140   -0.6349833    5.8697035  
H   -3.4728268   -2.9124471    5.2533954  
H   -2.2742832   -1.9066565    1.1752040  
H    1.6189533    1.3585343    2.0405121  
