62

C    1.1243360    0.0104729   -0.7919008  
C    0.7473961    0.0237738   -2.1148546  
C   -0.6787493    0.0231587   -2.1414697  
C   -1.1201791    0.0093805   -0.7935542  
N    0.0000000    0.0000000    0.0000000  
C   -2.4730849    0.0053139   -0.4408229  
C   -3.3972036    0.0156462   -1.4675045  
O   -4.7313589    0.0126039   -1.1793448  
C   -2.9763790    0.0290784   -2.8186310  
O   -4.0166667    0.0377949   -3.7247602  
C   -1.6418720    0.0328242   -3.1673474  
H   -2.8160147   -0.0053146    0.5845984  
H   -5.1938923    0.0208666   -2.0274362  
H   -3.6464903    0.0466707   -4.6127327  
H   -1.3497680    0.0430099   -4.2109226  
H    2.1062435    0.0061821   -0.3505413  
C    2.8391352   -0.6731832   -3.3474594  
C    3.4424187   -0.4113042   -4.5557374  
C    2.5988715    0.5037812   -5.2526214  
C    1.4864140    0.7666169   -4.4128110  
N    1.6628785    0.0346008   -3.2649305  
C    0.4490540    1.6292529   -4.7795966  
C    0.5364537    2.2378763   -6.0165751  
O   -0.4488771    3.0897382   -6.4245798  
C    1.6383160    1.9880241   -6.8688021  
O    1.5797963    2.6690827   -8.0671679  
C    2.6619237    1.1369214   -6.5077237  
H   -0.4016060    1.8336581   -4.1441451  
H   -0.1954441    3.3991944   -7.3039390  
H    2.3604083    2.4448339   -8.5828815  
H    3.4930263    0.9649327   -7.1816426  
H    3.1541141   -1.3099540   -2.5385895  
C    5.1307040   -2.2630183   -4.8400825  
C    4.7159987   -0.9821272   -5.0173171  
C    5.7613241   -0.2974724   -5.7407659  
C    6.8266469   -1.2916219   -5.9721621  
N    6.3828740   -2.4621972   -5.4014531  
C    7.9882697   -1.0358341   -6.6255456  
C    8.2037474    0.3083745   -7.1346700  
O    9.2172813    0.6381595   -7.7365781  
C    7.0890051    1.3772350   -6.9008031  
O    7.2593320    2.5124125   -7.3246195  
C    5.8800235    0.9819500   -6.1824961  
H    8.7567739   -1.7794609   -6.7846990  
H    5.1129011    1.7278795   -6.0248985  
H    4.6270121   -3.0781702   -4.3464108  
H    6.8896005   -3.3283621   -5.3956008  
C    2.4951002    2.0940188    2.9809380  
C    1.9440701    1.6314916    1.8291961  
C    0.8759964    0.7350050    2.2038498  
C    0.8497377    0.7130254    3.6788474  
N    1.8560616    1.5571714    4.0882609  
C   -0.0205033   -0.0168748    4.4215661  
C   -0.9962600   -0.8356168    3.7214979  
O   -1.8224391   -1.5286685    4.3006425  
C   -0.9864710   -0.8277881    2.1595606  
O   -1.8030528   -1.5133726    1.5592035  
C    0.0000000    0.0000000    1.4700000  
H    2.2509283    1.8888011    0.8310761  
H   -0.0229599   -0.0187323    5.5027230  
H    3.3143982    2.7817323    3.1139444  
H    2.0889452    1.7545833    5.0442112  
