58

C    0.2271049   -0.6901136   -9.6262647  
C    0.9423833   -0.6826453  -10.7805594  
C    0.9221030    0.6721065  -11.2796304  
C    0.1307268    1.4589404  -10.3145360  
N   -0.2618283    0.5746544   -9.3363593  
C   -0.1215459    2.7874508  -10.4290917  
C    0.4224962    3.4891499  -11.5798186  
O    0.2509070    4.6856772  -11.7726433  
C    1.2634067    2.6756655  -12.6146697  
O    1.7262951    3.2556004  -13.5876404  
C    1.4673869    1.2478906  -12.3829319  
H    1.4285578   -1.5295608  -11.2310951  
H   -0.7043862    3.3458606   -9.7097974  
H    2.0509648    0.6918798  -13.1040524  
H    0.0158446   -1.5132084   -8.9631106  
C   -0.0202922   -0.6967075   -5.1400949  
C   -1.0641734    0.0073898   -4.6315339  
C   -1.6428383    0.7514419   -5.7253206  
C   -0.8448100    0.4207134   -6.9213806  
N    0.1229399   -0.4613334   -6.4990734  
C   -1.0739325    0.9222824   -8.1613952  
C   -2.1802186    1.8499243   -8.3291660  
O   -2.4675341    2.3561921   -9.4059403  
C   -3.0385139    2.2145169   -7.0760867  
O   -3.9723190    2.9946743   -7.2050177  
C   -2.6944048    1.6092960   -5.7918949  
H   -3.2937358    1.8667796   -4.9292082  
H    0.6565474   -1.3675747   -4.6363936  
H    0.8239109   -0.8724841   -7.0878369  
C    1.1319248    0.0015675   -0.8009270  
C    0.7969916    0.0034959   -2.1169404  
C   -0.6453336    0.0035703   -2.1842672  
C   -1.1266831    0.0015415   -0.7896027  
N    0.0000000    0.0000000    0.0000000  
C   -2.4346129    0.0013924   -0.4276297  
C   -3.4350110    0.0031352   -1.4820184  
O   -4.6384610    0.0030897   -1.2583919  
C   -2.9478958    0.0050460   -2.9661075  
O   -3.7809377    0.0062160   -3.8623775  
C   -1.5113821    0.0053068   -3.2312125  
H    1.4821240    0.0045436   -2.9459192  
H   -2.7664565    0.0000185    0.6013447  
H    2.1104318    0.0009428   -0.3488058  
C    0.8681109    0.7263879    2.2709268  
C    0.6127770    0.5096195    3.5869401  
C   -0.4920590   -0.4175482    3.6542670  
C   -0.8620974   -0.7254003    2.2596025  
N    0.0000000    0.0000000    1.4700000  
C   -1.8641242   -1.5660088    1.8976294  
C   -2.6293522   -2.2103885    2.9520183  
O   -3.5512764   -2.9839180    2.7283916  
C   -2.2549728   -1.8987399    4.4361073  
O   -2.8923672   -2.4351063    5.3323774  
C   -1.1543735   -0.9755647    4.7012123  
H    1.1382914    0.9492124    4.4159191  
H   -2.1192137   -1.7782617    0.8686553  
H   -0.9013378   -0.7652422    5.7314848  
H    1.6172880    1.3558399    1.8188057  
