60

C    1.1243410    0.0100057   -0.7919012  
C    0.7474071    0.0234632   -2.1148552  
C   -0.6787388    0.0234405   -2.1414702  
C   -1.1201747    0.0098455   -0.7935550  
N    0.0000000    0.0000000    0.0000000  
C   -2.4730818    0.0063410   -0.4408242  
C   -3.3971964    0.0170568   -1.4675057  
O   -4.7313521    0.0145688   -1.1793464  
C   -2.9763659    0.0303145   -2.8186321  
O   -4.0166488    0.0394632   -3.7247622  
C   -1.6418573    0.0335061   -3.1673482  
H    1.4178706    0.0311140   -2.9571214  
H   -2.8160165   -0.0041450    0.5845965  
H   -5.1938826    0.0230239   -2.0274378  
H   -3.6464684    0.0481850   -4.6127340  
H    2.1062463    0.0053072   -0.3505414  
C    1.5648391   -2.0538328   -5.3222158  
C    1.3416268   -1.5771671   -6.5740310  
C    0.2115315   -0.6825096   -6.4885404  
C   -0.2083348   -0.6769667   -5.0741601  
N    0.6519736   -1.5285503   -4.4202761  
C   -1.2456343    0.0471574   -4.5828768  
C   -1.9989504    0.8762378   -5.5089848  
O   -2.9501312    1.5650944   -5.1639735  
C   -1.5720157    0.8854755   -7.0114647  
O   -2.1989497    1.5794022   -7.8005663  
C   -0.4365522    0.0629949   -7.4214654  
H   -0.1472093    0.0751417   -8.4635098  
H    2.3192788   -2.7448219   -4.9827391  
H    0.6226237   -1.7349441   -3.4386515  
C    3.0668408   -5.3657853   -8.0459140  
C    2.4277318   -4.4156735   -7.3159121  
C    2.5529124   -3.1730405   -8.0405000  
C    3.3228349   -3.4792880   -9.2612465  
N    3.6040900   -4.8248451   -9.2041394  
C    3.6533714   -2.5677320  -10.2107285  
C    3.2222330   -1.1932329  -10.0173223  
O    3.4701945   -0.2988079  -10.8153315  
C    2.4059348   -0.8462729   -8.7316002  
O    2.0377955    0.3076425   -8.5577780  
C    2.1107137   -1.9148867   -7.7804105  
H    1.9260335   -4.5679104   -6.3769040  
H    4.2187309   -2.8132186  -11.0989944  
H    3.1907405   -6.4155946   -7.8351082  
H    4.1184752   -5.3356625   -9.8980569  
C    0.8681109    0.7263879    2.2709268  
C    0.6127770    0.5096195    3.5869401  
C   -0.4920590   -0.4175482    3.6542670  
C   -0.8620974   -0.7254003    2.2596025  
N    0.0000000    0.0000000    1.4700000  
C   -1.8641242   -1.5660088    1.8976294  
C   -2.6293522   -2.2103885    2.9520183  
O   -3.5512764   -2.9839180    2.7283916  
C   -2.2549728   -1.8987399    4.4361073  
O   -2.8923672   -2.4351063    5.3323774  
C   -1.1543735   -0.9755647    4.7012123  
H    1.1382914    0.9492124    4.4159191  
H   -2.1192137   -1.7782617    0.8686553  
H   -0.9013378   -0.7652422    5.7314848  
H    1.6172880    1.3558399    1.8188057  
