58

C    9.8370358    0.6973496   -0.1667033  
C    9.1545643   -0.0050494    0.7740109  
C   10.1310346   -0.7469846    1.5361610  
C   11.4477774   -0.4168648    0.9582326  
N   11.2002821    0.4628439   -0.0702370  
C   12.6290755   -0.9169059    1.4011744  
C   12.6017949   -1.8421439    2.5217658  
O   13.6122098   -2.3469048    2.9935514  
C   11.2184149   -2.2060533    3.1491675  
O   11.1828989   -2.9841926    4.0928296  
C   10.0136192   -1.6026331    2.5850732  
H   13.5840388   -0.6617132    0.9631902  
H    9.0597581   -1.8596293    3.0253292  
H    9.4587640    1.3664034   -0.9224593  
H   11.9020690    0.8730653   -0.6586771  
C    5.7656458   -0.0007232   -2.0564741  
C    7.0030819   -0.0022262   -1.4971669  
C    6.8178431   -0.0019779   -0.0652025  
C    5.3606050   -0.0002234    0.1655475  
N    4.7795901    0.0008674   -1.0815733  
C    4.7760825    0.0001045    1.3903077  
C    5.6398496   -0.0011429    2.5592563  
O    5.2097739   -0.0009035    3.7052651  
C    7.1861469   -0.0027566    2.3384237  
O    7.9234038   -0.0035090    3.3150054  
C    7.6977102   -0.0032495    0.9701567  
H    7.9388414   -0.0031952   -2.0272300  
H    3.7050043    0.0012712    1.5376179  
H    5.4911002   -0.0004270   -3.0988343  
C    3.3321168    0.0004716   -1.3379341  
C    2.6974177    0.0000118   -2.5332316  
C    1.2800432   -0.0002116   -2.2052842  
C    1.2395033    0.0000644   -0.7271298  
N    2.4394059    0.0005460   -0.2131041  
C    0.0000000    0.0000000    0.0000000  
C   -1.1468704    0.0000635   -0.7169542  
O   -2.3742206    0.0000074   -0.1695488  
C   -1.1388774    0.0001608   -2.2096352  
O   -2.2206238    0.0000906   -2.7970409  
C    0.1454514    0.0001818   -2.9324241  
H    3.1367978   -0.0000649   -3.5160956  
H   -2.9844350    0.0001027   -0.9290164  
H    0.1083567    0.0003684   -4.0135594  
C    0.8681109    0.7263879    2.2709268  
C    0.6127770    0.5096195    3.5869401  
C   -0.4920590   -0.4175482    3.6542670  
C   -0.8620974   -0.7254003    2.2596025  
N    0.0000000    0.0000000    1.4700000  
C   -1.8641242   -1.5660088    1.8976294  
C   -2.6293522   -2.2103885    2.9520183  
O   -3.5512764   -2.9839180    2.7283916  
C   -2.2549728   -1.8987399    4.4361073  
O   -2.8923672   -2.4351063    5.3323774  
C   -1.1543735   -0.9755647    4.7012123  
H    1.1382914    0.9492124    4.4159191  
H   -2.1192137   -1.7782617    0.8686553  
H   -0.9013378   -0.7652422    5.7314848  
H    1.6172880    1.3558399    1.8188057  
