60

C    4.4508002   -2.0874923   -1.5922070  
C    3.2092511   -1.6264350   -1.8923016  
C    3.3527768   -0.7316627   -3.0164098  
C    4.7900153   -0.7090876   -3.3490145  
N    5.4005100   -1.5512867   -2.4485216  
C    5.3348439    0.0196057   -4.3559269  
C    4.4464356    0.8363280   -5.1660073  
O    4.8404657    1.5281790   -6.0957290  
C    2.9207213    0.8278369   -4.8314465  
O    2.1630645    1.5117246   -5.5063638  
C    2.4521480    0.0014830   -3.7217483  
H    2.2970209   -1.8836390   -1.3840736  
H    6.3918284    0.0219293   -4.5832759  
H    4.7519003   -2.7737078   -0.8173928  
H    6.3841500   -1.7478733   -2.4193062  
C    0.0000000    0.0000000    0.0000000  
C    1.0662921   -0.0000106   -0.8334269  
C    0.4961870    0.0000059   -2.1718889  
C   -0.9663856   -0.0000854   -1.9540246  
N   -1.2632773   -0.0000087   -0.6828657  
C   -1.8985362   -0.0000522   -3.0477258  
C   -1.3925773    0.0004558   -4.3020541  
O   -2.1456384    0.0005402   -5.4151311  
C    0.0786236    0.0009315   -4.5544999  
O    0.4683762    0.0012578   -5.7221098  
C    1.0143167    0.0008435   -3.4159031  
H    2.1107198    0.0000631   -0.5721865  
H   -1.5042271    0.0009682   -6.1484419  
C   -4.6051150    2.0113807   -0.1334488  
C   -3.4864975    1.6298261   -0.7927593  
C   -3.9518795    0.7119505   -1.8210703  
C   -5.4173870    0.6533624   -1.6328202  
N   -5.8061463    1.4130851   -0.6450562  
C   -6.2597398   -0.1589844   -2.4668594  
C   -5.6651264   -0.8797273   -3.4447651  
O   -6.3285775   -1.6802782   -4.2962298  
C   -4.1885392   -0.8414375   -3.6601395  
O   -3.7155084   -1.5233223   -4.5692573  
C   -3.3460094   -0.0004268   -2.7913647  
H   -2.4709783    1.9337811   -0.6045900  
H   -7.3277604   -0.1829247   -2.3066441  
H   -5.6384845   -2.0553389   -4.8726449  
H   -4.6853288    2.6895275    0.7012105  
C    1.1188642   -0.0008217    2.2703808  
C    0.0000000    0.0000000    1.4700000  
C   -1.1323862   -0.0008904    2.3373528  
C   -0.6382662   -0.0019682    3.6669281  
N    0.7324016   -0.0038477    3.5902241  
C   -1.4770914   -0.0027325    4.7854808  
C   -2.8395474   -0.0020958    4.5576857  
O   -3.7039201   -0.0024443    5.6140350  
C   -3.3517868   -0.0013946    3.2384331  
O   -4.7300496   -0.0012389    3.1773122  
C   -2.5248543   -0.0009135    2.1344818  
H    1.3576314    0.0056174    4.3757045  
H   -1.1067570   -0.0036993    5.8013813  
H   -4.5940033   -0.0021850    5.2385129  
H   -4.9934601   -0.0007286    2.2519915  
H   -2.9462578   -0.0005617    1.1360343  
H    2.1619896   -0.0009344    2.0042067  
