60

C   -3.3002205   -0.0299019   -1.4738972  
C   -2.5231801   -0.0228079   -2.6090738  
C   -1.1622769   -0.0102133   -2.1820096  
C   -1.1711424   -0.0104823   -0.7636139  
N   -2.4851454   -0.0206275   -0.3662349  
C    0.0000000    0.0000000    0.0000000  
C    1.2019904    0.0106464   -0.6806491  
O    2.3758334    0.0207970    0.0157732  
C    1.2314107    0.0114715   -2.0955517  
O    2.5053305    0.0231027   -2.6250194  
C    0.0764403    0.0014074   -2.8495195  
H   -2.8034370   -0.0337709    0.5858677  
H    3.0834411    0.0274098   -0.6418835  
H    2.4358956    0.0228335   -3.5845934  
H    0.1303898    0.0025024   -3.9319089  
H   -4.3713785   -0.0393977   -1.3667116  
C   -3.0266341   -0.0260441   -3.9901686  
C   -4.3138277   -0.0375801   -4.4079945  
C   -4.2366310   -0.0353511   -5.8607632  
C   -2.7879630   -0.0214595   -6.1569930  
N   -2.0736861   -0.0160336   -5.0643967  
C   -2.2868059   -0.0154109   -7.5038007  
C   -3.1917273   -0.0232886   -8.5089829  
O   -2.8654564   -0.0189650   -9.8126576  
C   -4.6603411   -0.0377195   -8.2422880  
O   -5.4263915   -0.0441662   -9.2057948  
C   -5.1494512   -0.0436466   -6.8520862  
H   -5.2055717   -0.0465907   -3.8048470  
H   -1.2229836   -0.0050333   -7.6911079  
H   -3.7191916   -0.0268494  -10.2819418  
C   -7.2840486    0.6609870   -5.6750768  
C   -8.6206283    0.4311717   -5.7444645  
C   -8.8323630   -0.4972971   -6.8297988  
C   -7.5000214   -0.7916945   -7.3910344  
N   -6.6050017   -0.0580547   -6.6469899  
C   -7.2731794   -1.6293368   -8.4343957  
C   -8.4176606   -2.2844948   -9.0455144  
O   -8.3172863   -3.0563676   -9.9902044  
C   -9.8379793   -1.9871751   -8.4675006  
O  -10.8091176   -2.5326960   -8.9740150  
C   -9.9559609   -1.0659595   -7.3399838  
H   -9.3724423    0.8629446   -5.1080995  
H   -6.2878318   -1.8316524   -8.8307139  
H  -10.9428619   -0.8655881   -6.9455200  
H   -6.7380085    1.2953052   -4.9958344  
C    2.4951002    2.0940188    2.9809380  
C    1.9440701    1.6314916    1.8291961  
C    0.8759964    0.7350050    2.2038498  
C    0.8497377    0.7130254    3.6788474  
N    1.8560616    1.5571714    4.0882609  
C   -0.0205033   -0.0168748    4.4215661  
C   -0.9962600   -0.8356168    3.7214979  
O   -1.8224391   -1.5286685    4.3006425  
C   -0.9864710   -0.8277881    2.1595606  
O   -1.8030528   -1.5133726    1.5592035  
C    0.0000000    0.0000000    1.4700000  
H    2.2509283    1.8888011    0.8310761  
H   -0.0229599   -0.0187323    5.5027230  
H    3.3143982    2.7817323    3.1139444  
H    2.0889452    1.7545833    5.0442112  
