62

C    1.1243400    0.0100500   -0.7919010  
C    0.7474052    0.0234928   -2.1148550  
C   -0.6787406    0.0234143   -2.1414695  
C   -1.1201754    0.0098019   -0.7935541  
N    0.0000000    0.0000000    0.0000000  
C   -2.4730823    0.0062441   -0.4408232  
C   -3.3971975    0.0169240   -1.4675048  
O   -4.7313531    0.0143835   -1.1793446  
C   -2.9763680    0.0301984   -2.8186306  
O   -4.0166520    0.0393063   -3.7247603  
C   -1.6418601    0.0334421   -3.1673475  
H   -2.8160164   -0.0042554    0.5845986  
H   -5.1938846    0.0228207   -2.0274351  
H   -3.6464723    0.0480426   -4.6127324  
H   -1.3497516    0.0435180   -4.2109228  
H    2.1062459    0.0053899   -0.3505419  
C    4.6036339   -2.0930716   -2.9144245  
C    3.4418649   -1.6362332   -2.3364471  
C    2.8381164   -0.7399517   -3.2674505  
C    3.6839306   -0.6894178   -4.4049794  
N    4.7475931   -1.5210622   -4.1567729  
C    3.3988584    0.0973662   -5.5250210  
C    2.2386550    0.8465548   -5.4963344  
O    1.9118972    1.6321378   -6.5636216  
C    1.3821518    0.8097215   -4.3703406  
O    0.2663906    1.6116414   -4.4942143  
C    1.6628913    0.0339758   -3.2649309  
H    3.0752696   -1.9138828   -1.3630448  
H    4.0394695    0.1403668   -6.3950614  
H    1.0768251    2.0632292   -6.3398371  
H   -0.2582085    1.5289057   -3.6919960  
H    5.3416944   -2.7805788   -2.5381801  
C    6.9088618   -5.2060673   -5.1731363  
C    7.7889481   -4.7077327   -6.0793292  
C    7.5225714   -3.2930143   -6.1909138  
C    6.4071761   -3.0059320   -5.2688142  
N    6.0811353   -4.2073661   -4.6830301  
C    5.8594620   -1.7782052   -5.0833396  
C    6.4047726   -0.6653261   -5.8427287  
O    5.9800330    0.4786056   -5.7461993  
C    7.5860401   -0.9463963   -6.8252828  
O    8.0531570   -0.0173600   -7.4702270  
C    8.0918469   -2.3120659   -6.9391137  
H    8.5390089   -5.2673539   -6.6092786  
H    8.9100366   -2.4982494   -7.6214812  
H    6.7951800   -6.2189171   -4.8222781  
H    5.3551921   -4.3381450   -4.0026247  
C    0.8400945    0.7047457    2.2710304  
C    0.0000000    0.0000000    1.4700000  
C   -0.8844236   -0.7423113    2.3369512  
C   -0.4878984   -0.4098547    3.7186280  
N    0.5629682    0.4714286    3.6095011  
C   -1.0836927   -0.9095027    4.8308716  
C   -2.1891196   -1.8367527    4.6554461  
O   -2.7906899   -2.3413415    5.5944904  
C   -2.6257283   -2.2031529    3.2011665  
O   -3.5549479   -2.9829990    3.0410059  
C   -1.9068976   -1.5999348    2.0816745  
H   -0.7774656   -0.6525820    5.8354244  
H   -2.2155208   -1.8586617    1.0779135  
H    1.6384792    1.3747609    1.9961646  
H    1.0518368    0.8833920    4.3830260  
