58

C    4.3047792   -2.1086498   -1.2859245  
C    5.3774559   -1.6442162   -1.9771117  
C    4.8701585   -0.7486138   -2.9897229  
C    3.4034923   -0.7291863   -2.8306572  
N    3.1250164   -1.5744517   -1.7814351  
C    2.5562217   -0.0001543   -3.6003001  
C    3.1269051    0.8199333   -4.6559103  
O    2.4474936    1.5122577   -5.4024942  
C    4.6776933    0.8144233   -4.8425425  
O    5.1696074    1.5006857   -5.7281637  
C    5.4870227   -0.0121793   -3.9505978  
H    6.4066161   -1.8999864   -1.7981567  
H    4.2768485   -2.7963886   -0.4563906  
H    2.2064275   -1.7712340   -1.4285627  
C    8.5217676   -3.2136998   -3.7581864  
C    7.3620482   -2.5074794   -3.7387267  
C    7.7006316   -1.1340006   -4.0281278  
C    9.1631521   -1.0976786   -4.2191830  
N    9.6005667   -2.3900056   -4.0418419  
C    9.8729824    0.0217643   -4.5102058  
C    9.1481780    1.2744807   -4.6439826  
O    9.6971035    2.3371034   -4.9043975  
C    7.5989201    1.2594243   -4.4455493  
O    6.9780087    2.3080695   -4.5554283  
C    6.9454049   -0.0095704   -4.1350280  
H    6.3813491   -2.9034679   -3.5436992  
H   10.9455024    0.0266837   -4.6465385  
H    8.6791178   -4.2665495   -3.5889596  
H   10.5560273   -2.6891280   -4.1101613  
C    0.0000000    0.0000000    0.0000000  
C    1.0541688   -0.0001719   -0.8560391  
C    0.5103141   -0.0000449   -2.1935955  
C   -0.9576367    0.0002461   -2.0455733  
N   -1.2018459   -0.0001392   -0.6915970  
C   -1.8348306    0.0008319   -3.0810611  
C   -1.2972842    0.0009739   -4.4314605  
O   -2.0050664    0.0014267   -5.4301321  
C    0.2542628    0.0004190   -4.6117571  
O    0.7184677    0.0002263   -5.7439119  
C    1.0974556    0.0000880   -3.4189127  
H    2.0940752   -0.0005479   -0.5817978  
H   -2.9081050    0.0011669   -2.9507065  
H   -2.1128195    0.0014911   -0.2706793  
C    1.0965515   -0.0001358    2.2710304  
C    0.0000000    0.0000000    1.4700000  
C   -1.1546562   -0.0001469    2.3369512  
C   -0.6372014   -0.0003519    3.7186280  
N    0.7342871   -0.0007337    3.6095011  
C   -1.4147739   -0.0001353    4.8308716  
C   -2.8576048    0.0001048    4.6554461  
O   -3.6427778    0.0002493    5.5944904  
C   -3.4275839    0.0000726    3.2011665  
O   -4.6406829   -0.0000333    3.0410059  
C   -2.4891866    0.0001091    2.0816745  
H   -1.0150448   -0.0001615    5.8354244  
H   -2.8919121    0.0002919    1.0779135  
H    2.1388271   -0.0000662    1.9961646  
H    1.3735872    0.0006099    4.3830260  
