60

C    1.1188639    0.0008263   -0.8003808  
C    0.0000000    0.0000000    0.0000000  
C   -1.1323865    0.0008862   -0.8673522  
C   -0.6382666    0.0019660   -2.1969278  
N    0.7324011    0.0038510   -2.1202243  
C   -1.4770923    0.0027271   -3.3154802  
C   -2.8395484    0.0020849   -3.0876850  
O   -3.7039207    0.0024300   -4.1440337  
C   -3.3517873    0.0013817   -1.7684321  
O   -4.7300503    0.0012205   -1.7073108  
C   -2.5248544    0.0009039   -0.6644812  
H   -1.1067583    0.0036956   -4.3313805  
H   -4.5940043    0.0021674   -3.7685115  
H   -4.9934608    0.0007093   -0.7819901  
H   -2.9462577    0.0005502    0.3339664  
H    2.1619893    0.0009431   -0.5342073  
C    2.8040010   -0.7159316   -3.3653712  
C    1.6478424   -0.0100038   -3.2703003  
C    1.4957339    0.7174325   -4.5082562  
C    2.6664261    0.3749593   -5.3383053  
N    3.4207000   -0.4973303   -4.5879241  
C    2.8929060    0.8596084   -6.5855127  
C    1.9187379    1.7801327   -7.1477993  
O    2.0328387    2.2713110   -8.2631580  
C    0.6714693    2.1569302   -6.2863174  
O   -0.1553226    2.9312425   -6.7490450  
C    0.5367433    1.5697119   -4.9555752  
H    3.7580930    0.5955406   -7.1776530  
H   -0.3298251    1.8355600   -4.3655685  
H    3.2575108   -1.3773045   -2.6450906  
C    4.6866492   -1.1060451   -5.0212133  
C    5.4739423   -1.9683831   -4.3370195  
C    6.5894294   -2.2460813   -5.2286877  
C    6.3063498   -1.4465012   -6.4399353  
N    5.1923117   -0.7760558   -6.3241283  
C    7.1874411   -1.4472190   -7.5751724  
C    8.3009195   -2.2116554   -7.5034745  
O    9.2104067   -2.3072269   -8.4882285  
C    8.6145367   -3.0294444   -6.2947455  
O    9.6456609   -3.7017438   -6.2988947  
C    7.6949848   -3.0118959   -5.1432073  
H    5.3171355   -2.3667591   -3.3492016  
H    6.9556759   -0.8534726   -8.4473297  
H    9.8839848   -2.9216774   -8.1448691  
H    7.9580761   -3.6179743   -4.2866552  
C    2.4951002    2.0940188    2.9809380  
C    1.9440701    1.6314916    1.8291961  
C    0.8759964    0.7350050    2.2038498  
C    0.8497377    0.7130254    3.6788474  
N    1.8560616    1.5571714    4.0882609  
C   -0.0205033   -0.0168748    4.4215661  
C   -0.9962600   -0.8356168    3.7214979  
O   -1.8224391   -1.5286685    4.3006425  
C   -0.9864710   -0.8277881    2.1595606  
O   -1.8030528   -1.5133726    1.5592035  
C    0.0000000    0.0000000    1.4700000  
H    2.2509283    1.8888011    0.8310761  
H   -0.0229599   -0.0187323    5.5027230  
H    3.3143982    2.7817323    3.1139444  
H    2.0889452    1.7545833    5.0442112  
