58

C    3.2573668   -0.0002917   -1.5109385  
C    2.5379467   -0.0001706   -0.3591963  
C    1.1435041    0.0000333   -0.7338499  
C    1.1092603   -0.0000080   -2.2088473  
N    2.4227558    0.0001912   -2.6182611  
C   -0.0265539   -0.0002521   -2.9515659  
C   -1.3003041   -0.0002638   -2.2514973  
O   -2.3786791   -0.0004131   -2.8306423  
C   -1.2877726    0.0000313   -0.6895601  
O   -2.3539955    0.0003306   -0.0892030  
C    0.0000000    0.0000000    0.0000000  
H    2.9384090   -0.0000365    0.6389235  
H   -0.0296301   -0.0004082   -4.0327230  
H    4.3270393   -0.0004761   -1.6439451  
C    5.7040765   -2.1117450   -4.6322120  
C    5.5266109   -1.6490474   -5.8965268  
C    4.3947067   -0.7532597   -5.8619885  
C    3.9239244   -0.7318312   -4.4638843  
N    4.7594829   -1.5762331   -3.7698258  
C    2.8699635   -0.0020523   -4.0185829  
C    2.1511670    0.8167851   -4.9805457  
O    1.1885413    1.5096470   -4.6779000  
C    2.6322108    0.8091508   -6.4665956  
O    2.0346724    1.4943473   -7.2855673  
C    3.7812697   -0.0180910   -6.8260214  
H    6.1207058   -1.9060839   -6.7553616  
H    4.1081478   -0.0176445   -7.8569797  
H    4.6944954   -1.7716421   -2.7876654  
C    6.7149387   -3.0490616   -4.1218246  
C    7.7150145   -3.6777734   -4.7916346  
C    8.4225266   -4.4879127   -3.8283410  
C    7.7478087   -4.2781637   -2.5331378  
N    6.7216844   -3.3953029   -2.7791367  
C    8.1172599   -4.8697992   -1.3690165  
C    9.2555249   -5.7732906   -1.3933115  
O    9.6658400   -6.3546890   -0.3973606  
C    9.9852151   -6.0099992   -2.7539462  
O   10.9449913   -6.7683003   -2.7866686  
C    9.4941332   -5.3155461   -3.9415594  
H    7.9323998   -3.5845044   -5.8407574  
H    7.6086555   -4.7024264   -0.4297523  
H   10.0047727   -5.4850152   -4.8797768  
H    6.0758024   -3.0564306   -2.0898978  
C    2.4951002    2.0940188    2.9809380  
C    1.9440701    1.6314916    1.8291961  
C    0.8759964    0.7350050    2.2038498  
C    0.8497377    0.7130254    3.6788474  
N    1.8560616    1.5571714    4.0882609  
C   -0.0205033   -0.0168748    4.4215661  
C   -0.9962600   -0.8356168    3.7214979  
O   -1.8224391   -1.5286685    4.3006425  
C   -0.9864710   -0.8277881    2.1595606  
O   -1.8030528   -1.5133726    1.5592035  
C    0.0000000    0.0000000    1.4700000  
H    2.2509283    1.8888011    0.8310761  
H   -0.0229599   -0.0187323    5.5027230  
H    3.3143982    2.7817323    3.1139444  
H    2.0889452    1.7545833    5.0442112  
