60

C    1.1243403    0.0100029   -0.7919009  
C    0.7474064    0.0234619   -2.1148552  
C   -0.6787394    0.0234431   -2.1414700  
C   -1.1201752    0.0098490   -0.7935546  
N    0.0000000    0.0000000    0.0000000  
C   -2.4730820    0.0063480   -0.4408229  
C   -3.3971966    0.0170669   -1.4675046  
O   -4.7313529    0.0145821   -1.1793447  
C   -2.9763667    0.0303235   -2.8186309  
O   -4.0166495    0.0394751   -3.7247606  
C   -1.6418583    0.0335116   -3.1673474  
H    1.4178696    0.0311112   -2.9571216  
H   -2.8160166   -0.0041375    0.5845978  
H   -5.1938831    0.0230387   -2.0274364  
H   -3.6464704    0.0481967   -4.6127325  
H    2.1062461    0.0053017   -0.3505415  
C    1.5662356   -2.0369162   -5.3849803  
C    0.7247490   -1.5841809   -4.4200930  
C   -0.2036066   -0.6824642   -5.0603260  
C    0.1686564   -0.6467444   -6.4875381  
N    1.2488382   -1.4887384   -6.6184712  
C   -0.4698326    0.0914794   -7.4304386  
C   -1.5988986    0.9053202   -7.0116215  
O   -2.2390138    1.6051045   -7.7854791  
C   -2.0104680    0.8829708   -5.5049968  
O   -2.9592560    1.5643190   -5.1405433  
C   -1.2456357    0.0471620   -4.5828760  
H    0.7514465   -1.8512621   -3.3786672  
H   -0.1807858    0.1033808   -8.4721781  
H    2.3916716   -2.7247378   -5.2986885  
C    2.9344093   -5.1890047   -8.3398981  
C    2.3251598   -4.2788753   -7.5370563  
C    2.3967062   -3.0055807   -8.2141356  
C    3.1026152   -3.2502635   -9.4863829  
N    3.4017938   -4.5930796   -9.5014333  
C    3.3707405   -2.2955765  -10.4128742  
C    2.9351868   -0.9363093  -10.1386119  
O    3.1292851   -0.0061630  -10.9102684  
C    2.1860410   -0.6542877   -8.7973254  
O    1.8148264    0.4862795   -8.5553171  
C    1.9550499   -1.7654723   -7.8776710  
H    1.8769586   -4.4768645   -6.5797008  
H    3.8897700   -2.4961745  -11.3398479  
H    3.0814695   -6.2448931   -8.1806408  
H    3.8834910   -5.0675344  -10.2429915  
C    2.4951002    2.0940188    2.9809380  
C    1.9440701    1.6314916    1.8291961  
C    0.8759964    0.7350050    2.2038498  
C    0.8497377    0.7130254    3.6788474  
N    1.8560616    1.5571714    4.0882609  
C   -0.0205033   -0.0168748    4.4215661  
C   -0.9962600   -0.8356168    3.7214979  
O   -1.8224391   -1.5286685    4.3006425  
C   -0.9864710   -0.8277881    2.1595606  
O   -1.8030528   -1.5133726    1.5592035  
C    0.0000000    0.0000000    1.4700000  
H    2.2509283    1.8888011    0.8310761  
H   -0.0229599   -0.0187323    5.5027230  
H    3.3143982    2.7817323    3.1139444  
H    2.0889452    1.7545833    5.0442112  
