58

C    5.9870137   -1.8395315   -4.9503392  
C    7.0481945   -2.6538694   -4.7161935  
C    7.8987005   -2.5824485   -5.8808286  
C    7.2413317   -1.6530633   -6.8193913  
N    6.0872505   -1.2382219   -6.1957788  
C    7.7318260   -1.3176802   -8.0394892  
C    8.9911249   -1.9118817   -8.4561739  
O    9.5150839   -1.6732674   -9.5363723  
C    9.7045411   -2.8990560   -7.4782525  
O   10.7651540   -3.4057630   -7.8182685  
C    9.0779993   -3.1825518   -6.1894840  
H    7.2159258   -3.2380760   -3.8289611  
H    7.2338712   -0.6337406   -8.7126737  
H    9.5784670   -3.8669781   -5.5180550  
H    5.4214739   -0.5958620   -6.5845752  
C    4.6190968   -2.0899186   -2.8279649  
C    3.4606683   -1.6280057   -2.2906061  
C    2.8761397   -0.7301693   -3.2586202  
C    3.7955631   -0.7067284   -4.4122673  
N    4.8319966   -1.5514031   -4.0878913  
C    3.5979916    0.0246977   -5.5381831  
C    2.3999528    0.8436572   -5.6190795  
O    2.1321346    1.5380348   -6.5908891  
C    1.4124499    0.8342975   -4.4088912  
O    0.4006154    1.5200499   -4.4654210  
C    1.7334695    0.0049281   -3.2500363  
H    3.0613134   -1.8865706   -1.3260989  
H    4.2848598    0.0276109   -6.3731160  
H    5.3352944   -2.7782577   -2.4094675  
C    1.1319246    0.0015678   -0.8009268  
C    0.7969914    0.0034958   -2.1169401  
C   -0.6453340    0.0035696   -2.1842669  
C   -1.1266832    0.0015410   -0.7896025  
N    0.0000000    0.0000000    0.0000000  
C   -2.4346129    0.0013913   -0.4276292  
C   -3.4350111    0.0031335   -1.4820181  
O   -4.6384614    0.0030875   -1.2583914  
C   -2.9478961    0.0050442   -2.9661074  
O   -3.7809382    0.0062135   -3.8623773  
C   -1.5113825    0.0053055   -3.2312122  
H   -2.7664565    0.0000174    0.6013448  
H   -1.1823533    0.0068381   -4.2614848  
H    2.1104316    0.0009435   -0.3488059  
C    0.8400945    0.7047457    2.2710304  
C    0.0000000    0.0000000    1.4700000  
C   -0.8844236   -0.7423113    2.3369512  
C   -0.4878984   -0.4098547    3.7186280  
N    0.5629682    0.4714286    3.6095011  
C   -1.0836927   -0.9095027    4.8308716  
C   -2.1891196   -1.8367527    4.6554461  
O   -2.7906899   -2.3413415    5.5944904  
C   -2.6257283   -2.2031529    3.2011665  
O   -3.5549479   -2.9829990    3.0410059  
C   -1.9068976   -1.5999348    2.0816745  
H   -0.7774656   -0.6525820    5.8354244  
H   -2.2155208   -1.8586617    1.0779135  
H    1.6384792    1.3747609    1.9961646  
H    1.0518368    0.8833920    4.3830260  
