58

C    9.8088986   -0.7186932   -2.3184216  
C   11.1491937   -0.5004922   -2.3269321  
C   11.4180539    0.4261401   -3.4011304  
C   10.1151835    0.7321170   -4.0221755  
N    9.1809616    0.0062522   -3.3198651  
C    9.9432418    1.5717335   -5.0744038  
C   11.1199395    2.2169485   -5.6326288  
O   11.0692767    2.9896968   -6.5805712  
C   12.5099050    1.9072848   -4.9908283  
O   13.5077431    2.4443682   -5.4524768  
C   12.5685562    0.9850404   -3.8595117  
H   11.8675542   -0.9388001   -1.6572614  
H    8.9787040    1.7826130   -5.5149802  
H   13.5347460    0.7760918   -3.4207160  
H    9.2270878   -1.3482688   -1.6649528  
C    5.6506104    0.0006745   -0.6678804  
C    6.9152386    0.0024402   -1.1626405  
C    6.8040786    0.0027734   -2.6022511  
C    5.3606764    0.0010739   -2.9078305  
N    4.7161325   -0.0005435   -1.6923264  
C    4.8400804    0.0012319   -4.1610997  
C    5.7629697    0.0029815   -5.2839567  
O    5.3925547    0.0032000   -6.4506160  
C    7.2958240    0.0045468   -4.9836900  
O    8.0824530    0.0057192   -5.9209592  
C    7.7361583    0.0044930   -3.5908664  
H    7.8224232    0.0032175   -0.5850341  
H    3.7780219    0.0000965   -4.3634394  
H    5.3226857   -0.0000561    0.3589372  
C    3.2573665   -0.0002920   -1.5109385  
C    2.5379463   -0.0001709   -0.3591964  
C    1.1435038    0.0000331   -0.7338500  
C    1.1092599   -0.0000083   -2.2088477  
N    2.4227553    0.0001909   -2.6182613  
C   -0.0265539   -0.0002524   -2.9515660  
C   -1.3003040   -0.0002640   -2.2514977  
O   -2.3786790   -0.0004133   -2.8306421  
C   -1.2877727    0.0000311   -0.6895603  
O   -2.3539959    0.0003306   -0.0892030  
C    0.0000000    0.0000000    0.0000000  
H    2.9384091   -0.0000367    0.6389234  
H   -0.0296303   -0.0004086   -4.0327229  
H    2.7280482   -0.0013407   -3.5742119  
C    0.8681109    0.7263879    2.2709268  
C    0.6127770    0.5096195    3.5869401  
C   -0.4920590   -0.4175482    3.6542670  
C   -0.8620974   -0.7254003    2.2596025  
N    0.0000000    0.0000000    1.4700000  
C   -1.8641242   -1.5660088    1.8976294  
C   -2.6293522   -2.2103885    2.9520183  
O   -3.5512764   -2.9839180    2.7283916  
C   -2.2549728   -1.8987399    4.4361073  
O   -2.8923672   -2.4351063    5.3323774  
C   -1.1543735   -0.9755647    4.7012123  
H    1.1382914    0.9492124    4.4159191  
H   -2.1192137   -1.7782617    0.8686553  
H   -0.9013378   -0.7652422    5.7314848  
H    1.6172880    1.3558399    1.8188057  
