60

C    3.3003554    0.0005280   -1.4738974  
C    2.5232825    0.0003502   -2.6090734  
C    1.1623211   -0.0001316   -2.1820095  
C    1.1711890    0.0000585   -0.7636129  
N    2.4852304   -0.0014918   -0.3662346  
C    0.0000000    0.0000000    0.0000000  
C   -1.2020380    0.0000521   -0.6806481  
O   -2.3759249    0.0003491    0.0157740  
C   -1.2314649   -0.0005113   -2.0955512  
O   -2.5054378   -0.0008036   -2.6250186  
C   -0.0764500   -0.0007270   -2.8495193  
H    2.8036266    0.0088186    0.5858674  
H   -3.0835635    0.0000345   -0.6418823  
H   -2.4360032   -0.0011526   -3.5845929  
H   -0.1304078   -0.0013418   -3.9319085  
H    4.3715556    0.0004898   -1.3667116  
C    5.8843142   -2.1416048   -4.3706048  
C    5.8364461   -1.7353556   -5.6606626  
C    4.7035130   -0.8249887   -5.7254231  
C    4.1682360   -0.7974898   -4.3472701  
N    4.8563813   -1.5672820   -3.5486053  
C    3.0267452   -0.0008945   -3.9901689  
C    2.4466124    0.7350853   -4.9654196  
O    1.3754307    1.5237296   -4.7739743  
C    2.9636567    0.7287625   -6.3656999  
O    2.3859619    1.4229262   -7.2021366  
C    4.1359079   -0.0966501   -6.7069414  
H    6.4893666   -2.0184236   -6.4685255  
H    1.1962584    1.9150484   -5.6479989  
H    4.4795931   -0.0735996   -7.7324069  
C    7.8663408   -3.7009511   -4.3743755  
C    6.8389017   -3.0706748   -3.7489195  
C    6.8675606   -3.4882476   -2.3670201  
C    8.0040830   -4.4201222   -2.2377292  
N    8.5675435   -4.5064159   -3.4899095  
C    8.3667169   -5.0350548   -1.0835803  
C    7.5853800   -4.7609655    0.1109584  
O    7.8319816   -5.2656288    1.1985257  
C    6.3772655   -3.7774509   -0.0029048  
O    5.7119245   -3.5392335    0.9960115  
C    6.0844875   -3.1759158   -1.3014760  
H    9.2039821   -5.7151401   -1.0102261  
H    5.2464446   -2.4958722   -1.3718269  
H    8.1701269   -3.6449489   -5.4070744  
H    9.3664546   -5.0665072   -3.7246139  
C    0.8681109    0.7263879    2.2709268  
C    0.6127770    0.5096195    3.5869401  
C   -0.4920590   -0.4175482    3.6542670  
C   -0.8620974   -0.7254003    2.2596025  
N    0.0000000    0.0000000    1.4700000  
C   -1.8641242   -1.5660088    1.8976294  
C   -2.6293522   -2.2103885    2.9520183  
O   -3.5512764   -2.9839180    2.7283916  
C   -2.2549728   -1.8987399    4.4361073  
O   -2.8923672   -2.4351063    5.3323774  
C   -1.1543735   -0.9755647    4.7012123  
H    1.1382914    0.9492124    4.4159191  
H   -2.1192137   -1.7782617    0.8686553  
H   -0.9013378   -0.7652422    5.7314848  
H    1.6172880    1.3558399    1.8188057  
