58

C    2.8497500   -0.7283602   -3.3359970  
C    3.4914339   -0.5134522   -4.5133378  
C    2.6832175    0.4131995   -5.2702645  
C    1.5096738    0.7227764   -4.4313674  
N    1.6707640   -0.0012346   -3.2725974  
C    0.5071665    1.5634835   -4.7917776  
C    0.5893840    2.2061566   -6.0928336  
O   -0.2632818    2.9796306   -6.5087674  
C    1.8232403    1.8926652   -6.9978897  
O    1.9032033    2.4275856   -8.0954899  
C    2.8399721    0.9695592   -6.4999103  
H    4.4243724   -0.9539526   -4.8169812  
H   -0.3448597    1.7770156   -4.1614080  
H    3.1388486   -1.3569184   -2.5094213  
C    1.0965516    0.0001357   -0.8010304  
C    0.0000000    0.0000000    0.0000000  
C   -1.1546563    0.0001468   -0.8669509  
C   -0.6372015    0.0003517   -2.2486279  
N    0.7342869    0.0007336   -2.1395013  
C   -1.4147739    0.0001346   -3.3608715  
C   -2.8576054   -0.0001053   -3.1854458  
O   -3.6427780   -0.0002503   -4.1244898  
C   -3.4275841   -0.0000727   -1.7311662  
O   -4.6406831    0.0000327   -1.5710054  
C   -2.4891866   -0.0001093   -0.6116739  
H   -1.0150452    0.0001612   -4.3654243  
H   -2.8919121   -0.0002921    0.3920870  
H    2.1388271    0.0000665   -0.5261650  
C    4.5873540   -0.5626695   -7.5183871  
C    5.6365024   -0.4977747   -8.3781261  
C    5.7418024    0.8757051   -8.8109079  
C    4.6602634    1.6109457   -8.1279103  
N    3.9969993    0.6819514   -7.3598351  
C    4.4226562    2.9391692   -8.2730677  
C    5.2898798    3.6949869   -9.1614351  
O    5.1574430    4.8957165   -9.3589427  
C    6.4415226    2.9366844   -9.8952614  
O    7.1778758    3.5624334  -10.6459175  
C    6.5982957    1.5038159   -9.6582772  
H    6.2648065   -1.3184429   -8.6753669  
H    3.6239359    3.4592547   -7.7627087  
H    7.3982370    0.9862124  -10.1700414  
H    4.1956529   -1.4150599   -6.9874535  
C    2.5128556    2.1077716    2.9199648  
C    1.9592212    1.6432552    4.0696553  
C    0.8915788    0.7479214    3.6910360  
C    0.8684491    0.7287414    2.2159470  
N    1.8754542    1.5738793    1.8102719  
C    0.0000000    0.0000000    1.4700000  
C   -0.9772830   -0.8200135    2.1664417  
O   -1.8021297   -1.5120829    1.5842315  
C   -0.9711318   -0.8147624    3.7284083  
O   -1.7894187   -1.5009653    4.3257297  
C    0.0140216    0.0115358    4.4216297  
H    2.2638494    1.8988021    5.0689105  
H    0.0117648    0.0094386    5.5031631  
H    3.3327358    2.7953732    2.7900019  
H    2.1123206    1.7707734    0.8551938  
