62

C    3.3003540    0.0005278   -1.4738998  
C    2.5232805    0.0003501   -2.6090759  
C    1.1623190   -0.0001315   -2.1820106  
C    1.1711880    0.0000584   -0.7636147  
N    2.4852300   -0.0014918   -0.3662366  
C    0.0000000    0.0000000    0.0000000  
C   -1.2020387    0.0000521   -0.6806476  
O   -2.3759253    0.0003495    0.0157752  
C   -1.2314666   -0.0005110   -2.0955505  
O   -2.5054395   -0.0008035   -2.6250174  
C   -0.0764524   -0.0007269   -2.8495195  
H    2.8919942   -0.0005615   -3.6205312  
H    2.8036265    0.0088181    0.5858650  
H   -3.0835639    0.0000348   -0.6418810  
H   -2.4360058   -0.0011523   -3.5845915  
C    2.3021892   -2.1255945   -5.9826743  
C    1.8095055   -1.6629736   -4.7844624  
C    0.7354722   -0.7756715   -5.0906435  
C    0.6180392   -0.7363227   -6.5036503  
N    1.5855117   -1.5656955   -7.0142922  
C   -0.3411063    0.0395991   -7.1615055  
C   -1.1974987    0.7892236   -6.3786688  
O   -2.1530504    1.5644639   -6.9693768  
C   -1.0957968    0.7634648   -4.9673540  
O   -2.0200026    1.5643300   -4.3287602  
C   -0.1496428   -0.0015607   -4.3176960  
H    2.1795055   -1.9311003   -3.8096800  
H    1.7382175   -1.7475803   -7.9897811  
H   -0.4356876    0.0740456   -8.2381064  
H   -2.6345098    1.9978459   -6.2526892  
H   -1.8829388    1.4894726   -3.3794373  
H    3.1090410   -2.8095397   -6.1830936  
C    6.5323587    0.0028970   -4.4466895  
C    7.6043830    0.0022116   -3.6131198  
C    7.0889164    0.0013276   -2.2643689  
C    5.6181652    0.0015265   -2.3813358  
N    5.3453968    0.0028895   -3.7298481  
C    4.7630502    0.0004759   -1.3275418  
C    5.3290148   -0.0007197    0.0111956  
O    4.6424951   -0.0016576    1.0246013  
C    6.8840254   -0.0006987    0.1586629  
O    7.3720526   -0.0013929    1.2807546  
C    7.7018215    0.0002124   -1.0517340  
H    8.6382616    0.0024959   -3.9092760  
H    8.7776747    0.0000153   -0.9409915  
H    6.5095789    0.0036238   -5.5243585  
H    4.4257312    0.0017852   -4.1314206  
C    2.5528530    2.1414826    2.8079335  
C    2.0663498    1.7338582    4.0032312  
C    0.9804344    0.8229586    3.6752840  
C    0.9495562    0.7966882    2.1971295  
N    1.8690446    1.5676019    1.6831036  
C    0.0000000    0.0000000    1.4700000  
C   -0.8785127   -0.7372425    2.1869543  
O   -1.8187535   -1.5261249    1.6395491  
C   -0.8723269   -0.7321790    3.6796354  
O   -1.7010379   -1.4274584    4.2670412  
C    0.1115397    0.0933559    4.4024240  
H    2.4028853    2.0163452    4.9860947  
H   -2.2861435   -1.9184361    2.3990168  
H    0.0832434    0.0693689    5.4835595  
H    3.3664920    2.8238276    2.6198634  
