62

C   -1.0832748    0.2799545   -0.8003809  
C    0.0000000    0.0000000    0.0000000  
C    1.0959338   -0.2850048   -0.8673528  
C    0.6173515   -0.1620617   -2.1969283  
N   -0.7099358    0.1800522   -2.1202242  
C    1.4291478   -0.3732828   -3.3154813  
C    2.7481751   -0.7145398   -3.0876863  
O    3.5848057   -0.9317690   -4.1440355  
C    3.2442024   -0.8423941   -1.7684336  
O    4.5784087   -1.1880822   -1.7073132  
C    2.4438469   -0.6344307   -0.6644823  
H    1.0704196   -0.2812932   -4.3313817  
H    4.4464774   -1.1548613   -3.7685139  
H    4.8335201   -1.2536841   -0.7819922  
H    2.8518565   -0.7398302    0.3339649  
H   -2.0930551    0.5415903   -0.5342069  
C   -3.8692410    3.1713937   -2.8732838  
C   -2.8752659    2.4290943   -2.3209436  
C   -2.5140721    1.4215024   -3.2900321  
C   -3.3853235    1.6392137   -4.4606358  
N   -4.1835584    2.7141513   -4.1440610  
C   -3.3535744    0.8911211   -5.5924725  
C   -2.3976513   -0.2015225   -5.6623074  
O   -2.2918976   -0.9326757   -6.6382852  
C   -1.4652396   -0.4504217   -4.4341124  
O   -0.6566563   -1.3676101   -4.4812229  
C   -1.5926123    0.4231735   -3.2703000  
H   -2.4444012    2.5710567   -1.3458456  
H   -4.0013667    1.0676703   -6.4398835  
H   -4.8848883    3.1073405   -4.7445492  
C   -4.5913279    4.3203094   -2.3080554  
C   -4.4533476    4.9407111   -1.0880019  
C   -5.4026092    6.0047717   -1.0522595  
C   -6.0973913    5.9844161   -2.2887015  
N   -5.5787916    4.9507077   -3.0283763  
C   -7.1098621    6.8961743   -2.6023702  
C   -7.4269352    7.8455898   -1.6503978  
O   -8.4079783    8.7598738   -1.9046691  
C   -6.7447857    7.8822742   -0.4109853  
O   -7.1752378    8.8869252    0.4308754  
C   -5.7456673    6.9832854   -0.1009726  
H   -3.7537309    4.6614664   -0.3188776  
H   -5.8824338    4.6855994   -3.9478873  
H   -7.6430935    6.8860509   -3.5429898  
H   -8.4676875    9.3214142   -1.1208499  
H   -6.6640937    8.8416499    1.2446847  
H   -5.2407779    7.0361338    0.8565096  
C    2.5128556    2.1077716    2.9199648  
C    1.9592212    1.6432552    4.0696553  
C    0.8915788    0.7479214    3.6910360  
C    0.8684491    0.7287414    2.2159470  
N    1.8754542    1.5738793    1.8102719  
C    0.0000000    0.0000000    1.4700000  
C   -0.9772830   -0.8200135    2.1664417  
O   -1.8021297   -1.5120829    1.5842315  
C   -0.9711318   -0.8147624    3.7284083  
O   -1.7894187   -1.5009653    4.3257297  
C    0.0140216    0.0115358    4.4216297  
H    2.2638494    1.8988021    5.0689105  
H    0.0117648    0.0094386    5.5031631  
H    3.3327358    2.7953732    2.7900019  
H    2.1123206    1.7707734    0.8551938  
