58

C    7.4083172   -3.0552447   -2.1762527  
C    6.8405820   -1.8439131   -2.4095503  
C    7.9191652   -0.9042488   -2.6058271  
C    9.1707853   -1.6729514   -2.4667864  
N    8.7919741   -2.9697690   -2.2066779  
C   10.4150319   -1.1439965   -2.5841052  
C   10.5290929    0.2773084   -2.8659164  
O   11.6050937    0.8475977   -2.9895928  
C    9.2167288    1.1108036   -3.0168757  
O    9.3002182    2.3083511   -3.2538778  
C    7.9334966    0.4286327   -2.8691889  
H   11.3203652   -1.7255085   -2.4786293  
H    7.0295322    1.0128391   -2.9753699  
H    6.9323173   -4.0031490   -1.9844430  
H    9.4233742   -3.7364586   -2.0632602  
C    4.4498807   -2.0927813   -1.5965445  
C    3.2085348   -1.6305559   -1.8956811  
C    3.3524544   -0.7335190   -3.0179322  
C    4.7897029   -0.7108881   -3.3504915  
N    5.3998261   -1.5552206   -2.4517471  
C    5.3348521    0.0196507   -4.3558920  
C    4.4468029    0.8384416   -5.1642766  
O    4.8411378    1.5320447   -6.0925629  
C    2.9210858    0.8299296   -4.8297318  
O    2.1637301    1.5155489   -5.5032295  
C    2.4521483    0.0014840   -3.7217481  
H    2.2961916   -1.8884108   -1.3879858  
H    6.3918374    0.0219794   -4.5832375  
H    4.7506790   -2.7807341   -0.8231549  
C    0.0000000    0.0000000    0.0000000  
C    1.0662923   -0.0000101   -0.8334270  
C    0.4961873    0.0000065   -2.1718887  
C   -0.9663854   -0.0000848   -1.9540250  
N   -1.2632773   -0.0000083   -0.6828660  
C   -1.8985359   -0.0000514   -3.0477261  
C   -1.3925770    0.0004566   -4.3020547  
O   -2.1456378    0.0005414   -5.4151314  
C    0.0786240    0.0009326   -4.5545000  
O    0.4683767    0.0012591   -5.7221100  
C    1.0143171    0.0008444   -3.4159031  
H    2.1107200    0.0000633   -0.5721865  
H   -2.9622181   -0.0003268   -2.8593381  
H   -1.5042265    0.0009697   -6.1484419  
C    3.1301144    0.0010313    3.1728260  
C    2.5367765    0.0002768    1.9564670  
C    1.1089900   -0.0001027    2.2356185  
C    1.0177864    0.0004150    3.7115134  
N    2.1993570    0.0011613    4.2663826  
C   -0.2459220    0.0002880    4.3957118  
C   -1.3675327    0.0000606    3.6398520  
O   -2.6129319   -0.0000866    4.1448486  
C   -1.3083589   -0.0000910    2.1483229  
O   -2.3693264   -0.0004206    1.5241687  
C    0.0000000    0.0000000    1.4700000  
H    3.0096015    0.0001008    0.9892483  
H   -0.2829642    0.0004689    5.4753125  
H   -3.1967446   -0.0002093    3.3649027  
H    4.1849273    0.0015113    3.3971983  
