58

C    3.9135206   -0.7081242   -4.5250692  
C    2.8699641   -0.0020530   -4.0185824  
C    2.2916399    0.7390436   -5.1145536  
C    3.0895145    0.4044299   -6.3096355  
N    4.0568590   -0.4768157   -5.8847345  
C    2.8606213    0.9024535   -7.5511208  
C    1.7547618    1.8301066   -7.7216198  
O    1.4676781    2.3333360   -8.7998803  
C    0.8966360    2.1987798   -6.4696194  
O   -0.0368095    2.9789835   -6.6008450  
C    1.2404686    1.5971817   -5.1836520  
H    3.4577921    0.6439621   -8.4145320  
H    0.6412574    1.8574784   -4.3217267  
H    4.5900518   -1.3778175   -4.0193959  
C    5.5170317   -2.3970935   -6.6713682  
C    6.4749131   -2.6468053   -7.6009820  
C    6.6835267   -1.4185906   -8.3309173  
C    5.7620773   -0.4257364   -7.7461435  
N    5.0833961   -1.0820961   -6.7454068  
C    5.6556894    0.8621583   -8.1605265  
C    6.5052749    1.2995812   -9.2556981  
O    6.4838694    2.4395622   -9.7009907  
C    7.4884433    0.2648536   -9.8901464  
O    8.2084609    0.6215019  -10.8129868  
C    7.5128626   -1.0950910   -9.3574098  
H    6.9778136   -3.5844450   -7.7576262  
H    4.9733279    1.5744304   -7.7178516  
H    8.1965583   -1.8054043   -9.8020885  
H    5.0912669   -3.0631411   -5.9385688  
C    3.2573670   -0.0002921   -1.5109382  
C    2.5379468   -0.0001711   -0.3591962  
C    1.1435043    0.0000330   -0.7338498  
C    1.1092608   -0.0000085   -2.2088474  
N    2.4227562    0.0001906   -2.6182610  
C   -0.0265533   -0.0002525   -2.9515663  
C   -1.3003033   -0.0002641   -2.2514979  
O   -2.3786785   -0.0004132   -2.8306425  
C   -1.2877724    0.0000310   -0.6895608  
O   -2.3539956    0.0003306   -0.0892035  
C    0.0000000    0.0000000    0.0000000  
H    2.9384091   -0.0000370    0.6389240  
H   -0.0296290   -0.0004088   -4.0327231  
H    4.3270394   -0.0004767   -1.6439445  
C    0.0000000    0.0000000    1.4700000  
C    1.0541688    0.0001722    2.3260392  
C    0.5103138    0.0000454    3.6635956  
C   -0.9576371   -0.0002459    3.5155732  
N   -1.2018458    0.0001392    2.1615969  
C   -1.8348311   -0.0008317    4.5510609  
C   -1.2972847   -0.0009736    5.9014604  
O   -2.0050672   -0.0014265    6.9001319  
C    0.2542623   -0.0004184    6.0817573  
O    0.7184670   -0.0002256    7.2139121  
C    1.0974552   -0.0000873    4.8889129  
H    2.0940752    0.0005483    2.0517982  
H   -2.9081052   -0.0011668    4.4207061  
H    2.1707277    0.0000911    5.0223670  
H   -2.1128194   -0.0014912    1.7406791  
