58

C    4.6070604    0.0052287   -7.5479313  
C    3.3321670    0.0051169   -8.0156075  
C    3.4125984    0.0062352   -9.4572616  
C    4.8491557    0.0069838   -9.7935552  
N    5.5194775    0.0067211   -8.5920730  
C    5.3429040    0.0077134  -11.0576425  
C    4.3962758    0.0079909  -12.1605614  
O    4.7417246    0.0087001  -13.3348554  
C    2.8701730    0.0074616  -11.8276709  
O    2.0637321    0.0079957  -12.7479506  
C    2.4596443    0.0064064  -10.4257733  
H    2.4375074    0.0045222   -7.4187854  
H    6.4004059    0.0081250  -11.2825865  
H    1.4011386    0.0058401  -10.2037621  
H    6.5177397    0.0055330   -8.4895144  
C    2.4521485    0.0014838   -3.7217479  
C    3.5087829    0.0013019   -2.8687536  
C    4.7039153    0.0022078   -3.6789965  
C    4.2537129    0.0029668   -5.0840262  
N    2.8785571    0.0020813   -5.0411852  
C    5.0840330    0.0043211   -6.1574650  
C    6.5167217    0.0048558   -5.9126433  
O    7.3462788    0.0059997   -6.8127180  
C    7.0158850    0.0038165   -4.4325618  
O    8.2198463    0.0039481   -4.2140696  
C    6.0245774    0.0026608   -3.3596404  
H    3.4569042    0.0004295   -1.7945464  
H    6.3784142    0.0021513   -2.3376213  
H    2.2773147    0.0038587   -5.8446475  
C    0.0000000    0.0000000    0.0000000  
C    1.0662924   -0.0000102   -0.8334267  
C    0.4961874    0.0000064   -2.1718888  
C   -0.9663853   -0.0000849   -1.9540250  
N   -1.2632772   -0.0000084   -0.6828660  
C   -1.8985357   -0.0000515   -3.0477261  
C   -1.3925767    0.0004566   -4.3020548  
O   -2.1456375    0.0005411   -5.4151316  
C    0.0786242    0.0009324   -4.5545000  
O    0.4683770    0.0012590   -5.7221099  
C    1.0143173    0.0008443   -3.4159029  
H    2.1107200    0.0000632   -0.5721862  
H   -2.9622180   -0.0003269   -2.8593382  
H   -1.5042262    0.0009694   -6.1484423  
C    3.2798086   -0.0005857    2.9199648  
C    2.5571146   -0.0005566    4.0696553  
C    1.1637436   -0.0001548    3.6910360  
C    1.1336965    0.0000200    2.2159470  
N    2.4483514    0.0001428    1.8102719  
C    0.0000000    0.0000000    1.4700000  
C   -1.2757367    0.0000186    2.1664417  
O   -2.3524596    0.0000640    1.5842315  
C   -1.2676493    0.0000873    3.7284083  
O   -2.3355761    0.0004100    4.3257297  
C    0.0181563   -0.0001760    4.4216297  
H    2.9547357   -0.0006076    5.0689105  
H    0.0150794   -0.0003319    5.5031631  
H    4.3498549   -0.0008612    2.7900019  
H    2.7563627   -0.0012824    0.8551938  
