60

C   -3.3002794   -0.0223200   -1.4738975  
C   -2.5232245   -0.0170111   -2.6090737  
C   -1.1622959   -0.0075430   -2.1820094  
C   -1.1711628   -0.0077918   -0.7636135  
N   -2.4851861   -0.0149181   -0.3662351  
C    0.0000000    0.0000000    0.0000000  
C    1.2020127    0.0078850   -0.6806478  
O    2.3758749    0.0153388    0.0157740  
C    1.2314351    0.0086424   -2.0955507  
O    2.5053784    0.0173469   -2.6250181  
C    0.0764446    0.0012319   -2.8495193  
H   -2.8035074   -0.0273303    0.5858668  
H    3.0834965    0.0203259   -0.6418813  
H    2.4359429    0.0172374   -3.5845921  
H    0.1303967    0.0022029   -3.9319081  
H   -4.3714567   -0.0293549   -1.3667122  
C   -3.0266843   -0.0190908   -3.9901688  
C   -4.3102568   -0.0274553   -4.4333923  
C   -4.2574057   -0.0256950   -5.8763195  
C   -2.8275741   -0.0155757   -6.2400093  
N   -2.1344213   -0.0115780   -5.0515598  
C   -2.3580942   -0.0115305   -7.5133029  
C   -3.3256131   -0.0173184   -8.5979262  
O   -3.0026862   -0.0142655   -9.7786079  
C   -4.8450384   -0.0278005   -8.2359275  
O   -5.6689089   -0.0324353   -9.1406243  
C   -5.2286797   -0.0316414   -6.8264395  
H   -5.1933219   -0.0339179   -3.8195778  
H   -1.3051105   -0.0042227   -7.7584188  
H   -1.1343944   -0.0062822   -4.9681011  
C   -7.7979003    1.9609603   -3.7779831  
C   -6.7115087    1.5870654   -4.4932005  
C   -7.2221163    0.6662972   -5.4971755  
C   -8.6758092    0.5978264   -5.2351230  
N   -9.0192218    1.3547158   -4.2285566  
C   -9.5537837   -0.2199880   -6.0259625  
C   -9.0045466   -0.9365177   -7.0330670  
O   -9.7048125   -1.7413310   -7.8503458  
C   -7.5410241   -0.8882647   -7.3227800  
O   -7.1099951   -1.5667680   -8.2550180  
C   -6.6613089   -0.0417930   -6.4972428  
H   -5.6898354    1.8977967   -4.3564359  
H  -10.6121555   -0.2511358   -5.8119811  
H   -9.0422415   -2.1116278   -8.4611103  
H   -7.8403615    2.6383800   -2.9399660  
C    2.4951002    2.0940188    2.9809380  
C    1.9440701    1.6314916    1.8291961  
C    0.8759964    0.7350050    2.2038498  
C    0.8497377    0.7130254    3.6788474  
N    1.8560616    1.5571714    4.0882609  
C   -0.0205033   -0.0168748    4.4215661  
C   -0.9962600   -0.8356168    3.7214979  
O   -1.8224391   -1.5286685    4.3006425  
C   -0.9864710   -0.8277881    2.1595606  
O   -1.8030528   -1.5133726    1.5592035  
C    0.0000000    0.0000000    1.4700000  
H    2.2509283    1.8888011    0.8310761  
H   -0.0229599   -0.0187323    5.5027230  
H    3.3143982    2.7817323    3.1139444  
H    2.0889452    1.7545833    5.0442112  
