58

C    6.8258252   -1.9902023   -2.2240697  
C    7.4295614   -2.8226462   -1.3371569  
C    8.8400450   -2.8153812   -1.6458974  
C    9.0097749   -1.9039103   -2.7935922  
N    7.7513729   -1.4371356   -3.0959749  
C   10.1990331   -1.6256605   -3.3851543  
C   11.3914058   -2.2668463   -2.8563195  
O   12.5088969   -2.0810715   -3.3199997  
C   11.2350535   -3.2360710   -1.6414276  
O   12.2317928   -3.7819477   -1.1877876  
C    9.9007833   -3.4564896   -1.0891668  
H    6.9423972   -3.3785022   -0.5559347  
H   10.3017278   -0.9539046   -4.2260513  
H    9.8011102   -4.1288600   -0.2479135  
H    7.5384247   -0.7922981   -3.8348152  
C    4.3939404   -2.1065673   -1.5664975  
C    5.4031210   -1.6413498   -2.3470119  
C    4.8103418   -0.7457937   -3.3121172  
C    3.3627144   -0.7272473   -3.0278283  
N    3.1757285   -1.5729269   -1.9588325  
C    2.4521483    0.0014840   -3.7217481  
C    2.9297306    0.8221548   -4.8221798  
O    2.1884027    1.5142697   -5.5075342  
C    4.4587975    0.8175813   -5.1411452  
O    4.8725560    1.5043406   -6.0654971  
C    5.3421068   -0.0087721   -4.3221483  
H    6.3995022   -0.0062035   -4.5493762  
H    4.4376454   -2.7945221   -0.7378259  
H    2.2909015   -1.7703224   -1.5285256  
C    0.0000000    0.0000000    0.0000000  
C    1.0662923   -0.0000101   -0.8334270  
C    0.4961873    0.0000065   -2.1718887  
C   -0.9663854   -0.0000848   -1.9540250  
N   -1.2632773   -0.0000083   -0.6828660  
C   -1.8985359   -0.0000514   -3.0477261  
C   -1.3925770    0.0004566   -4.3020547  
O   -2.1456378    0.0005414   -5.4151314  
C    0.0786240    0.0009326   -4.5545000  
O    0.4683767    0.0012591   -5.7221100  
C    1.0143171    0.0008444   -3.4159031  
H    2.1107200    0.0000633   -0.5721865  
H   -2.9622181   -0.0003268   -2.8593381  
H   -1.5042265    0.0009697   -6.1484419  
C    1.0672568    0.0000697    2.3021913  
C    0.0000000    0.0000000    1.4700000  
C   -1.1601224    0.0000736    2.3478473  
C   -0.5938729    0.0000769    3.7138435  
N    0.7113367    0.0001554    3.6934124  
C   -1.4286986    0.0001879    4.8835240  
C   -2.7683114    0.0006799    4.6970523  
O   -3.6653903    0.0008304    5.6976972  
C   -3.3702025    0.0010610    3.3310774  
O   -4.5974910    0.0013779    3.2362962  
C   -2.4926826    0.0008943    2.1470656  
H   -0.9878360   -0.0000190    5.8697035  
H   -4.5324246    0.0012261    5.2533954  
H   -2.9677772    0.0012974    1.1752040  
H    2.1134392    0.0000545    2.0405121  
