58

C    1.0965515    0.0001360   -0.8010307  
C    0.0000000    0.0000000    0.0000000  
C   -1.1546563    0.0001472   -0.8669511  
C   -0.6372017    0.0003524   -2.2486278  
N    0.7342869    0.0007340   -2.1395012  
C   -1.4147741    0.0001358   -3.3608716  
C   -2.8576051   -0.0001044   -3.1854456  
O   -3.6427780   -0.0002487   -4.1244900  
C   -3.4275842   -0.0000722   -1.7311660  
O   -4.6406833    0.0000335   -1.5710051  
C   -2.4891865   -0.0001088   -0.6116743  
H   -2.8919121   -0.0002918    0.3920869  
H    2.1388271    0.0000664   -0.5261648  
H    1.3735870   -0.0006094   -2.9130262  
C    1.9957409   -2.1407946   -5.0258946  
C    1.9855622   -1.7332332   -6.3163865  
C    0.8551744   -0.8225474   -6.4132066  
C    0.2799730   -0.7963189   -5.0512082  
N    0.9444049   -1.5670709   -4.2336137  
C   -0.8712830    0.0001717   -4.7267109  
C   -1.4226090    0.7372654   -5.7177037  
O   -2.4987602    1.5259561   -5.5567517  
C   -0.8649837    0.7322393   -7.1023299  
O   -1.4179259    1.4273760   -7.9545387  
C    0.3165519   -0.0930913   -7.4101073  
H   -2.6523128    1.9181971   -6.4352280  
H    0.6899756   -0.0690833   -8.4250994  
H    2.6823199   -2.8229899   -4.5502983  
C    3.7449260   -5.6079967   -7.2535859  
C    4.4960839   -5.3238409   -8.3428969  
C    4.2918410   -3.9029236   -8.5790719  
C    3.3638007   -3.4769547   -7.5095510  
N    3.0397588   -4.4721398   -6.7294272  
C    2.9087503   -2.1188225   -7.3933934  
C    3.3605886   -1.2267007   -8.3040499  
O    3.0183993    0.0728439   -8.3154804  
C    4.2980863   -1.6257476   -9.3949311  
O    4.6683745   -0.7610086  -10.1888665  
C    4.7503167   -3.0249690   -9.4928699  
H    5.1126952   -5.9954940   -8.9153882  
H    3.4962466    0.4483762   -9.0769198  
H    5.4294848   -3.2735801  -10.2973274  
H    3.6256264   -6.5587323   -6.7587708  
C    0.8400945    0.7047457    2.2710304  
C    0.0000000    0.0000000    1.4700000  
C   -0.8844236   -0.7423113    2.3369512  
C   -0.4878984   -0.4098547    3.7186280  
N    0.5629682    0.4714286    3.6095011  
C   -1.0836927   -0.9095027    4.8308716  
C   -2.1891196   -1.8367527    4.6554461  
O   -2.7906899   -2.3413415    5.5944904  
C   -2.6257283   -2.2031529    3.2011665  
O   -3.5549479   -2.9829990    3.0410059  
C   -1.9068976   -1.5999348    2.0816745  
H   -0.7774656   -0.6525820    5.8354244  
H   -2.2155208   -1.8586617    1.0779135  
H    1.6384792    1.3747609    1.9961646  
H    1.0518368    0.8833920    4.3830260  
