64

C    6.6264034    0.0033837   -4.4617160  
C    5.3881259    0.0033500   -3.8624359  
C    5.6076656    0.0015729   -2.4530391  
C    7.0115531    0.0008607   -2.2504935  
N    7.6002645    0.0000422   -3.4906689  
C    7.5921589   -0.0005664   -0.9786114  
C    6.7400255   -0.0009806    0.1086079  
O    7.2537877   -0.0020108    1.3731475  
C    5.3365285   -0.0006589   -0.0730885  
O    4.6231713   -0.0015684    1.1077858  
C    4.7630507    0.0004755   -1.3275395  
H    4.4428899    0.0033635   -4.3777239  
H    8.5891817    0.0099811   -3.6636579  
H    8.6613887   -0.0012595   -0.8175183  
H    6.4980454   -0.0024352    1.9749105  
H    3.6846505   -0.0012503    0.8961680  
C    4.1674519    0.0105076   -8.1957717  
C    4.5755632    0.0091916   -6.8820319  
C    6.0019373    0.0067363   -6.8891490  
C    6.4113757    0.0069510   -8.2471943  
N    5.2727477    0.0073130   -9.0140987  
C    7.7555624    0.0051974   -8.6318347  
C    8.7036956    0.0034976   -7.6272369  
O   10.0306635    0.0020953   -7.9468726  
C    8.3149317    0.0028801   -6.2664725  
O    9.3763500    0.0007325   -5.3851484  
C    6.9890432    0.0043359   -5.8862831  
H    3.9252030    0.0088074   -6.0241129  
H    5.2490244    0.0180933  -10.0177425  
H    8.0741528    0.0052063   -9.6651315  
H   10.5131178    0.0007473   -7.1099136  
H    9.0272713    0.0004766   -4.4886284  
H    3.1753847    0.0120266   -8.6138136  
C    3.3003548    0.0005276   -1.4738982  
C    2.5232817    0.0003497   -2.6090743  
C    1.1623204   -0.0001319   -2.1820101  
C    1.1711886    0.0000583   -0.7636140  
N    2.4852302   -0.0014919   -0.3662356  
C    0.0000000    0.0000000    0.0000000  
C   -1.2020379    0.0000520   -0.6806479  
O   -2.3759249    0.0003495    0.0157742  
C   -1.2314652   -0.0005112   -2.0955511  
O   -2.5054384   -0.0008036   -2.6250184  
C   -0.0764510   -0.0007271   -2.8495195  
H    2.8919962   -0.0005619   -3.6205297  
H    2.8036267    0.0088181    0.5858667  
H   -3.0835636    0.0000348   -0.6418823  
H   -2.4360038   -0.0011526   -3.5845925  
H   -0.1304090   -0.0013420   -3.9319089  
C    0.8681109    0.7263879    2.2709268  
C    0.6127770    0.5096195    3.5869401  
C   -0.4920590   -0.4175482    3.6542670  
C   -0.8620974   -0.7254003    2.2596025  
N    0.0000000    0.0000000    1.4700000  
C   -1.8641242   -1.5660088    1.8976294  
C   -2.6293522   -2.2103885    2.9520183  
O   -3.5512764   -2.9839180    2.7283916  
C   -2.2549728   -1.8987399    4.4361073  
O   -2.8923672   -2.4351063    5.3323774  
C   -1.1543735   -0.9755647    4.7012123  
H    1.1382914    0.9492124    4.4159191  
H   -2.1192137   -1.7782617    0.8686553  
H   -0.9013378   -0.7652422    5.7314848  
H    1.6172880    1.3558399    1.8188057  
