58

C    2.8497500   -0.7283602   -3.3359970  
C    3.4914339   -0.5134522   -4.5133378  
C    2.6832175    0.4131995   -5.2702645  
C    1.5096738    0.7227764   -4.4313674  
N    1.6707640   -0.0012346   -3.2725974  
C    0.5071665    1.5634835   -4.7917776  
C    0.5893840    2.2061566   -6.0928336  
O   -0.2632818    2.9796306   -6.5087674  
C    1.8232403    1.8926652   -6.9978897  
O    1.9032033    2.4275856   -8.0954899  
C    2.8399721    0.9695592   -6.4999103  
H    4.4243724   -0.9539526   -4.8169812  
H   -0.3448597    1.7770156   -4.1614080  
H    3.1388486   -1.3569184   -2.5094213  
C    1.0965516    0.0001357   -0.8010304  
C    0.0000000    0.0000000    0.0000000  
C   -1.1546563    0.0001468   -0.8669509  
C   -0.6372015    0.0003517   -2.2486279  
N    0.7342869    0.0007336   -2.1395013  
C   -1.4147739    0.0001346   -3.3608715  
C   -2.8576054   -0.0001053   -3.1854458  
O   -3.6427780   -0.0002503   -4.1244898  
C   -3.4275841   -0.0000727   -1.7311662  
O   -4.6406831    0.0000327   -1.5710054  
C   -2.4891866   -0.0001093   -0.6116739  
H   -1.0150452    0.0001612   -4.3654243  
H   -2.8919121   -0.0002921    0.3920870  
H    2.1388271    0.0000665   -0.5261650  
C    5.0680443   -2.7453238   -7.3553461  
C    4.1876574   -1.8283164   -6.8777567  
C    4.5331952   -0.5609750   -7.4771600  
C    5.6953709   -0.8166470   -8.3493811  
N    5.9701490   -2.1594927   -8.2304179  
C    6.3209632    0.1299527   -9.0938866  
C    5.8160887    1.4914911   -9.0318366  
O    6.3109110    2.4148909   -9.6649129  
C    4.5864262    1.7850964   -8.1144864  
O    4.1527064    2.9276717   -8.0539168  
C    3.9969993    0.6819514   -7.3598351  
H    3.3876168   -2.0180076   -6.1845282  
H    7.1719498   -0.0786506   -9.7273026  
H    5.1338615   -3.7997552   -7.1414949  
H    6.7105658   -2.6403281   -8.7075202  
C    2.3971438    2.0127888    3.1728260  
C    1.9431056    1.6308205    1.9564670  
C    0.8496017    0.7127664    2.2356185  
C    0.7794028    0.6545384    3.7115134  
N    1.6840587    1.4146091    4.2663826  
C   -0.1885723   -0.1578550    4.3957118  
C   -1.0476298   -0.8789867    3.6398520  
O   -2.0015663   -1.6796266    4.1448486  
C   -1.0022026   -0.8410666    2.1483229  
O   -1.8147390   -1.5232959    1.5241687  
C    0.0000000    0.0000000    1.4700000  
H    2.3054237    1.9346118    0.9892483  
H   -0.2170646   -0.1815267    5.4753125  
H   -2.4487139   -2.0549881    3.3649027  
H    3.2048689    2.6911772    3.3971983  
