58

C    9.8907256    0.7057280   -0.4465221  
C    9.3177130    0.0022291    0.5638345  
C   10.3735993   -0.7388246    1.2125089  
C   11.6176579   -0.4069887    0.4920970  
N   11.2565142    0.4727707   -0.5021308  
C   12.8413919   -0.9058061    0.8009039  
C   12.9397418   -1.8314438    1.9171737  
O   13.9968544   -2.3351880    2.2736180  
C   11.6349867   -2.1971628    2.6941364  
O   11.7053400   -2.9756530    3.6355524  
C   10.3743336   -1.5949534    2.2675824  
H   13.7415329   -0.6493627    0.2597082  
H    9.4755427   -1.8531997    2.8109132  
H    9.4301298    1.3745914   -1.1552977  
H   11.8881641    0.8839986   -1.1646695  
C    5.7851528    0.0009360   -1.9873452  
C    4.7795901    0.0008674   -1.0815733  
C    5.4416652    0.0014223    0.2138632  
C    6.8854798    0.0016738   -0.1054857  
N    7.0929836    0.0014713   -1.3942570  
C    7.8916463    0.0022759    0.9205334  
C    7.4744098    0.0030007    2.2070976  
O    8.3032740    0.0036099    3.2649370  
C    6.0244005    0.0031411    2.5615457  
O    5.7170387    0.0036916    3.7534974  
C    5.0115684    0.0024703    1.4909874  
H    7.7145743    0.0040689    4.0412004  
H    3.9717453    0.0027120    1.7893136  
H    5.7099328    0.0006295   -3.0631309  
C    3.3321168    0.0004716   -1.3379341  
C    2.6974177    0.0000118   -2.5332316  
C    1.2800432   -0.0002116   -2.2052842  
C    1.2395033    0.0000644   -0.7271298  
N    2.4394059    0.0005460   -0.2131041  
C    0.0000000    0.0000000    0.0000000  
C   -1.1468704    0.0000635   -0.7169542  
O   -2.3742206    0.0000074   -0.1695488  
C   -1.1388774    0.0001608   -2.2096352  
O   -2.2206238    0.0000906   -2.7970409  
C    0.1454514    0.0001818   -2.9324241  
H    3.1367978   -0.0000649   -3.5160956  
H   -2.9844350    0.0001027   -0.9290164  
H    0.1083567    0.0003684   -4.0135594  
C    0.0000000    0.0000000    1.4700000  
C    1.0662921    0.0000102    2.3034270  
C    0.4961870   -0.0000064    3.6418889  
C   -0.9663858    0.0000850    3.4240247  
N   -1.2632773    0.0000084    2.1528658  
C   -1.8985362    0.0000517    4.5177257  
C   -1.3925775   -0.0004564    5.7720543  
O   -2.1456383   -0.0005410    6.8851312  
C    0.0786232   -0.0009323    6.0245000  
O    0.4683759   -0.0012588    7.1921102  
C    1.0143166   -0.0008442    4.8859032  
H    2.1107198   -0.0000632    2.0421868  
H   -2.9622183    0.0003270    4.3293377  
H   -1.5042274   -0.0009692    7.6184419  
H    2.0724152   -0.0013148    5.1109744  
