58

C    6.6685704   -0.0005965    0.8976881  
C    7.6427401   -0.0013903   -0.0483928  
C    6.9825042   -0.0021114   -1.3324971  
C    5.5334437   -0.0016402   -1.0549828  
N    5.4101705   -0.0011222    0.3153067  
C    4.5679461   -0.0016852   -2.0086700  
C    4.9837201   -0.0024604   -3.4013893  
O    4.1902299   -0.0026236   -4.3334165  
C    6.5131876   -0.0032213   -3.7184579  
O    6.8752472   -0.0041837   -4.8872919  
C    7.4587617   -0.0028164   -2.6050207  
H    8.7028563   -0.0016447    0.1326236  
H    8.5159862   -0.0031429   -2.8330514  
H    6.7640836    0.0001114    1.9713577  
H    4.5400774    0.0008358    0.8152880  
C    3.1301152   -0.0010311   -1.7028251  
C    2.5367770   -0.0002766   -0.4864665  
C    1.1089905    0.0001028   -0.7656183  
C    1.0177873   -0.0004148   -2.2415130  
N    2.1993580   -0.0011610   -2.7963820  
C   -0.2459208   -0.0002877   -2.9257119  
C   -1.3675318   -0.0000605   -2.1698523  
O   -2.6129310    0.0000866   -2.6748492  
C   -1.3083584    0.0000911   -0.6783232  
O   -2.3693259    0.0004206   -0.0541692  
C    0.0000000    0.0000000    0.0000000  
H    3.0096019   -0.0001007    0.4807529  
H   -3.1967440    0.0002093   -1.8949035  
C    0.4920779   -0.6868678   -5.2544642  
C   -0.2963281   -0.0005339   -4.3948471  
C   -1.2145535    0.7451072   -5.2418312  
C   -0.8279315    0.3808332   -6.6218357  
N    0.1718593   -0.4583448   -6.6355552  
C   -1.5071728    0.9172630   -7.7689887  
C   -2.5265708    1.7781567   -7.5475753  
O   -3.2476960    2.3546073   -8.5241629  
C   -2.9407244    2.1650503   -6.1666509  
O   -3.8771697    2.9538492   -6.0398161  
C   -2.2282735    1.6012172   -5.0062931  
H   -1.2033753    0.6338251   -8.7661249  
H   -3.8964313    2.9117964   -8.0574346  
H   -2.5588923    1.9065103   -4.0225667  
H    1.3019156   -1.3594047   -5.0203046  
C    2.4951002    2.0940188    2.9809380  
C    1.9440701    1.6314916    1.8291961  
C    0.8759964    0.7350050    2.2038498  
C    0.8497377    0.7130254    3.6788474  
N    1.8560616    1.5571714    4.0882609  
C   -0.0205033   -0.0168748    4.4215661  
C   -0.9962600   -0.8356168    3.7214979  
O   -1.8224391   -1.5286685    4.3006425  
C   -0.9864710   -0.8277881    2.1595606  
O   -1.8030528   -1.5133726    1.5592035  
C    0.0000000    0.0000000    1.4700000  
H    2.2509283    1.8888011    0.8310761  
H   -0.0229599   -0.0187323    5.5027230  
H    3.3143982    2.7817323    3.1139444  
H    2.0889452    1.7545833    5.0442112  
