62

C    3.3003538    0.0005277   -1.4738997  
C    2.5232800    0.0003498   -2.6090755  
C    1.1623189   -0.0001317   -2.1820104  
C    1.1711885    0.0000584   -0.7636143  
N    2.4852296   -0.0014919   -0.3662366  
C    0.0000000    0.0000000    0.0000000  
C   -1.2020388    0.0000520   -0.6806474  
O   -2.3759248    0.0003495    0.0157753  
C   -1.2314671   -0.0005110   -2.0955505  
O   -2.5054396   -0.0008035   -2.6250170  
C   -0.0764528   -0.0007270   -2.8495192  
H    2.8919941   -0.0005617   -3.6205310  
H    2.8036262    0.0088181    0.5858654  
H   -3.0835648    0.0000349   -0.6418809  
H   -2.4360068   -0.0011524   -3.5845911  
H   -0.1304109   -0.0013418   -3.9319085  
C    6.5323583    0.0028966   -4.4466895  
C    7.6043827    0.0022111   -3.6131201  
C    7.0889160    0.0013272   -2.2643690  
C    5.6181649    0.0015263   -2.3813358  
N    5.3453965    0.0028891   -3.7298484  
C    4.7630498    0.0004756   -1.3275417  
C    5.3290147   -0.0007198    0.0111956  
O    4.6424950   -0.0016577    1.0246014  
C    6.8840251   -0.0006990    0.1586630  
O    7.3720527   -0.0013931    1.2807547  
C    7.7018213    0.0002121   -1.0517341  
H    8.6382616    0.0024954   -3.9092761  
H    6.5095784    0.0036233   -5.5243582  
H    4.4257310    0.0017850   -4.1314211  
C   10.8893592    2.1227944   -3.2637748  
C   11.9575574    1.6227372   -2.5557041  
C   11.4258701    0.7475104   -1.5627856  
C   10.0156379    0.7533294   -1.7148952  
N    9.7233989    1.6000727   -2.7552023  
C    9.1640947   -0.0000558   -0.9012156  
C    9.7468085   -0.7736383    0.0837679  
O    8.9619158   -1.5290442    0.9061544  
C   11.1519273   -0.7923992    0.2514136  
O   11.5785858   -1.6119752    1.2759147  
C   11.9925880   -0.0492091   -0.5507616  
H   12.9925808    1.8604898   -2.7323209  
H    8.8019725    1.7972174   -3.1017419  
H    9.5605454   -1.9842341    1.5125454  
H   12.5385446   -1.5672072    1.3215196  
H   13.0650126   -0.0836534   -0.3984507  
H   10.8668249    2.8120778   -4.0904186  
C    2.5128556    2.1077716    2.9199648  
C    1.9592212    1.6432552    4.0696553  
C    0.8915788    0.7479214    3.6910360  
C    0.8684491    0.7287414    2.2159470  
N    1.8754542    1.5738793    1.8102719  
C    0.0000000    0.0000000    1.4700000  
C   -0.9772830   -0.8200135    2.1664417  
O   -1.8021297   -1.5120829    1.5842315  
C   -0.9711318   -0.8147624    3.7284083  
O   -1.7894187   -1.5009653    4.3257297  
C    0.0140216    0.0115358    4.4216297  
H    2.2638494    1.8988021    5.0689105  
H    0.0117648    0.0094386    5.5031631  
H    3.3327358    2.7953732    2.7900019  
H    2.1123206    1.7707734    0.8551938  
