60

C    3.3003547    0.0005275   -1.4738980  
C    2.5232816    0.0003495   -2.6090742  
C    1.1623206   -0.0001320   -2.1820096  
C    1.1711889    0.0000583   -0.7636136  
N    2.4852300   -0.0014920   -0.3662353  
C    0.0000000    0.0000000    0.0000000  
C   -1.2020382    0.0000519   -0.6806479  
O   -2.3759247    0.0003494    0.0157745  
C   -1.2314650   -0.0005113   -2.0955508  
O   -2.5054383   -0.0008037   -2.6250181  
C   -0.0764510   -0.0007273   -2.8495192  
H    2.8919962   -0.0005621   -3.6205295  
H    2.8036265    0.0088181    0.5858667  
H   -3.0835641    0.0000347   -0.6418820  
H   -2.4360047   -0.0011529   -3.5845921  
C    6.5323613    0.0028960   -4.4466863  
C    7.6043852    0.0022107   -3.6131162  
C    7.0889175    0.0013270   -2.2643656  
C    5.6181663    0.0015259   -2.3813331  
N    5.3453991    0.0028887   -3.7298455  
C    4.7630506    0.0004754   -1.3275394  
C    5.3290149   -0.0007199    0.0111982  
O    4.6424952   -0.0016577    1.0246036  
C    6.8840255   -0.0006990    0.1586662  
O    7.3720522   -0.0013930    1.2807582  
C    7.7018226    0.0002119   -1.0517303  
H    8.6382635    0.0024950   -3.9092720  
H    8.7776753    0.0000148   -0.9409875  
H    6.5095816    0.0036227   -5.5243553  
H    4.4257333    0.0017844   -4.1314186  
C    0.6776457   -0.7282730   -5.1604451  
C    0.3570668   -0.5122898   -6.4622344  
C   -0.7499167    0.4146732   -6.4749881  
C   -1.0501122    0.7232609   -5.0638016  
N   -0.1496409   -0.0015614   -4.3176961  
C   -2.0330240    1.5639238   -4.6528574  
C   -2.8499150    2.2075899   -5.6681989  
O   -3.7597000    2.9811073   -5.3993804  
C   -2.5498356    1.8951556   -7.1689126  
O   -3.2311597    2.4309174   -8.0326358  
C   -1.4636358    0.9719958   -7.4879706  
H    0.8407339   -0.9522739   -7.3161047  
H   -2.2366034    1.7767220   -3.6125777  
H   -1.2621726    0.7611268   -8.5294455  
H    1.4485168   -1.3573555   -4.7458340  
C    2.3971438    2.0127888    3.1728260  
C    1.9431056    1.6308205    1.9564670  
C    0.8496017    0.7127664    2.2356185  
C    0.7794028    0.6545384    3.7115134  
N    1.6840587    1.4146091    4.2663826  
C   -0.1885723   -0.1578550    4.3957118  
C   -1.0476298   -0.8789867    3.6398520  
O   -2.0015663   -1.6796266    4.1448486  
C   -1.0022026   -0.8410666    2.1483229  
O   -1.8147390   -1.5232959    1.5241687  
C    0.0000000    0.0000000    1.4700000  
H    2.3054237    1.9346118    0.9892483  
H   -0.2170646   -0.1815267    5.4753125  
H   -2.4487139   -2.0549881    3.3649027  
H    3.2048689    2.6911772    3.3971983  
