58

C   -6.6576119    4.3966141    2.7791392  
C   -6.2703546    3.5867632    1.7601939  
C   -4.8306719    3.6658640    1.6834310  
C   -4.4078927    4.5948204    2.7488360  
N   -5.5625462    5.0027432    3.3759449  
C   -3.1195504    4.9356674    3.0051582  
C   -2.0799464    4.3485657    2.1762605  
O   -0.8900692    4.5925410    2.3278156  
C   -2.5048477    3.3623580    1.0419510  
O   -1.6384386    2.8620728    0.3374582  
C   -3.9252190    3.0721390    0.8625877  
H   -6.9191955    3.0009782    1.1337161  
H   -2.8308239    5.6189812    3.7916873  
H   -7.6508705    4.6017998    3.1441400  
H   -5.6032863    5.6407586    4.1494599  
C   -4.3137501    2.1424312   -0.2077332  
C   -5.5591253    1.7353211   -0.5466753  
C   -5.3648110    0.8246403   -1.6644421  
C   -3.9011721    0.7979210   -1.8733217  
N   -3.2797693    1.5684038   -1.0223199  
C   -3.2941076    0.0012878   -2.9038237  
C   -4.1120064   -0.7354732   -3.6896735  
O   -3.6822294   -1.5242481   -4.6892573  
C   -5.5930505   -0.7299489   -3.5035602  
O   -6.2763269   -1.4248017   -4.2555802  
C   -6.1916589    0.0955191   -2.4395140  
H   -6.4941462    2.0180132   -0.0940194  
H   -4.4926441   -1.9161859   -5.0617693  
H   -7.2683271    0.0718760   -2.3372581  
C    0.0000000    0.0000000    0.0000000  
C    1.0541688   -0.0001723   -0.8560392  
C    0.5103136   -0.0000455   -2.1935956  
C   -0.9576373    0.0002461   -2.0455730  
N   -1.2018460   -0.0001389   -0.6915968  
C   -1.8348314    0.0008319   -3.0810607  
C   -1.2972851    0.0009739   -4.4314603  
O   -2.0050676    0.0014268   -5.4301316  
C    0.2542619    0.0004184   -4.6117572  
O    0.7184666    0.0002257   -5.7439122  
C    1.0974551    0.0000873   -3.4189129  
H    2.0940752   -0.0005484   -0.5817983  
H    2.1707276   -0.0000912   -3.5523673  
H   -2.1128194    0.0014915   -0.2706789  
C    0.0000000    0.0000000    1.4700000  
C    1.0662921    0.0000102    2.3034270  
C    0.4961870   -0.0000064    3.6418889  
C   -0.9663858    0.0000850    3.4240247  
N   -1.2632773    0.0000084    2.1528658  
C   -1.8985362    0.0000517    4.5177257  
C   -1.3925775   -0.0004564    5.7720543  
O   -2.1456383   -0.0005410    6.8851312  
C    0.0786232   -0.0009323    6.0245000  
O    0.4683759   -0.0012588    7.1921102  
C    1.0143166   -0.0008442    4.8859032  
H    2.1107198   -0.0000632    2.0421868  
H   -2.9622183    0.0003270    4.3293377  
H   -1.5042274   -0.0009692    7.6184419  
H    2.0724152   -0.0013148    5.1109744  
