58

C    0.0000000    0.0000000    0.0000000  
C   -1.0257134   -0.2432765   -0.8560396  
C   -0.4965297   -0.1178047   -2.1935959  
C    0.9318086    0.2209125   -2.0455729  
N    1.1693271    0.2776832   -0.6915966  
C    1.7854273    0.4229171   -3.0810605  
C    1.2624444    0.2986410   -4.4314602  
O    1.9511999    0.4616520   -5.4301312  
C   -0.2472915   -0.0591245   -4.6117576  
O   -0.6989924   -0.1661381   -5.7439122  
C   -1.0677693   -0.2535250   -3.4189134  
H   -2.0375973   -0.4830608   -0.5817992  
H   -2.1120714   -0.5012072   -3.5523678  
H    2.0560527    0.4864722   -0.2706785  
C    4.6919076   -1.0883254   -0.2077320  
C    5.8096033   -0.4046194   -0.5466739  
C    5.4102343    0.4365712   -1.6644405  
C    3.9799881    0.1245635   -1.8733208  
N    3.5533133   -0.7685961   -1.0223190  
C    3.2053633    0.7594712   -2.9038232  
C    3.8310104    1.6651982   -3.6896724  
O    3.2306956    2.3334013   -4.6892564  
C    5.2732964    2.0018474   -3.5035586  
O    5.7776381    2.8357100   -4.2555783  
C    6.0463527    1.3369311   -2.4395123  
H    6.7846326   -0.4637418   -0.0940179  
H    3.9286925    2.9018970   -5.0617681  
H    7.0884579    1.6085756   -2.3372560  
C    7.5834178   -2.6129917    2.6735976  
C    6.8403197   -3.4925723    3.3847391  
C    5.5140897   -3.4300802    2.7900048  
C    5.6394188   -2.4350250    1.7033853  
N    6.8501942   -1.9526690    1.6302697  
C    4.5285798   -2.0826278    0.8625888  
C    3.3463786   -2.6966728    1.0964345  
O    2.2272568   -2.4644791    0.3895452  
C    3.1882396   -3.7054880    2.1852157  
O    2.0830065   -4.2244815    2.3411828  
C    4.3426442   -4.0498732    3.0341412  
H    7.1535002   -4.1078796    4.2108081  
H    1.5562611   -3.0469148    0.7891523  
H    4.1869071   -4.7854593    3.8118877  
H    8.6252443   -2.3665026    2.8032606  
C    3.2798086   -0.0005857    2.9199648  
C    2.5571146   -0.0005566    4.0696553  
C    1.1637436   -0.0001548    3.6910360  
C    1.1336965    0.0000200    2.2159470  
N    2.4483514    0.0001428    1.8102719  
C    0.0000000    0.0000000    1.4700000  
C   -1.2757367    0.0000186    2.1664417  
O   -2.3524596    0.0000640    1.5842315  
C   -1.2676493    0.0000873    3.7284083  
O   -2.3355761    0.0004100    4.3257297  
C    0.0181563   -0.0001760    4.4216297  
H    2.9547357   -0.0006076    5.0689105  
H    0.0150794   -0.0003319    5.5031631  
H    4.3498549   -0.0008612    2.7900019  
H    2.7563627   -0.0012824    0.8551938  
