64

C   -4.4706939    2.1246863   -0.3281855  
C   -5.6599773    1.6264302   -0.8075739  
C   -5.3396884    0.7516505   -1.8877475  
C   -3.9276469    0.7558733   -2.0220869  
N   -3.4313253    1.6012783   -1.0610604  
C   -3.2578655    0.0024282   -2.9908505  
C   -4.0275335   -0.7695739   -3.8392613  
O   -3.4247949   -1.5249625   -4.8031636  
C   -5.4377033   -0.7867282   -3.7211783  
O   -6.0624940   -1.6048442   -4.6396918  
C   -6.0991477   -0.0434783   -2.7658795  
H   -6.6381192    1.8650666   -0.4264133  
H   -2.4588255    1.7971334   -0.9065739  
H   -4.1336024   -1.9789340   -5.2772597  
H   -7.0119838   -1.5590482   -4.4914529  
H   -7.1803458   -0.0766723   -2.6996337  
C   -5.1713358    3.6494239    1.5667453  
C   -4.2126224    3.0647260    0.7720983  
C   -2.9479484    3.5469530    1.2222727  
C   -3.2000229    4.4299219    2.3033608  
N   -4.5601566    4.4708075    2.4849711  
C   -2.1796357    5.0916444    2.9930869  
C   -0.8811061    4.8575186    2.5842050  
O    0.1534855    5.4774953    3.2231613  
C   -0.6094426    3.9802700    1.5074275  
O    0.7338458    3.8520779    1.2202224  
C   -1.6156011    3.3273345    0.8263652  
H   -5.0358821    5.0062249    3.1885291  
H   -2.3651643    5.7659457    3.8177671  
H    0.9619955    5.1796887    2.7862545  
H    0.8302052    3.2429533    0.4817878  
H   -1.3768775    2.6613670    0.0054039  
H   -6.2428414    3.5466457    1.5502633  
C    0.0000000    0.0000000    0.0000000  
C    1.0521666   -0.0011982   -0.8862343  
C    0.4917215   -0.0011996   -2.1979132  
C   -0.9187429    0.0003215   -2.0478682  
N   -1.1833171   -0.0009323   -0.7007913  
C   -1.7951703    0.0010483   -3.1372089  
C   -1.2375841    0.0005313   -4.4010422  
O   -2.0474218    0.0015510   -5.4997578  
C    0.1673576   -0.0013585   -4.5711963  
O    0.5673520   -0.0020735   -5.8915554  
C    1.0325768   -0.0023493   -3.4969892  
H    2.0953056   -0.0030808   -0.6200564  
H   -2.0989778    0.0102529   -0.2891822  
H   -1.4634888    0.0006601   -6.2693595  
H    1.5290707   -0.0033271   -5.9180047  
H    2.1042146   -0.0039770   -3.6584456  
C    3.2798086   -0.0005857    2.9199648  
C    2.5571146   -0.0005566    4.0696553  
C    1.1637436   -0.0001548    3.6910360  
C    1.1336965    0.0000200    2.2159470  
N    2.4483514    0.0001428    1.8102719  
C    0.0000000    0.0000000    1.4700000  
C   -1.2757367    0.0000186    2.1664417  
O   -2.3524596    0.0000640    1.5842315  
C   -1.2676493    0.0000873    3.7284083  
O   -2.3355761    0.0004100    4.3257297  
C    0.0181563   -0.0001760    4.4216297  
H    2.9547357   -0.0006076    5.0689105  
H    0.0150794   -0.0003319    5.5031631  
H    4.3498549   -0.0008612    2.7900019  
H    2.7563627   -0.0012824    0.8551938  
