62

C   -1.1180411   -0.0429312   -0.8003805  
C    0.0000000    0.0000000    0.0000000  
C    1.1316170    0.0417291   -0.8673531  
C    0.6378871    0.0220551   -2.1969284  
N   -0.7317388   -0.0314100   -2.1202240  
C    1.4761466    0.0528618   -3.3154815  
C    2.8376136    0.1047761   -3.0876864  
O    3.7013860    0.1369597   -4.1440357  
C    3.3494642    0.1247556   -1.7684337  
O    4.7267435    0.1767841   -1.7073139  
C    2.5230994    0.0941136   -0.6644825  
H    1.1061107    0.0379576   -4.3313814  
H    4.5908292    0.1707182   -3.7685144  
H    4.9899496    0.1872078   -0.7819923  
H    2.9441917    0.1103253    0.3339650  
H   -2.1604229   -0.0823032   -0.5342061  
C   -1.6470538   -0.0520153   -3.2702993  
C   -3.0040410   -0.1018584   -3.2835855  
C   -3.4117972   -0.1011211   -4.6687097  
C   -2.1722425   -0.0463995   -5.4670208  
N   -1.1383075   -0.0182290   -4.5597859  
C   -2.1313506   -0.0298657   -6.8233976  
C   -3.3923450   -0.0683215   -7.5451653  
O   -3.4609496   -0.0572483   -8.7672424  
C   -4.7173462   -0.1262466   -6.7200458  
O   -5.7851350   -0.1586639   -7.3167344  
C   -4.6336719   -0.1396030   -5.2617341  
H   -3.6461039   -0.1351401   -2.4214594  
H   -5.5556642   -0.1800002   -4.6977991  
H   -0.1641243    0.0188939   -4.7977701  
C    1.8361404   -2.0151070   -6.2688771  
C    0.5323794   -1.6023934   -6.1194044  
C    0.2511361   -0.7123802   -7.1980049  
C    1.4310087   -0.6200223   -7.9798598  
N    2.3744000   -1.4217888   -7.3867317  
C    1.5172221    0.1730099   -9.1280998  
C    0.3917661    0.8855554   -9.4938935  
O    0.4209108    1.6753708  -10.6067079  
C   -0.7946948    0.8067201   -8.7264866  
O   -1.8283076    1.5754500   -9.2204930  
C   -0.8803795    0.0247885   -7.5934526  
H   -0.1336474   -1.9046716   -5.3294491  
H    3.3091317   -1.5651117   -7.7239508  
H    2.4135714    0.2478023   -9.7282380  
H   -0.4545460    2.0773384  -10.6792413  
H   -2.5912294    1.4654653   -8.6447698  
H    2.4251296   -2.6846421   -5.6657409  
C    0.0000000    0.0000000    1.4700000  
C    1.0541688    0.0001722    2.3260392  
C    0.5103138    0.0000454    3.6635956  
C   -0.9576371   -0.0002459    3.5155732  
N   -1.2018458    0.0001392    2.1615969  
C   -1.8348311   -0.0008317    4.5510609  
C   -1.2972847   -0.0009736    5.9014604  
O   -2.0050672   -0.0014265    6.9001319  
C    0.2542623   -0.0004184    6.0817573  
O    0.7184670   -0.0002256    7.2139121  
C    1.0974552   -0.0000873    4.8889129  
H    2.0940752    0.0005483    2.0517982  
H   -2.9081052   -0.0011668    4.4207061  
H    2.1707277    0.0000911    5.0223670  
H   -2.1128194   -0.0014912    1.7406791  
