58

C   -3.9842533    0.7274598   -1.9451215  
C   -5.3215321    0.5112353   -2.0400287  
C   -5.5219217   -0.4153216   -3.1291437  
C   -4.1821612   -0.7234082   -3.6647879  
N   -3.2941070    0.0012873   -2.9038242  
C   -3.9439549   -1.5635940   -4.7035614  
C   -5.0831544   -2.2072384   -5.3363977  
O   -4.9726023   -2.9803455   -6.2789399  
C   -6.5111621   -1.8953299   -4.7856604  
O   -7.4779434   -2.4310779   -5.3106061  
C   -6.6412915   -0.9726602   -3.6606720  
H   -6.0809397    0.9508047   -1.4181821  
H   -2.9533217   -1.7760294   -5.0809570  
H   -3.4448687    1.3563719   -1.2556112  
C    0.0000000    0.0000000    0.0000000  
C    1.0541692   -0.0001722   -0.8560391  
C    0.5103137   -0.0000451   -2.1935954  
C   -0.9576372    0.0002461   -2.0455729  
N   -1.2018458   -0.0001390   -0.6915967  
C   -1.8348308    0.0008317   -3.0810609  
C   -1.2972845    0.0009740   -4.4314602  
O   -2.0050669    0.0014267   -5.4301320  
C    0.2542629    0.0004190   -4.6117569  
O    0.7184677    0.0002265   -5.7439119  
C    1.0974559    0.0000878   -3.4189127  
H    2.0940757   -0.0005479   -0.5817978  
H    2.1707282   -0.0000904   -3.5523666  
H   -2.1128193    0.0014909   -0.2706791  
C   -8.5055080    2.7494491   -2.2628388  
C   -9.7396335    2.2782780   -1.9481870  
C   -9.7383615    0.8647854   -2.2429292  
C   -8.3926736    0.5488197   -2.7587589  
N   -7.6941644    1.7340672   -2.7460171  
C   -7.9898248   -0.6865446   -3.1502848  
C   -8.9454564   -1.7777471   -3.0576531  
O   -8.6786900   -2.9264433   -3.3857286  
C  -10.3763710   -1.4659412   -2.5144530  
O  -11.1895737   -2.3765456   -2.4322221  
C  -10.6929982   -0.0946249   -2.1231860  
H  -10.5575863    2.8551155   -1.5547064  
H  -11.6858795    0.1128922   -1.7478894  
H   -8.1205344    3.7530659   -2.1825978  
H   -6.7410902    1.8440848   -3.0402841  
C    3.3321173   -0.0004715    2.8079335  
C    2.6974184   -0.0000116    4.0032312  
C    1.2800439    0.0002118    3.6752840  
C    1.2395035   -0.0000644    2.1971295  
N    2.4394063   -0.0005460    1.6831036  
C    0.0000000    0.0000000    1.4700000  
C   -1.1468701   -0.0000635    2.1869543  
O   -2.3742202   -0.0000073    1.6395491  
C   -1.1388768   -0.0001607    3.6796354  
O   -2.2206231   -0.0000905    4.2670412  
C    0.1454524   -0.0001816    4.4024240  
H    3.1367986    0.0000651    4.9860947  
H   -2.9844344   -0.0001026    2.3990168  
H    0.1083576   -0.0003682    5.4835595  
H    4.3940039   -0.0007619    2.6198634  
