58

C    1.0965514    0.0001360   -0.8010308  
C    0.0000000    0.0000000    0.0000000  
C   -1.1546565    0.0001472   -0.8669509  
C   -0.6372020    0.0003523   -2.2486278  
N    0.7342866    0.0007341   -2.1395013  
C   -1.4147747    0.0001359   -3.3608714  
C   -2.8576056   -0.0001043   -3.1854457  
O   -3.6427786   -0.0002487   -4.1244898  
C   -3.4275844   -0.0000723   -1.7311657  
O   -4.6406831    0.0000333   -1.5710050  
C   -2.4891869   -0.0001088   -0.6116737  
H   -2.8919120   -0.0002918    0.3920871  
H    2.1388271    0.0000665   -0.5261656  
H    1.3735865   -0.0006094   -2.9130264  
C    1.9957403   -2.1407944   -5.0258951  
C    1.9855614   -1.7332329   -6.3163869  
C    0.8551735   -0.8225471   -6.4132069  
C    0.2799725   -0.7963187   -5.0512087  
N    0.9444043   -1.5670707   -4.2336137  
C   -0.8712836    0.0001718   -4.7267109  
C   -1.4226099    0.7372654   -5.7177040  
O   -2.4987615    1.5259564   -5.5567515  
C   -0.8649849    0.7322396   -7.1023299  
O   -1.4179272    1.4273765   -7.9545391  
C    0.3165509   -0.0930913   -7.4101073  
H    2.6616892   -2.0156322   -7.1051694  
H   -2.6523141    1.9181970   -6.4352279  
H    0.6899748   -0.0690831   -8.4250997  
C    2.9316266   -3.0707050   -4.3776027  
C    3.9826751   -3.7175670   -4.9329817  
C    4.5565506   -4.5003081   -3.8492461  
C    3.7040487   -4.1983010   -2.6793670  
N    2.7498040   -3.3609199   -2.9830095  
C    3.9453784   -4.7855952   -1.3902078  
C    4.9906005   -5.6362377   -1.2750859  
O    5.3316456   -6.2559244   -0.1324059  
C    5.8691003   -5.9613834   -2.4372734  
O    6.8025030   -6.7439895   -2.2597696  
C    5.6009493   -5.3460441   -3.7492858  
H    4.3260740   -3.6695615   -5.9522210  
H    3.3064432   -4.5468541   -0.5525479  
H    6.1113171   -6.7921132   -0.3642830  
H    6.2603975   -5.6075137   -4.5659816  
C    0.8681109    0.7263879    2.2709268  
C    0.6127770    0.5096195    3.5869401  
C   -0.4920590   -0.4175482    3.6542670  
C   -0.8620974   -0.7254003    2.2596025  
N    0.0000000    0.0000000    1.4700000  
C   -1.8641242   -1.5660088    1.8976294  
C   -2.6293522   -2.2103885    2.9520183  
O   -3.5512764   -2.9839180    2.7283916  
C   -2.2549728   -1.8987399    4.4361073  
O   -2.8923672   -2.4351063    5.3323774  
C   -1.1543735   -0.9755647    4.7012123  
H    1.1382914    0.9492124    4.4159191  
H   -2.1192137   -1.7782617    0.8686553  
H   -0.9013378   -0.7652422    5.7314848  
H    1.6172880    1.3558399    1.8188057  
