62

C   -3.3003525    0.0028978   -1.4739002  
C   -2.5232790    0.0022692   -2.6090757  
C   -1.1623180    0.0013383   -2.1820107  
C   -1.1711875    0.0011572   -0.7636146  
N   -2.4852268    0.0040713   -0.3662371  
C    0.0000000    0.0000000    0.0000000  
C    1.2020389   -0.0012995   -0.6806471  
O    2.3759232   -0.0028154    0.0157756  
C    1.2314659   -0.0007669   -2.0955500  
O    2.5054393   -0.0017967   -2.6250164  
C    0.0764541    0.0006478   -2.8495191  
H   -2.8919915    0.0035634   -3.6205315  
H   -2.8036343   -0.0059084    0.5858648  
H    3.0835630   -0.0032351   -0.6418802  
H    2.4360069   -0.0013755   -3.5845911  
H    0.1304128    0.0012067   -3.9319087  
C   -5.6692732    0.0055330   -2.3388927  
C   -4.7630478    0.0044679   -1.3275427  
C   -5.5107295    0.0054631   -0.0923071  
C   -6.9370590    0.0071786   -0.4696269  
N   -6.9650240    0.0075361   -1.8451661  
C   -7.9663585    0.0080977    0.4148203  
C   -7.6481523    0.0075732    1.8330165  
O   -8.5043564    0.0083789    2.7077820  
C   -6.1443504    0.0060137    2.2553710  
O   -5.8642055    0.0058670    3.4464962  
C   -5.1238516    0.0048446    1.2101762  
H   -4.0849821    0.0035626    1.5109631  
H   -5.4995454    0.0052399   -3.4033555  
H   -7.7983572    0.0070618   -2.4042749  
C   -9.3795225    0.0096288    0.0100166  
C   -9.9417504    0.0092113   -1.2455179  
C  -11.3570477    0.0106521   -1.0679476  
C  -11.6012112    0.0122079    0.3293027  
N  -10.3790771    0.0095867    0.9546006  
C  -12.8897807    0.0141879    0.8718651  
C  -13.9512031    0.0149120   -0.0121930  
O  -15.2304473    0.0171857    0.4637731  
C  -13.7278926    0.0130095   -1.4096715  
O  -14.8870519    0.0136155   -2.1577968  
C  -12.4569585    0.0107824   -1.9456267  
H   -9.3986097    0.0069103   -2.1750265  
H  -10.2355220    0.0204671    1.9482080  
H  -13.0825689    0.0152364    1.9358360  
H  -15.8094915    0.0170176   -0.3095135  
H  -14.6476450    0.0122590   -3.0896155  
H  -12.3170697    0.0091777   -3.0202927  
C    2.4951002    2.0940188    2.9809380  
C    1.9440701    1.6314916    1.8291961  
C    0.8759964    0.7350050    2.2038498  
C    0.8497377    0.7130254    3.6788474  
N    1.8560616    1.5571714    4.0882609  
C   -0.0205033   -0.0168748    4.4215661  
C   -0.9962600   -0.8356168    3.7214979  
O   -1.8224391   -1.5286685    4.3006425  
C   -0.9864710   -0.8277881    2.1595606  
O   -1.8030528   -1.5133726    1.5592035  
C    0.0000000    0.0000000    1.4700000  
H    2.2509283    1.8888011    0.8310761  
H   -0.0229599   -0.0187323    5.5027230  
H    3.3143982    2.7817323    3.1139444  
H    2.0889452    1.7545833    5.0442112  
