58

C    2.1650273   -2.1089233   -5.9297627  
C    1.5723610   -1.6445171   -7.0598728  
C    0.5184577   -0.7489611   -6.6450207  
C    0.5459261   -0.7295304   -5.1700096  
N    1.5661290   -1.5747500   -4.7989578  
C   -0.2963289   -0.0005348   -4.3948470  
C   -1.2968014    0.8195076   -5.0575088  
O   -2.1010996    1.5117971   -4.4474759  
C   -1.3442157    0.8139937   -6.6187670  
O   -2.1824053    1.5002182   -7.1877959  
C   -0.3835308   -0.0125674   -7.3452199  
H    1.8425083   -1.9002766   -8.0689422  
H   -0.4228724   -0.0106511   -8.4260399  
H    2.9887832   -2.7966250   -5.8278714  
H    1.8355784   -1.7715193   -3.8525297  
C    3.1301148   -0.0010315   -1.7028253  
C    2.5367766   -0.0002767   -0.4864666  
C    1.1089903    0.0001025   -0.7656183  
C    1.0177867   -0.0004153   -2.2415131  
N    2.1993574   -0.0011616   -2.7963821  
C   -0.2459218   -0.0002884   -2.9257117  
C   -1.3675324   -0.0000610   -2.1698519  
O   -2.6129318    0.0000862   -2.6748483  
C   -1.3083588    0.0000908   -0.6783229  
O   -2.3693264    0.0004202   -0.0541688  
C    0.0000000    0.0000000    0.0000000  
H    3.0096015   -0.0001006    0.4807520  
H   -3.1967441    0.0002093   -1.8949029  
C    6.5698747   -0.0006428    0.9721603  
C    7.6069602   -0.0018571    0.1026602  
C    6.9912939   -0.0024309   -1.2154652  
C    5.5370519   -0.0015110   -0.9475768  
N    5.2839241   -0.0003803    0.3330149  
C    4.5679459   -0.0016858   -2.0086704  
C    5.0305951   -0.0023432   -3.2796108  
O    4.2398089   -0.0025856   -4.3662103  
C    6.4922740   -0.0029076   -3.5823567  
O    6.8417591   -0.0036182   -4.7626446  
C    7.4664602   -0.0027586   -2.4765150  
H    8.6597315   -0.0022174    0.3279326  
H    4.8556972   -0.0030421   -5.1210842  
H    8.5162190   -0.0030663   -2.7377369  
H    6.6068542    0.0001033    2.0499385  
C    0.8400945    0.7047457    2.2710304  
C    0.0000000    0.0000000    1.4700000  
C   -0.8844236   -0.7423113    2.3369512  
C   -0.4878984   -0.4098547    3.7186280  
N    0.5629682    0.4714286    3.6095011  
C   -1.0836927   -0.9095027    4.8308716  
C   -2.1891196   -1.8367527    4.6554461  
O   -2.7906899   -2.3413415    5.5944904  
C   -2.6257283   -2.2031529    3.2011665  
O   -3.5549479   -2.9829990    3.0410059  
C   -1.9068976   -1.5999348    2.0816745  
H   -0.7774656   -0.6525820    5.8354244  
H   -2.2155208   -1.8586617    1.0779135  
H    1.6384792    1.3747609    1.9961646  
H    1.0518368    0.8833920    4.3830260  
