58

C    1.0638789   -0.0261250   -4.6315341  
C   -0.2005807   -0.0053673   -5.1262929  
C   -0.0894688   -0.0091042   -6.5659026  
C    1.3537202   -0.0339477   -6.8714825  
N    1.9982070   -0.0428849   -5.6559800  
C    1.8742061   -0.0447766   -8.1247509  
C    0.9514187   -0.0308206   -9.2476061  
O    1.3217486   -0.0388954  -10.4142645  
C   -0.5812055   -0.0042211   -8.9473393  
O   -1.3677419    0.0080121   -9.8846070  
C   -1.0214431    0.0051780   -7.5545166  
H   -1.1076191    0.0109081   -4.5486867  
H   -2.0842863    0.0234068   -7.3551297  
H    2.9938898   -0.0610481   -5.5321521  
C   -1.1317766    0.0183633   -0.8009272  
C   -0.7969292    0.0105380   -2.1169407  
C    0.6451711   -0.0149319   -2.1842674  
C    1.1264815   -0.0213791   -0.7896027  
N    0.0000000    0.0000000    0.0000000  
C    2.4342112   -0.0442594   -0.4276299  
C    3.4344237   -0.0636162   -1.4820183  
O    4.6376880   -0.0847604   -1.2583917  
C    2.9473504   -0.0569495   -2.9661073  
O    3.7802426   -0.0727868   -3.8623776  
C    1.5110547   -0.0319169   -3.2312126  
H   -1.4819735    0.0215542   -2.9459192  
H    2.7660275   -0.0487287    0.6013447  
H   -2.1101211    0.0362168   -0.3488060  
C    5.1765931   -2.2060031   -6.1994773  
C    6.2100865   -1.7601802   -6.9592196  
C    5.6536262   -0.8567836   -7.9385370  
C    4.2008144   -0.8125006   -7.6852241  
N    3.9764579   -1.6522802   -6.6187706  
C    3.3180173   -0.0697578   -8.3998620  
C    3.8330950    0.7399109   -9.4914973  
O    3.1186539    1.4431326  -10.1938888  
C    5.3682957    0.7081063   -9.7777693  
O    5.8135003    1.3854065  -10.6944581  
C    6.2194894   -0.1314753   -8.9384691  
H    7.2442053   -2.0331731   -6.8465862  
H    7.2813679   -0.1477543   -9.1430984  
H    5.1906953   -2.8926467   -5.3686873  
H    3.0793771   -1.8333052   -6.2070382  
C    0.8175213    0.6860729    2.3021913  
C    0.0000000    0.0000000    1.4700000  
C   -0.8887526   -0.7456559    2.3478473  
C   -0.4549825   -0.3816753    3.7138435  
N    0.5448156    0.4573574    3.6934124  
C   -1.0945674   -0.9182058    4.8835240  
C   -2.1210866   -1.7789155    4.6970523  
O   -2.8083856   -2.3554314    5.6976972  
C   -2.5824069   -2.1655116    3.3310774  
O   -3.5227682   -2.9541547    3.2362962  
C   -1.9100805   -1.6015804    2.1470656  
H   -0.7567140   -0.6349833    5.8697035  
H   -3.4728268   -2.9124471    5.2533954  
H   -2.2742832   -1.9066565    1.1752040  
H    1.6189533    1.3585343    2.0405121  
