58

C    0.0139748    0.0003878   -4.4216235  
C    1.0657037    0.0015282   -5.2806580  
C    0.5180458    0.0012343   -6.6166619  
C   -0.9494773   -0.0001516   -6.4644640  
N   -1.1898325   -0.0010074   -5.1097987  
C   -1.8296137   -0.0004060   -7.4974522  
C   -1.2959116    0.0005369   -8.8493760  
O   -2.0065322    0.0003354   -9.8460291  
C    0.2551156    0.0017579   -9.0340851  
O    0.7160975    0.0022519  -10.1675564  
C    1.1016985    0.0022060   -7.8436446  
H    2.1063852    0.0022855   -5.0093767  
H    2.1745861    0.0032575   -7.9801514  
H   -2.0996064   -0.0004653   -4.6862912  
C    3.2798088    0.0005857   -1.4499641  
C    2.5571148    0.0005566   -2.5996549  
C    1.1637440    0.0001548   -2.2210358  
C    1.1336968   -0.0000200   -0.7459466  
N    2.4483517   -0.0001427   -0.3402711  
C    0.0000000    0.0000000    0.0000000  
C   -1.2757365   -0.0000186   -0.6964413  
O   -2.3524595   -0.0000640   -0.1142314  
C   -1.2676489   -0.0000873   -2.2584079  
O   -2.3355757   -0.0004102   -2.8557297  
C    0.0181568    0.0001759   -2.9516294  
H    2.9547360    0.0006075   -3.5989095  
H    4.3498554    0.0008612   -1.3200012  
H    2.7563630    0.0012824    0.6148072  
C   -4.4188457    2.1041900   -4.6426506  
C   -5.6277005    1.6388899   -5.0503770  
C   -5.3830125    0.7441923   -6.1569394  
C   -3.9220359    0.7262396   -6.3619151  
N   -3.3958659    1.5714083   -5.4123233  
C   -3.2883794   -0.0016221   -7.3160649  
C   -4.0994459   -0.8219160   -8.2002731  
O   -3.6229231   -1.5132543   -9.0909345  
C   -5.6487204   -0.8179589   -8.0014314  
O   -6.3419101   -1.5044084   -8.7400355  
C   -6.2157305    0.0074678   -6.9379362  
H   -6.5819302    1.8935179   -4.6246731  
H   -7.2892752    0.0044766   -6.8067228  
H   -4.1892473    2.7916510   -3.8447963  
H   -2.4190137    1.7690208   -5.2950380  
C    2.3971438    2.0127888    3.1728260  
C    1.9431056    1.6308205    1.9564670  
C    0.8496017    0.7127664    2.2356185  
C    0.7794028    0.6545384    3.7115134  
N    1.6840587    1.4146091    4.2663826  
C   -0.1885723   -0.1578550    4.3957118  
C   -1.0476298   -0.8789867    3.6398520  
O   -2.0015663   -1.6796266    4.1448486  
C   -1.0022026   -0.8410666    2.1483229  
O   -1.8147390   -1.5232959    1.5241687  
C    0.0000000    0.0000000    1.4700000  
H    2.3054237    1.9346118    0.9892483  
H   -0.2170646   -0.1815267    5.4753125  
H   -2.4487139   -2.0549881    3.3649027  
H    3.2048689    2.6911772    3.3971983  
