62

C    3.3003552    0.0005277   -1.4738975  
C    2.5232823    0.0003499   -2.6090738  
C    1.1623209   -0.0001317   -2.1820098  
C    1.1711889    0.0000585   -0.7636139  
N    2.4852303   -0.0014919   -0.3662348  
C    0.0000000    0.0000000    0.0000000  
C   -1.2020380    0.0000521   -0.6806489  
O   -2.3759250    0.0003494    0.0157737  
C   -1.2314649   -0.0005110   -2.0955512  
O   -2.5054378   -0.0008035   -2.6250191  
C   -0.0764505   -0.0007270   -2.8495197  
H    2.8036265    0.0088180    0.5858674  
H   -3.0835637    0.0000348   -0.6418826  
H   -2.4360035   -0.0011524   -3.5845931  
H   -0.1304079   -0.0013417   -3.9319086  
H    4.3715557    0.0004894   -1.3667119  
C    5.9339406   -2.1239628   -4.5697786  
C    5.0139160   -1.6613190   -3.6576479  
C    4.1430878   -0.7747004   -4.3577668  
C    4.5843202   -0.7357737   -5.7052550  
N    5.6745662   -1.5647286   -5.7991402  
C    3.9561325    0.0394410   -6.6846482  
C    2.8624174    0.7887790   -6.2967603  
O    2.2114302    1.5633307   -7.2128923  
C    2.4073436    0.7634327   -4.9569529  
O    1.3072178    1.5639368   -4.7283487  
C    3.0267451   -0.0008949   -3.9901692  
H    4.9758723   -1.9289913   -2.6155839  
H    6.1946456   -1.7467726   -6.6384015  
H    1.4889968    1.9966214   -6.7400143  
H    1.0643876    1.4893958   -3.8004040  
H    6.7555171   -2.8075029   -4.4403766  
C    4.4067695    0.0858293   -8.0831023  
C    5.4473365   -0.5716821   -8.6456670  
C    5.4379073   -0.1638287  -10.0421149  
C    4.2942129    0.7671612  -10.1507653  
N    3.6859852    0.9175004   -9.0055819  
C    3.9431971    1.3994802  -11.3925575  
C    4.7005487    1.1149852  -12.4764469  
O    4.4873624    1.6331063  -13.6979801  
C    5.8614284    0.1798483  -12.3987456  
O    6.5065271   -0.0330006  -13.4252756  
C    6.2012571   -0.4562015  -11.1134911  
H    6.1362790   -1.2496522   -8.1715454  
H    3.1021202    2.0754543  -11.4431369  
H    5.1846743    1.2452442  -14.2569718  
H    7.0495863   -1.1272875  -11.0989724  
C    0.0000000    0.0000000    1.4700000  
C    1.0541688    0.0001722    2.3260392  
C    0.5103138    0.0000454    3.6635956  
C   -0.9576371   -0.0002459    3.5155732  
N   -1.2018458    0.0001392    2.1615969  
C   -1.8348311   -0.0008317    4.5510609  
C   -1.2972847   -0.0009736    5.9014604  
O   -2.0050672   -0.0014265    6.9001319  
C    0.2542623   -0.0004184    6.0817573  
O    0.7184670   -0.0002256    7.2139121  
C    1.0974552   -0.0000873    4.8889129  
H    2.0940752    0.0005483    2.0517982  
H   -2.9081052   -0.0011668    4.4207061  
H    2.1707277    0.0000911    5.0223670  
H   -2.1128194   -0.0014912    1.7406791  
