58

C   -0.8736492    0.6910491   -9.0024636  
C    0.0784249   -0.1207374   -9.5303201  
C   -0.0548900   -0.0476609  -10.9661900  
C   -1.1706560    0.8799156  -11.2335068  
N   -1.6239219    1.2922350  -10.0016656  
C   -1.6110782    1.2160958  -12.4723432  
C   -0.9416378    0.6247218  -13.6189304  
O   -1.2641974    0.8642521  -14.7751657  
C    0.2423053   -0.3605010  -13.3592779  
O    0.8133680   -0.8648236  -14.3167794  
C    0.6260838   -0.6450927  -11.9788539  
H    0.7924846   -0.7042961   -8.9769749  
H   -2.4312292    1.8986760  -12.6465434  
H    1.4469577   -1.3281543  -11.8076319  
H   -2.3815907    1.9329247   -9.8516578  
C    0.9350723   -0.7259390   -5.2319057  
C    0.6347935   -0.5089069   -6.5383531  
C   -0.4715634    0.4184304   -6.5675990  
C   -0.7935141    0.7260948   -5.1610144  
N    0.0950446    0.0004351   -4.4015596  
C   -1.7824138    1.5667841   -4.7647529  
C   -2.5832520    2.2114552   -5.7921735  
O   -3.4968504    2.9850779   -5.5369352  
C   -2.2600299    1.9000089   -7.2882796  
O   -2.9277035    2.4366211   -8.1620756  
C   -1.1693060    0.9767221   -7.5911240  
H    1.1315069   -0.9484321   -7.3849386  
H   -2.0020375    1.7788961   -3.7276009  
H    1.6992191   -1.3555762   -4.8058457  
C    3.3321173    0.0004713   -1.3379338  
C    2.6974181    0.0000116   -2.5332314  
C    1.2800438   -0.0002119   -2.2052841  
C    1.2395034    0.0000643   -0.7271299  
N    2.4394062    0.0005460   -0.2131038  
C    0.0000000    0.0000000    0.0000000  
C   -1.1468702    0.0000634   -0.7169543  
O   -2.3742203    0.0000074   -0.1695487  
C   -1.1388770    0.0001607   -2.2096355  
O   -2.2206234    0.0000905   -2.7970411  
C    0.1454522    0.0001815   -2.9324241  
H    3.1367984   -0.0000653   -3.5160950  
H   -2.9844346    0.0001026   -0.9290167  
H    4.3940038    0.0007618   -1.1498640  
C    0.8175213    0.6860729    2.3021913  
C    0.0000000    0.0000000    1.4700000  
C   -0.8887526   -0.7456559    2.3478473  
C   -0.4549825   -0.3816753    3.7138435  
N    0.5448156    0.4573574    3.6934124  
C   -1.0945674   -0.9182058    4.8835240  
C   -2.1210866   -1.7789155    4.6970523  
O   -2.8083856   -2.3554314    5.6976972  
C   -2.5824069   -2.1655116    3.3310774  
O   -3.5227682   -2.9541547    3.2362962  
C   -1.9100805   -1.6015804    2.1470656  
H   -0.7567140   -0.6349833    5.8697035  
H   -3.4728268   -2.9124471    5.2533954  
H   -2.2742832   -1.9066565    1.1752040  
H    1.6189533    1.3585343    2.0405121  
