58

C    4.0865065   -2.1046016    3.1995758  
C    4.2116428   -1.6395663    4.4692838  
C    5.3444445   -0.7443116    4.4799998  
C    5.8727818   -0.7257433    3.1025727  
N    5.0662951   -1.5711238    2.3760736  
C    6.9446511    0.0027517    2.6999616  
C    7.6233592    0.8231267    3.6893428  
O    8.5980406    1.5150145    3.4255491  
C    7.0811316    0.8185247    5.1541888  
O    7.6445467    1.5050361    5.9959279  
C    5.9177573   -0.0075577    5.4672404  
H    3.5823362   -1.8947199    5.3032399  
H    5.5484290   -0.0050106    6.4837607  
H    3.3610821   -2.7923173    2.7962197  
H    5.1718394   -1.7684325    1.3978217  
C    4.7795901    0.0008674   -1.0815733  
C    5.7862015    0.0008770   -1.9861793  
C    7.0047289    0.0013409   -1.1913895  
C    6.5351378    0.0016825    0.2107760  
N    5.2316823    0.0013264    0.2814340  
C    7.4495164    0.0021404    1.3193780  
C    8.7728604    0.0018632    1.0399218  
O    9.7375503    0.0022374    1.9755576  
C    9.2780074    0.0011447   -0.3647085  
O   10.4956959    0.0010500   -0.5448630  
C    8.3200394    0.0007288   -1.4846285  
H    5.7111080    0.0005128   -3.0601606  
H   10.5714816    0.0018715    1.4718618  
H    8.7261888    0.0000952   -2.4872616  
C    3.3321168    0.0004716   -1.3379341  
C    2.6974177    0.0000118   -2.5332316  
C    1.2800432   -0.0002116   -2.2052842  
C    1.2395033    0.0000644   -0.7271298  
N    2.4394059    0.0005460   -0.2131041  
C    0.0000000    0.0000000    0.0000000  
C   -1.1468704    0.0000635   -0.7169542  
O   -2.3742206    0.0000074   -0.1695488  
C   -1.1388774    0.0001608   -2.2096352  
O   -2.2206238    0.0000906   -2.7970409  
C    0.1454514    0.0001818   -2.9324241  
H    3.1367978   -0.0000649   -3.5160956  
H   -2.9844350    0.0001027   -0.9290164  
H    0.1083567    0.0003684   -4.0135594  
C    0.0000000    0.0000000    1.4700000  
C    1.0662921    0.0000102    2.3034270  
C    0.4961870   -0.0000064    3.6418889  
C   -0.9663858    0.0000850    3.4240247  
N   -1.2632773    0.0000084    2.1528658  
C   -1.8985362    0.0000517    4.5177257  
C   -1.3925775   -0.0004564    5.7720543  
O   -2.1456383   -0.0005410    6.8851312  
C    0.0786232   -0.0009323    6.0245000  
O    0.4683759   -0.0012588    7.1921102  
C    1.0143166   -0.0008442    4.8859032  
H    2.1107198   -0.0000632    2.0421868  
H   -2.9622183    0.0003270    4.3293377  
H   -1.5042274   -0.0009692    7.6184419  
H    2.0724152   -0.0013148    5.1109744  
