62

C    3.3041278    0.0001176   -1.5420426  
C    2.5845376   -0.0004780   -0.3695850  
C    1.2040010   -0.0000010   -0.7283582  
C    1.1422380    0.0006034   -2.1454369  
N    2.4348649    0.0026106   -2.6077462  
C   -0.0655171    0.0008790   -2.8497919  
C   -1.2321763    0.0002319   -2.1101404  
O   -2.4392806    0.0001139   -2.7472527  
C   -1.1911205   -0.0000009   -0.6955268  
O   -2.4371523   -0.0002323   -0.1032870  
C    0.0000000    0.0000000    0.0000000  
H    3.0031538   -0.0000658    0.6222586  
H   -0.1193539    0.0014835   -3.9297472  
H   -3.1132980   -0.0000655   -2.0551794  
H   -2.3200280   -0.0004072    0.8516406  
H    4.3686630    0.0004070   -1.7024285  
C    5.6718709   -2.1292830   -4.7374648  
C    5.4024595   -1.6450693   -5.9966001  
C    4.2795497   -0.7737667   -5.8761620  
C    3.9039380   -0.7655399   -4.5083998  
N    4.7686536   -1.6005167   -3.8453024  
C    2.8310675   -0.0116224   -4.0232746  
C    2.1246927    0.7480610   -4.9354655  
O    1.0681536    1.5033222   -4.5155604  
C    2.4839134    0.7526858   -6.3043176  
O    1.6833263    1.5594230   -7.0863532  
C    3.5420417    0.0089611   -6.7836551  
H    5.9474672   -1.8906002   -6.8919633  
H    4.7540942   -1.7863155   -2.8587691  
H    0.7213554    1.9477935   -5.3000613  
H    1.9931430    1.5056026   -7.9955950  
H    3.7934499    0.0324026   -7.8375628  
C    8.9033451   -4.2527666   -6.8693232  
C    7.8394338   -3.4713448   -6.5506595  
C    7.6276645   -3.6078609   -5.1289162  
C    8.6628517   -4.5395276   -4.6419103  
N    9.4031482   -4.8940465   -5.7460704  
C    8.8011679   -4.9275279   -3.3488409  
C    7.8680744   -4.3919472   -2.3715872  
O    7.9099058   -4.6805797   -1.1827883  
C    6.7635889   -3.4038418   -2.8651101  
O    5.9721465   -2.9466720   -2.0515531  
C    6.7152132   -3.0602951   -4.2840842  
H    7.2680759   -2.8682814   -7.2336515  
H    9.5675687   -5.6119263   -3.0124809  
H    9.3641927   -4.4142819   -7.8302719  
H   10.1871364   -5.5204050   -5.7369591  
C    0.0000000    0.0000000    1.4700000  
C    1.0541688    0.0001722    2.3260392  
C    0.5103138    0.0000454    3.6635956  
C   -0.9576371   -0.0002459    3.5155732  
N   -1.2018458    0.0001392    2.1615969  
C   -1.8348311   -0.0008317    4.5510609  
C   -1.2972847   -0.0009736    5.9014604  
O   -2.0050672   -0.0014265    6.9001319  
C    0.2542623   -0.0004184    6.0817573  
O    0.7184670   -0.0002256    7.2139121  
C    1.0974552   -0.0000873    4.8889129  
H    2.0940752    0.0005483    2.0517982  
H   -2.9081052   -0.0011668    4.4207061  
H    2.1707277    0.0000911    5.0223670  
H   -2.1128194   -0.0014912    1.7406791  
