60

C    0.0000000    0.0000000    0.0000000  
C    1.0521659   -0.0011911   -0.8862347  
C    0.4917207   -0.0011958   -2.1979135  
C   -0.9187438    0.0003160   -2.0478679  
N   -1.1833174   -0.0009396   -0.7007910  
C   -1.7951717    0.0010376   -3.1372084  
C   -1.2375856    0.0005245   -4.4010421  
O   -2.0474240    0.0015388   -5.4997572  
C    0.1673561   -0.0013562   -4.5711967  
O    0.5673494   -0.0020686   -5.8915555  
C    1.0325754   -0.0023417   -3.4969895  
H    2.0953050   -0.0030670   -0.6200570  
H   -2.0989780    0.0102397   -0.2891817  
H   -1.4634914    0.0006523   -6.2693587  
H    1.5290679   -0.0033161   -5.9180051  
H    2.1042126   -0.0039627   -3.6584467  
C   -4.0038668    0.6889682   -2.0943569  
C   -3.2578668    0.0024080   -2.9908493  
C   -4.2205571   -0.7421157   -3.7879762  
C   -5.5362275   -0.3770148   -3.2202635  
N   -5.4155461    0.4616460   -2.2272510  
C   -6.7642912   -0.9122290   -3.7403508  
C   -6.6817790   -1.7727502   -4.7805573  
O   -7.7464365   -2.3480907   -5.3649619  
C   -5.3688947   -2.1604567   -5.3756868  
O   -5.3689699   -2.9488569   -6.3210161  
C   -4.1232846   -1.5978670   -4.8244406  
H   -7.3710332   -2.9052862   -6.0704815  
H   -3.1928074   -1.9037204   -5.2836746  
H   -3.6630470    1.3609027   -1.3227875  
C   -8.4373647    0.6979979   -2.7170642  
C   -8.0534832   -0.5257270   -3.1491647  
C   -9.1994621   -1.3872477   -2.9021569  
C  -10.2138809   -0.4949224   -2.3010791  
N   -9.7728772    0.7286784   -2.1901485  
C  -11.5103595   -0.9734124   -1.9070266  
C  -11.7812650   -2.2836868   -2.1048287  
O  -12.9496935   -2.8652285   -1.7844790  
C  -10.7785552   -3.2094853   -2.7095042  
O  -11.0933978   -4.3899267   -2.8600123  
C   -9.4556477   -2.6945749   -3.1053695  
H  -12.2322508   -0.2990568   -1.4699601  
H  -12.8412498   -3.7983442   -2.0427186  
H   -8.7574798   -3.3973565   -3.5399830  
H   -7.8687223    1.6142546   -2.7267299  
C    1.0965515   -0.0001358    2.2710304  
C    0.0000000    0.0000000    1.4700000  
C   -1.1546562   -0.0001469    2.3369512  
C   -0.6372014   -0.0003519    3.7186280  
N    0.7342871   -0.0007337    3.6095011  
C   -1.4147739   -0.0001353    4.8308716  
C   -2.8576048    0.0001048    4.6554461  
O   -3.6427778    0.0002493    5.5944904  
C   -3.4275839    0.0000726    3.2011665  
O   -4.6406829   -0.0000333    3.0410059  
C   -2.4891866    0.0001091    2.0816745  
H   -1.0150448   -0.0001615    5.8354244  
H   -2.8919121    0.0002919    1.0779135  
H    2.1388271   -0.0000662    1.9961646  
H    1.3735872    0.0006099    4.3830260  
