62

C    1.6073881   -2.0689119   -5.4060700  
C    0.7601862   -1.6162666   -4.4212716  
C   -0.1611749   -0.7224078   -5.0431317  
C    0.1755977   -0.6689626   -6.4199591  
N    1.2549640   -1.4966144   -6.6059126  
C   -0.5252873    0.1165428   -7.3400298  
C   -1.5856458    0.8614352   -6.8615387  
O   -2.3044190    1.6455958   -7.7167996  
C   -1.9367991    0.8216485   -5.4911646  
O   -3.0157164    1.6194068   -5.1704428  
C   -1.2456338    0.0471626   -4.5828765  
H    0.8018947   -1.8950830   -3.3822746  
H   -0.2735355    0.1617467   -8.3906388  
H   -2.9882640    2.0736350   -7.1853822  
H   -3.1868180    1.5348851   -4.2274777  
H    2.4360578   -2.7536079   -5.3472762  
C    1.1243406    0.0100015   -0.7919003  
C    0.7474072    0.0234606   -2.1148544  
C   -0.6787388    0.0234435   -2.1414695  
C   -1.1201747    0.0098501   -0.7935549  
N    0.0000000    0.0000000    0.0000000  
C   -2.4730815    0.0063506   -0.4408239  
C   -3.3971962    0.0170701   -1.4675056  
O   -4.7313520    0.0145872   -1.1793466  
C   -2.9763653    0.0303262   -2.8186321  
O   -4.0166485    0.0394789   -3.7247618  
C   -1.6418567    0.0335125   -3.1673482  
H    1.4178710    0.0311089   -2.9571210  
H   -2.8160167   -0.0041343    0.5845972  
H   -5.1938821    0.0230439   -2.0274381  
H   -3.6464682    0.0481993   -4.6127342  
H    2.1062464    0.0052993   -0.3505409  
C    1.9199550   -1.7498174   -7.8922153  
C    2.9792017   -2.5547786   -8.1644445  
C    3.2376137   -2.4459241   -9.5808521  
C    2.2349162   -1.5047914  -10.1153213  
N    1.4664716   -1.1195781   -9.0410804  
C    2.1444395   -1.1356860  -11.4181178  
C    3.0981370   -1.7033941  -12.3565766  
O    3.0989345   -1.4336940  -13.5505456  
C    4.1685683   -2.7024178  -11.8125782  
O    4.9765679   -3.1870531  -12.5932990  
C    4.1663411   -3.0230214  -10.3874255  
H    3.5179180   -3.1563138   -7.4541253  
H    1.4013953   -0.4436839  -11.7895036  
H    4.9108848   -3.7154373  -10.0187263  
H    0.6962689   -0.4777500   -9.0845710  
C    2.3971438    2.0127888    3.1728260  
C    1.9431056    1.6308205    1.9564670  
C    0.8496017    0.7127664    2.2356185  
C    0.7794028    0.6545384    3.7115134  
N    1.6840587    1.4146091    4.2663826  
C   -0.1885723   -0.1578550    4.3957118  
C   -1.0476298   -0.8789867    3.6398520  
O   -2.0015663   -1.6796266    4.1448486  
C   -1.0022026   -0.8410666    2.1483229  
O   -1.8147390   -1.5232959    1.5241687  
C    0.0000000    0.0000000    1.4700000  
H    2.3054237    1.9346118    0.9892483  
H   -0.2170646   -0.1815267    5.4753125  
H   -2.4487139   -2.0549881    3.3649027  
H    3.2048689    2.6911772    3.3971983  
