62

C    3.3003541    0.0005275   -1.4738995  
C    2.5232805    0.0003496   -2.6090753  
C    1.1623196   -0.0001319   -2.1820102  
C    1.1711887    0.0000582   -0.7636142  
N    2.4852300   -0.0014920   -0.3662365  
C    0.0000000    0.0000000    0.0000000  
C   -1.2020389    0.0000519   -0.6806476  
O   -2.3759249    0.0003495    0.0157752  
C   -1.2314650   -0.0005112   -2.0955502  
O   -2.5054397   -0.0008036   -2.6250172  
C   -0.0764522   -0.0007272   -2.8495192  
H    2.8919946   -0.0005621   -3.6205310  
H    2.8036265    0.0088181    0.5858655  
H   -3.0835641    0.0000348   -0.6418809  
H   -2.4360065   -0.0011528   -3.5845912  
H   -0.1304103   -0.0013422   -3.9319084  
C    6.6264009    0.0032392   -4.4617188  
C    5.3881243    0.0032370   -3.8624381  
C    5.6076638    0.0015204   -2.4530413  
C    7.0115521    0.0008108   -2.2504966  
N    7.6002624   -0.0000641   -3.4906726  
C    7.5921587   -0.0005634   -0.9786150  
C    6.7400255   -0.0009266    0.1086047  
O    7.2537887   -0.0019040    1.3731445  
C    5.3365285   -0.0006068   -0.0730906  
O    4.6231717   -0.0014619    1.1077842  
C    4.7630498    0.0004754   -1.3275416  
H    4.4428874    0.0032321   -4.3777261  
H    8.5891796    0.0098628   -3.6636629  
H    6.4980467   -0.0022989    1.9749074  
H    3.6846511   -0.0011488    0.8961665  
H    6.8919786    0.0038901   -5.5049958  
C    9.9674561    0.7249875   -1.4981355  
C   11.2306284    0.5071981   -1.0497623  
C   11.1321164   -0.4207933    0.0520375  
C    9.6977254   -0.7280162    0.2099229  
N    9.0457536   -0.0015023   -0.7596128  
C    9.1900665   -1.5691015    1.1461720  
C   10.1183435   -2.2146954    2.0594318  
O    9.7594563   -2.9887336    2.9371367  
C   11.6418093   -1.9037302    1.9105793  
O   12.4328353   -2.4411194    2.6739616  
C   12.0684116   -0.9799466    0.8624923  
H   12.1288796    0.9466329   -1.4455603  
H    8.1344602   -1.7808774    1.2449482  
H   13.1249935   -0.7701033    0.7659386  
H    9.6323258    1.3552577   -2.3058092  
C    0.8681109    0.7263879    2.2709268  
C    0.6127770    0.5096195    3.5869401  
C   -0.4920590   -0.4175482    3.6542670  
C   -0.8620974   -0.7254003    2.2596025  
N    0.0000000    0.0000000    1.4700000  
C   -1.8641242   -1.5660088    1.8976294  
C   -2.6293522   -2.2103885    2.9520183  
O   -3.5512764   -2.9839180    2.7283916  
C   -2.2549728   -1.8987399    4.4361073  
O   -2.8923672   -2.4351063    5.3323774  
C   -1.1543735   -0.9755647    4.7012123  
H    1.1382914    0.9492124    4.4159191  
H   -2.1192137   -1.7782617    0.8686553  
H   -0.9013378   -0.7652422    5.7314848  
H    1.6172880    1.3558399    1.8188057  
