58

C    8.5819941   -3.2343715   -3.7414226  
C    7.4091689   -2.5516456   -3.6920244  
C    7.7131034   -1.1709398   -3.9854723  
C    9.1695747   -1.1047734   -4.2115288  
N    9.6369317   -2.3884789   -4.0485288  
C    9.8496232    0.0294116   -4.5162656  
C    9.0968612    1.2676340   -4.6289203  
O    9.6179590    2.3417024   -4.8993549  
C    7.5534461    1.2209679   -4.3933400  
O    6.9091894    2.2571896   -4.4851972  
C    6.9331516   -0.0616543   -4.0709015  
H    6.4415818   -2.9677328   -3.4746309  
H   10.9182322    0.0562122   -4.6783303  
H    8.7644325   -4.2842565   -3.5791021  
H   10.5962678   -2.6681756   -4.1406733  
C    4.1985330   -2.1423498   -1.2324142  
C    5.3247411   -1.7348288   -1.8626208  
C    4.8654772   -0.8236655   -2.8996154  
C    3.3948137   -0.7971457   -2.7478595  
N    2.9980296   -1.5681521   -1.7721028  
C    2.5562217   -0.0001543   -3.6003001  
C    3.1594332    0.7371395   -4.5604398  
O    2.5003399    1.5262938   -5.4258142  
C    4.6414695    0.7318289   -4.7384884  
O    5.1222596    1.4271711   -5.6332286  
C    5.4799816   -0.0940150   -3.8514687  
H    6.3415670   -2.0175427   -1.6499837  
H    3.1964050    1.9185699   -5.9832782  
H    4.1121693   -2.8248211   -0.4019036  
C    0.0000000    0.0000000    0.0000000  
C    1.0541688   -0.0001719   -0.8560391  
C    0.5103141   -0.0000449   -2.1935955  
C   -0.9576367    0.0002461   -2.0455733  
N   -1.2018459   -0.0001392   -0.6915970  
C   -1.8348306    0.0008319   -3.0810611  
C   -1.2972842    0.0009739   -4.4314605  
O   -2.0050664    0.0014267   -5.4301321  
C    0.2542628    0.0004190   -4.6117571  
O    0.7184677    0.0002263   -5.7439119  
C    1.0974556    0.0000880   -3.4189127  
H    2.0940752   -0.0005479   -0.5817978  
H   -2.9081050    0.0011669   -2.9507065  
H   -2.1128195    0.0014911   -0.2706793  
C    1.1319247   -0.0015655    2.2709268  
C    0.7969915   -0.0034943    3.5869401  
C   -0.6453339   -0.0035710    3.6542670  
C   -1.1266833   -0.0015433    2.2596025  
N    0.0000000    0.0000000    1.4700000  
C   -2.4346130   -0.0013964    1.8976294  
C   -3.4350110   -0.0031408    2.9520183  
O   -4.6384611   -0.0030974    2.7283916  
C   -2.9478959   -0.0050506    4.4361073  
O   -3.7809380   -0.0062218    5.3323774  
C   -1.5113823   -0.0053090    4.7012123  
H    1.4821238   -0.0045407    4.4159191  
H   -2.7664565   -0.0000232    0.8686553  
H   -1.1823530   -0.0068408    5.7314848  
H    2.1104316   -0.0009391    1.8188057  
