58

C    3.2798090    0.0005856   -1.4499635  
C    2.5571157    0.0005565   -2.5996544  
C    1.1637443    0.0001548   -2.2210357  
C    1.1336970   -0.0000200   -0.7459466  
N    2.4483515   -0.0001429   -0.3402711  
C    0.0000000    0.0000000    0.0000000  
C   -1.2757370   -0.0000186   -0.6964421  
O   -2.3524594   -0.0000639   -0.1142324  
C   -1.2676484   -0.0000873   -2.2584088  
O   -2.3355747   -0.0004100   -2.8557305  
C    0.0181577    0.0001759   -2.9516294  
H    2.9547365    0.0006075   -3.5989094  
H    0.0150811    0.0003319   -4.0331627  
H    2.7563626    0.0012823    0.6148073  
C    6.8068859    0.0000780   -4.1746965  
C    5.5278621   -0.0005420   -3.7323432  
C    5.6328292    0.0002217   -2.2813155  
C    7.0869604    0.0011851   -2.0128292  
N    7.7802440    0.0011862   -3.1188801  
C    7.6138028    0.0021815   -0.6758464  
C    6.7282245    0.0026030    0.3464480  
O    7.0793800    0.0035197    1.6436489  
C    5.2547115    0.0020257    0.1078729  
O    4.5071896    0.0023331    1.0858464  
C    4.7390854    0.0009613   -1.2727261  
H    4.6247078   -0.0013200   -4.3183357  
H    6.2347335    0.0036359    2.1291649  
H    7.1567997   -0.0001765   -5.1947623  
C    9.0661429    0.0028410   -0.4486738  
C   10.0543421    0.0025932   -1.3733586  
C   11.2886208    0.0035150   -0.6032579  
C   10.8473478    0.0043755    0.8080756  
N    9.5455792    0.0039045    0.9049566  
C   11.7838561    0.0053853    1.8980473  
C   13.1013067    0.0051401    1.5920103  
O   14.0846344    0.0060012    2.5080382  
C   13.5780780    0.0039056    0.1774970  
O   14.7918934    0.0038720   -0.0271316  
C   12.5977624    0.0029283   -0.9229133  
H    9.9576449    0.0017837   -2.4456111  
H   11.4333504    0.0062064    2.9198373  
H   14.9082590    0.0055219    1.9876585  
H   12.9836476    0.0019317   -1.9335174  
C    2.5128556    2.1077716    2.9199648  
C    1.9592212    1.6432552    4.0696553  
C    0.8915788    0.7479214    3.6910360  
C    0.8684491    0.7287414    2.2159470  
N    1.8754542    1.5738793    1.8102719  
C    0.0000000    0.0000000    1.4700000  
C   -0.9772830   -0.8200135    2.1664417  
O   -1.8021297   -1.5120829    1.5842315  
C   -0.9711318   -0.8147624    3.7284083  
O   -1.7894187   -1.5009653    4.3257297  
C    0.0140216    0.0115358    4.4216297  
H    2.2638494    1.8988021    5.0689105  
H    0.0117648    0.0094386    5.5031631  
H    3.3327358    2.7953732    2.7900019  
H    2.1123206    1.7707734    0.8551938  
