58

C   -0.7618869   -0.7063227   -9.5316135  
C   -0.4770407   -0.7007989  -10.8593588  
C   -0.6648368    0.6531338  -11.3245842  
C   -1.0854285    1.4416062  -10.1506145  
N   -1.1252706    0.5589541   -9.0959918  
C   -1.3621875    2.7699446  -10.1756212  
C   -1.2377146    3.4697162  -11.4434399  
O   -1.4647914    4.6659377  -11.5691063  
C   -0.7939560    2.6544756  -12.6997300  
O   -0.6859865    3.2327805  -13.7726540  
C   -0.5231647    1.2270683  -12.5479665  
H   -0.1705432   -1.5484867  -11.4459576  
H   -1.6690725    3.3295751   -9.3029564  
H   -0.2162013    0.6698338  -13.4226020  
H   -0.7371212   -1.5283133   -8.8347583  
C    0.5157023   -0.7055389   -5.2240925  
C   -0.2963293   -0.0005341   -4.3948471  
C   -1.2098550    0.7417636   -5.2310892  
C   -0.8609894    0.4090166   -6.6254931  
N    0.1928751   -0.4724048   -6.5523137  
C   -1.4945017    0.9085670   -7.7167385  
C   -2.5931304    1.8360108   -7.5036702  
O   -3.2264753    2.3405317   -8.4216212  
C   -2.9795613    2.2027195   -6.0353376  
O   -3.9026313    2.9827310   -5.8435417  
C   -2.2228516    1.5995820   -4.9410487  
H   -2.4968364    1.8585230   -3.9273399  
H    1.3229472   -1.3756269   -4.9766502  
H    0.6548727   -0.8845706   -7.3420756  
C    3.1301146   -0.0010313   -1.7028256  
C    2.5367765   -0.0002766   -0.4864669  
C    1.1089901    0.0001027   -0.7656184  
C    1.0177865   -0.0004150   -2.2415133  
N    2.1993571   -0.0011612   -2.7963824  
C   -0.2459219   -0.0002879   -2.9257116  
C   -1.3675326   -0.0000606   -2.1698520  
O   -2.6129318    0.0000865   -2.6748483  
C   -1.3083588    0.0000910   -0.6783229  
O   -2.3693264    0.0004206   -0.0541685  
C    0.0000000    0.0000000    0.0000000  
H    3.0096016   -0.0001007    0.4807518  
H   -3.1967444    0.0002093   -1.8949026  
H    4.1849275   -0.0015114   -1.9271979  
C    2.4951002    2.0940188    2.9809380  
C    1.9440701    1.6314916    1.8291961  
C    0.8759964    0.7350050    2.2038498  
C    0.8497377    0.7130254    3.6788474  
N    1.8560616    1.5571714    4.0882609  
C   -0.0205033   -0.0168748    4.4215661  
C   -0.9962600   -0.8356168    3.7214979  
O   -1.8224391   -1.5286685    4.3006425  
C   -0.9864710   -0.8277881    2.1595606  
O   -1.8030528   -1.5133726    1.5592035  
C    0.0000000    0.0000000    1.4700000  
H    2.2509283    1.8888011    0.8310761  
H   -0.0229599   -0.0187323    5.5027230  
H    3.3143982    2.7817323    3.1139444  
H    2.0889452    1.7545833    5.0442112  
