58

C    0.4003973    0.7017110   -7.1679152  
C    1.3818831   -0.0017551   -7.7891202  
C    0.7560235   -0.7436560   -8.8581002  
C   -0.6808338   -0.4123535   -8.8084150  
N   -0.8306449    0.4679378   -7.7617375  
C   -1.6148789   -0.9120142   -9.6567095  
C   -1.1757441   -1.8380614  -10.6873084  
O   -1.9403616   -2.3425628  -11.4991830  
C    0.3412986   -2.2032279  -10.7582899  
O    0.7227532   -2.9820562  -11.6215283  
C    1.2524400   -1.6001162   -9.7887907  
H   -2.6639141   -0.6559502   -9.6031764  
H    2.3012901   -1.8579846   -9.8448413  
H    0.4728002    1.3710773   -6.3261337  
H   -1.6999957    0.8789881   -7.4748325  
C    3.2973507   -0.0000930   -3.8752373  
C    4.6109361    0.0001678   -4.2009260  
C    4.6367192   -0.0000873   -5.6555166  
C    3.2125792   -0.0006166   -6.0535230  
N    2.4227566   -0.0005416   -5.0142111  
C    2.8079495   -0.0009501   -7.4324213  
C    3.7817669   -0.0003744   -8.3710449  
O    3.5485413   -0.0006026   -9.6945429  
C    5.2278970    0.0005395   -8.0010886  
O    6.0602352    0.0009039   -8.9079698  
C    5.6174380    0.0008223   -6.5797569  
H    5.4578082    0.0005835   -3.5361832  
H    4.4333802   -0.0000281  -10.1022326  
H    6.6752631    0.0016050   -6.3534027  
C    3.3321175    0.0004715   -1.3379331  
C    2.6974186    0.0000117   -2.5332308  
C    1.2800441   -0.0002117   -2.2052838  
C    1.2395036    0.0000644   -0.7271292  
N    2.4394065    0.0005460   -0.2131033  
C    0.0000000    0.0000000    0.0000000  
C   -1.1468701    0.0000635   -0.7169542  
O   -2.3742199    0.0000073   -0.1695491  
C   -1.1388766    0.0001607   -2.2096354  
O   -2.2206227    0.0000905   -2.7970412  
C    0.1454526    0.0001817   -2.9324239  
H   -2.9844344    0.0001026   -0.9290168  
H    0.1083579    0.0003683   -4.0135594  
H    4.3940038    0.0007619   -1.1498630  
C    2.5528530    2.1414826    2.8079335  
C    2.0663498    1.7338582    4.0032312  
C    0.9804344    0.8229586    3.6752840  
C    0.9495562    0.7966882    2.1971295  
N    1.8690446    1.5676019    1.6831036  
C    0.0000000    0.0000000    1.4700000  
C   -0.8785127   -0.7372425    2.1869543  
O   -1.8187535   -1.5261249    1.6395491  
C   -0.8723269   -0.7321790    3.6796354  
O   -1.7010379   -1.4274584    4.2670412  
C    0.1115397    0.0933559    4.4024240  
H    2.4028853    2.0163452    4.9860947  
H   -2.2861435   -1.9184361    2.3990168  
H    0.0832434    0.0693689    5.4835595  
H    3.3664920    2.8238276    2.6198634  
