62

C    1.1243418    0.0099229   -0.7919009  
C    0.7474090    0.0234085   -2.1148548  
C   -0.6787364    0.0234916   -2.1414702  
C   -1.1201739    0.0099289   -0.7935547  
N    0.0000000    0.0000000    0.0000000  
C   -2.4730813    0.0065243   -0.4408242  
C   -3.3971945    0.0173091   -1.4675058  
O   -4.7313507    0.0149194   -1.1793465  
C   -2.9763633    0.0305360   -2.8186327  
O   -4.0166457    0.0397618   -3.7247620  
C   -1.6418543    0.0336287   -3.1673482  
H   -2.8160166   -0.0039364    0.5845966  
H   -5.1938803    0.0234092   -2.0274379  
H   -3.6464645    0.0484567   -4.6127343  
H   -1.3497445    0.0436713   -4.2109236  
H    2.1062469    0.0051515   -0.3505410  
C    4.5588325   -2.0914295   -2.8627789  
C    4.8000438   -1.5806194   -4.1171142  
C    3.7182711   -0.7031725   -4.4244488  
C    2.8403310   -0.7187822   -3.3104900  
N    3.3795178   -1.5732322   -2.3810763  
C    1.6628969    0.0337879   -3.2649303  
C    1.3664901    0.8166058   -4.3638005  
O    0.2294637    1.5716681   -4.3719360  
C    2.2297468    0.8452125   -5.4848654  
O    1.7959066    1.6732583   -6.4994921  
C    3.3913434    0.1028338   -5.5306116  
H    5.6504542   -1.8128085   -4.7350814  
H    2.9825538   -1.7781657   -1.4819637  
H    0.2148247    2.0340638   -5.2200169  
H    2.4349449    1.6348289   -7.2176550  
H    4.0327912    0.1449298   -6.4031089  
C    8.3823670   -4.3137115   -3.4163929  
C    7.3287795   -3.4964291   -3.6478704  
C    6.5070842   -3.5957438   -2.4514364  
C    7.2338440   -4.5417252   -1.5776381  
N    8.3339184   -4.9658855   -2.1379180  
C    6.7402173   -4.9112941   -0.2796249  
C    5.5737858   -4.3605540    0.1271396  
O    4.9968570   -4.6156406    1.3137841  
C    4.8170829   -3.4023978   -0.7316373  
O    3.7621909   -2.9400878   -0.2972498  
C    5.3441849   -3.0391759   -2.0591007  
H    7.1333885   -2.8997802   -4.5224608  
H    7.2919064   -5.6051021    0.3377726  
H    4.1832172   -4.0797827    1.3141949  
H    9.2195662   -4.5178084   -4.0647881  
C    2.5128556    2.1077716    2.9199648  
C    1.9592212    1.6432552    4.0696553  
C    0.8915788    0.7479214    3.6910360  
C    0.8684491    0.7287414    2.2159470  
N    1.8754542    1.5738793    1.8102719  
C    0.0000000    0.0000000    1.4700000  
C   -0.9772830   -0.8200135    2.1664417  
O   -1.8021297   -1.5120829    1.5842315  
C   -0.9711318   -0.8147624    3.7284083  
O   -1.7894187   -1.5009653    4.3257297  
C    0.0140216    0.0115358    4.4216297  
H    2.2638494    1.8988021    5.0689105  
H    0.0117648    0.0094386    5.5031631  
H    3.3327358    2.7953732    2.7900019  
H    2.1123206    1.7707734    0.8551938  
