58

C   -0.2618279    0.5746544   -9.3363591  
C    0.8072170   -0.2583420   -9.4220033  
C    1.2386302   -0.2493096  -10.7999142  
C    0.3267712    0.6638004  -11.5151300  
N   -0.5595937    1.1297403  -10.5716543  
C    0.4030530    0.9439655  -12.8407976  
C    1.4532031    0.3032593  -13.6148884  
O    1.6048821    0.4907154  -14.8149524  
C    2.4300114   -0.6676781  -12.8780492  
O    3.3179054   -1.2131691  -13.5194109  
C    2.2477231   -0.8901026  -11.4458659  
H    1.2436448   -0.8156747   -8.6123588  
H   -0.2757925    1.6169015  -13.3460059  
H    2.9283752   -1.5636502  -10.9431030  
H   -1.3063721    1.7753203  -10.7522000  
C   -0.0202922   -0.6967077   -5.1400949  
C   -1.0641734    0.0073898   -4.6315339  
C   -1.6428383    0.7514419   -5.7253206  
C   -0.8448098    0.4207133   -6.9213805  
N    0.1229401   -0.4613335   -6.4990734  
C   -1.0739323    0.9222826   -8.1613951  
C   -2.1802185    1.8499244   -8.3291660  
O   -2.4675339    2.3561923   -9.4059403  
C   -3.0385134    2.2145166   -7.0760871  
O   -3.9723185    2.9946740   -7.2050180  
C   -2.6944047    1.6092961   -5.7918949  
H   -3.2937355    1.8667792   -4.9292081  
H    0.6565472   -1.3675748   -4.6363932  
H    0.8239110   -0.8724840   -7.0878369  
C    1.1319248    0.0015675   -0.8009270  
C    0.7969916    0.0034959   -2.1169404  
C   -0.6453336    0.0035703   -2.1842672  
C   -1.1266831    0.0015415   -0.7896027  
N    0.0000000    0.0000000    0.0000000  
C   -2.4346129    0.0013924   -0.4276297  
C   -3.4350110    0.0031352   -1.4820184  
O   -4.6384610    0.0030897   -1.2583919  
C   -2.9478958    0.0050460   -2.9661075  
O   -3.7809377    0.0062160   -3.8623775  
C   -1.5113821    0.0053068   -3.2312125  
H    1.4821240    0.0045436   -2.9459192  
H   -2.7664565    0.0000185    0.6013447  
H    2.1104318    0.0009428   -0.3488058  
C    0.8175213    0.6860729    2.3021913  
C    0.0000000    0.0000000    1.4700000  
C   -0.8887526   -0.7456559    2.3478473  
C   -0.4549825   -0.3816753    3.7138435  
N    0.5448156    0.4573574    3.6934124  
C   -1.0945674   -0.9182058    4.8835240  
C   -2.1210866   -1.7789155    4.6970523  
O   -2.8083856   -2.3554314    5.6976972  
C   -2.5824069   -2.1655116    3.3310774  
O   -3.5227682   -2.9541547    3.2362962  
C   -1.9100805   -1.6015804    2.1470656  
H   -0.7567140   -0.6349833    5.8697035  
H   -3.4728268   -2.9124471    5.2533954  
H   -2.2742832   -1.9066565    1.1752040  
H    1.6189533    1.3585343    2.0405121  
