58

C   -3.6724992    0.7269151   -8.1572785  
C   -4.8545408    0.5103699   -8.7897039  
C   -4.5927094   -0.4160295   -9.8658375  
C   -3.1509010   -0.7236738   -9.8080862  
N   -2.6509565    0.0011012   -8.7508984  
C   -2.5092343   -1.5636003  -10.6592573  
C   -3.2907733   -2.2074125  -11.7019651  
O   -2.8049398   -2.9803106  -12.5173755  
C   -4.8193052   -1.8959714  -11.7819523  
O   -5.4875037   -2.4318644  -12.6557885  
C   -5.3975165   -0.9735503  -10.8079589  
H   -5.8017484    0.9496273   -8.5318971  
H   -1.4507683   -1.7757124  -10.5995149  
H   -6.4566165   -0.7633673  -10.8700488  
H   -3.4616741    1.3558319   -7.3076280  
C   -0.8287671    0.0000935   -4.7555305  
C    0.4829789    0.0003528   -5.1068098  
C    0.5323568    0.0005977   -6.5498617  
C   -0.8681897    0.0004883   -7.0138230  
N   -1.6437154   -0.0002181   -5.8774035  
C   -1.2464066    0.0010497   -8.3171476  
C   -0.2045436    0.0015868   -9.3305861  
O   -0.4431247    0.0020513  -10.5311609  
C    1.2854921    0.0014598   -8.8619719  
O    2.1713296    0.0016018   -9.7060996  
C    1.5684483    0.0011143   -7.4288675  
H    1.3204182    0.0001882   -4.4320442  
H    2.6027354    0.0012339   -7.1126813  
H   -2.6471544    0.0011004   -5.8649186  
C    1.0672566   -0.0000698   -0.8321912  
C    0.0000000    0.0000000    0.0000000  
C   -1.1601226   -0.0000736   -0.8778472  
C   -0.5938732   -0.0000770   -2.2438435  
N    0.7113365   -0.0001555   -2.2234123  
C   -1.4286989   -0.0001880   -3.4135239  
C   -2.7683117   -0.0006800   -3.2270522  
O   -3.6653907   -0.0008306   -4.2276967  
C   -3.3702026   -0.0010611   -1.8610771  
O   -4.5974909   -0.0013781   -1.7662957  
C   -2.4926826   -0.0008944   -0.6770655  
H   -4.5324249   -0.0012263   -3.7833950  
H   -2.9677773   -0.0012975    0.2947963  
H    2.1134390   -0.0000546   -0.5705121  
C    2.5528530    2.1414826    2.8079335  
C    2.0663498    1.7338582    4.0032312  
C    0.9804344    0.8229586    3.6752840  
C    0.9495562    0.7966882    2.1971295  
N    1.8690446    1.5676019    1.6831036  
C    0.0000000    0.0000000    1.4700000  
C   -0.8785127   -0.7372425    2.1869543  
O   -1.8187535   -1.5261249    1.6395491  
C   -0.8723269   -0.7321790    3.6796354  
O   -1.7010379   -1.4274584    4.2670412  
C    0.1115397    0.0933559    4.4024240  
H    2.4028853    2.0163452    4.9860947  
H   -2.2861435   -1.9184361    2.3990168  
H    0.0832434    0.0693689    5.4835595  
H    3.3664920    2.8238276    2.6198634  
