62

C    3.3003541    0.0005275   -1.4738995  
C    2.5232805    0.0003496   -2.6090753  
C    1.1623196   -0.0001319   -2.1820102  
C    1.1711887    0.0000582   -0.7636142  
N    2.4852300   -0.0014920   -0.3662365  
C    0.0000000    0.0000000    0.0000000  
C   -1.2020389    0.0000519   -0.6806476  
O   -2.3759249    0.0003495    0.0157752  
C   -1.2314650   -0.0005112   -2.0955502  
O   -2.5054397   -0.0008036   -2.6250172  
C   -0.0764522   -0.0007272   -2.8495192  
H    2.8919946   -0.0005621   -3.6205310  
H    2.8036265    0.0088181    0.5858655  
H   -3.0835641    0.0000348   -0.6418809  
H   -2.4360065   -0.0011528   -3.5845912  
H   -0.1304103   -0.0013422   -3.9319084  
C    6.6264009    0.0032392   -4.4617188  
C    5.3881243    0.0032370   -3.8624381  
C    5.6076638    0.0015204   -2.4530413  
C    7.0115521    0.0008108   -2.2504966  
N    7.6002624   -0.0000641   -3.4906726  
C    7.5921587   -0.0005634   -0.9786150  
C    6.7400255   -0.0009266    0.1086047  
O    7.2537887   -0.0019040    1.3731445  
C    5.3365285   -0.0006068   -0.0730906  
O    4.6231717   -0.0014619    1.1077842  
C    4.7630498    0.0004754   -1.3275416  
H    4.4428874    0.0032321   -4.3777261  
H    8.5891796    0.0098628   -3.6636629  
H    6.4980467   -0.0022989    1.9749074  
H    3.6846511   -0.0011488    0.8961665  
H    6.8919786    0.0038901   -5.5049958  
C   10.7502104    2.1409298   -3.0829475  
C   11.8594735    1.7321982   -2.4241210  
C   11.3729261    0.8207406   -1.3999060  
C    9.9066532    0.7953925   -1.5896103  
N    9.5357566    1.5672844   -2.5748048  
C    9.0457536   -0.0015023   -0.7596128  
C    9.6234364   -0.7398236    0.2153224  
O    8.9416466   -1.5290208    1.0628902  
C   11.1003826   -0.7357091    0.4315908  
O   11.5574047   -1.4319492    1.3380134  
C   11.9621173    0.0900595   -0.4329578  
H   12.8816542    2.0142953   -2.6102482  
H    9.6227990   -1.9221472    1.6378987  
H   13.0269592    0.0653619   -0.2439276  
H   10.6858153    2.8239699   -3.9149832  
C    2.4951002    2.0940188    2.9809380  
C    1.9440701    1.6314916    1.8291961  
C    0.8759964    0.7350050    2.2038498  
C    0.8497377    0.7130254    3.6788474  
N    1.8560616    1.5571714    4.0882609  
C   -0.0205033   -0.0168748    4.4215661  
C   -0.9962600   -0.8356168    3.7214979  
O   -1.8224391   -1.5286685    4.3006425  
C   -0.9864710   -0.8277881    2.1595606  
O   -1.8030528   -1.5133726    1.5592035  
C    0.0000000    0.0000000    1.4700000  
H    2.2509283    1.8888011    0.8310761  
H   -0.0229599   -0.0187323    5.5027230  
H    3.3143982    2.7817323    3.1139444  
H    2.0889452    1.7545833    5.0442112  
