62

C    0.0000000    0.0000000    0.0000000  
C    1.0521664   -0.0011921   -0.8862344  
C    0.4917216   -0.0011967   -2.1979133  
C   -0.9187430    0.0003161   -2.0478681  
N   -1.1833168   -0.0009394   -0.7007912  
C   -1.7951703    0.0010378   -3.1372090  
C   -1.2375839    0.0005241   -4.4010423  
O   -2.0474218    0.0015389   -5.4997578  
C    0.1673581   -0.0013572   -4.5711965  
O    0.5673522   -0.0020702   -5.8915550  
C    1.0325771   -0.0023434   -3.4969894  
H    2.0953055   -0.0030685   -0.6200562  
H   -2.0989775    0.0102406   -0.2891824  
H   -1.4634887    0.0006520   -6.2693594  
H    1.5290703   -0.0033183   -5.9180043  
H    2.1042146   -0.0039647   -3.6584458  
C   -4.5382392    2.1273517   -0.3186953  
C   -3.4269627    1.6642271   -0.9843129  
C   -3.8900492    0.7769120   -2.0005917  
C   -5.3047959    0.7380749   -1.9061943  
N   -5.6653122    1.5677519   -0.8735855  
C   -6.0984767   -0.0377155   -2.7564929  
C   -5.4522261   -0.7877327   -3.7198273  
O   -6.1789733   -1.5628659   -4.5765769  
C   -4.0415011   -0.7624869   -3.8295262  
O   -3.5480044   -1.5636985   -4.8384183  
C   -3.2578654    0.0024088   -2.9908507  
H   -2.4078412    1.9320349   -0.7637137  
H   -7.1771659   -0.0717731   -2.6896192  
H   -5.5421648   -1.9965717   -5.1593627  
H   -2.5888302   -1.4891782   -4.8443296  
H   -4.6159757    2.8114668    0.5088931  
C   -7.0442502    1.8346196   -0.4397509  
C   -7.4611437    2.6457366    0.5601828  
C   -8.9117915    2.5359387    0.5520866  
C   -9.2079482    1.5914374   -0.5464544  
N   -8.1171318    1.1768969   -1.1314884  
C  -10.5528954    1.2131636   -0.8827772  
C  -11.5563451    1.7535696   -0.1545032  
O  -12.8581772    1.4895923   -0.3584405  
C  -11.2896547    2.7093940    0.9605916  
O  -12.2515364    3.1622890    1.5809871  
C   -9.9013840    3.0817515    1.2861348  
H   -6.8586600    3.2445317    1.2216462  
H  -10.7402035    0.5209820   -1.6906817  
H  -13.3265354    2.0192883    0.3117948  
H   -9.7503858    3.7769884    2.1010426  
C    1.1319247   -0.0015655    2.2709268  
C    0.7969915   -0.0034943    3.5869401  
C   -0.6453339   -0.0035710    3.6542670  
C   -1.1266833   -0.0015433    2.2596025  
N    0.0000000    0.0000000    1.4700000  
C   -2.4346130   -0.0013964    1.8976294  
C   -3.4350110   -0.0031408    2.9520183  
O   -4.6384611   -0.0030974    2.7283916  
C   -2.9478959   -0.0050506    4.4361073  
O   -3.7809380   -0.0062218    5.3323774  
C   -1.5113823   -0.0053090    4.7012123  
H    1.4821238   -0.0045407    4.4159191  
H   -2.7664565   -0.0000232    0.8686553  
H   -1.1823530   -0.0068408    5.7314848  
H    2.1104316   -0.0009391    1.8188057  
