62

C    3.3041274    0.0001178   -1.5420424  
C    2.5845370   -0.0004780   -0.3695848  
C    1.2040008   -0.0000007   -0.7283588  
C    1.1422381    0.0006039   -2.1454372  
N    2.4348643    0.0026111   -2.6077460  
C   -0.0655178    0.0008800   -2.8497916  
C   -1.2321770    0.0002327   -2.1101400  
O   -2.4392813    0.0001149   -2.7472523  
C   -1.1911197   -0.0000007   -0.6955269  
O   -2.4371527   -0.0002319   -0.1032865  
C    0.0000000    0.0000000    0.0000000  
H    3.0031532   -0.0000660    0.6222587  
H    2.7054630   -0.0071097   -3.5745257  
H   -0.1193547    0.0014846   -3.9297470  
H   -3.1132988   -0.0000647   -2.0551792  
H   -2.3200292   -0.0004070    0.8516405  
C    6.7748105   -0.0036707    1.2764685  
C    5.5082320   -0.0035545    0.7395837  
C    5.6573262   -0.0010105   -0.6789945  
C    7.0493887    0.0000631   -0.9511860  
N    7.6991160    0.0003496    0.2581408  
C    7.5659491    0.0022523   -2.2503970  
C    6.6607409    0.0030713   -3.2938410  
O    7.1109062    0.0048476   -4.5823914  
C    5.2680310    0.0023992   -3.0424924  
O    4.4967640    0.0037872   -4.1863844  
C    4.7577219    0.0005130   -1.7610452  
H    4.5898232   -0.0040067    1.3012946  
H    8.6954213   -0.0094974    0.3816732  
H    6.3261402    0.0054440   -5.1457802  
H    3.5699438    0.0031881   -3.9283015  
H    7.0920029   -0.0048575    2.3052281  
C   10.8251794   -2.1398531   -0.3071265  
C   11.9002026   -1.7305551   -1.0201333  
C   11.3631257   -0.8186118   -2.0183355  
C    9.9081138   -0.7936317   -1.7558478  
N    9.5868455   -1.5661407   -0.7538469  
C    9.0068370    0.0035733   -2.5415003  
C    9.5351508    0.7425429   -3.5435696  
O    8.8118881    1.5320921   -4.3556926  
C   10.9994980    0.7388131   -3.8331080  
O   11.4107185    1.4356417   -4.7607656  
C   11.9033336   -0.0872848   -3.0130051  
H   12.9304252   -2.0125736   -0.8852905  
H    9.4635083    1.9256617   -4.9636790  
H   12.9574393   -0.0622914   -3.2548044  
H   10.8023933   -2.8233698    0.5266954  
C    2.5128556    2.1077716    2.9199648  
C    1.9592212    1.6432552    4.0696553  
C    0.8915788    0.7479214    3.6910360  
C    0.8684491    0.7287414    2.2159470  
N    1.8754542    1.5738793    1.8102719  
C    0.0000000    0.0000000    1.4700000  
C   -0.9772830   -0.8200135    2.1664417  
O   -1.8021297   -1.5120829    1.5842315  
C   -0.9711318   -0.8147624    3.7284083  
O   -1.7894187   -1.5009653    4.3257297  
C    0.0140216    0.0115358    4.4216297  
H    2.2638494    1.8988021    5.0689105  
H    0.0117648    0.0094386    5.5031631  
H    3.3327358    2.7953732    2.7900019  
H    2.1123206    1.7707734    0.8551938  
