62

C    2.3136488   -2.1180442   -5.9171371  
C    1.6624056   -1.6181590   -7.0209776  
C    0.6419639   -0.7441442   -6.5420232  
C    0.7194929   -0.7504911   -5.1257346  
N    1.7437761   -1.5963709   -4.7793979  
C   -0.1387079    0.0017022   -4.3179686  
C   -1.0923524    0.7746132   -4.9514889  
O   -1.9557352    1.5288507   -4.2107385  
C   -1.1856784    0.7938845   -6.3634861  
O   -2.1870604    1.6126759   -6.8432319  
C   -0.3395498    0.0518703   -7.1609868  
H    2.0414324   -1.7936218   -3.8410620  
H   -2.5301600    1.9837418   -4.8403212  
H   -2.1819304    1.5683233   -7.8042789  
H   -0.4351241    0.0866807   -8.2399360  
H    3.1386337   -2.8065406   -5.8513306  
C    3.3041272    0.0001178   -1.5420427  
C    2.5845372   -0.0004778   -0.3695854  
C    1.2040006   -0.0000006   -0.7283593  
C    1.1422375    0.0006039   -2.1454375  
N    2.4348641    0.0026112   -2.6077465  
C   -0.0655179    0.0008801   -2.8497914  
C   -1.2321766    0.0002327   -2.1101402  
O   -2.4392815    0.0001149   -2.7472519  
C   -1.1911210   -0.0000006   -0.6955267  
O   -2.4371528   -0.0002319   -0.1032860  
C    0.0000000    0.0000000    0.0000000  
H    3.0031533   -0.0000659    0.6222585  
H    2.7054632   -0.0071094   -3.5745261  
H   -3.1132986   -0.0000647   -2.0551786  
H   -2.3200282   -0.0004071    0.8516411  
H    4.3686624    0.0004073   -1.7024288  
C    2.7952938   -5.3853923   -9.0262085  
C    2.4391873   -4.4446985   -8.1138716  
C    2.3087874   -3.1955119   -8.8261663  
C    2.6203199   -3.4876504  -10.2383951  
N    2.9072358   -4.8321265  -10.2927412  
C    2.6076739   -2.5665933  -11.2349894  
C    2.2645366   -1.1960260  -10.8939065  
O    2.2255480   -0.2937795  -11.7201825  
C    1.9312922   -0.8639556   -9.4044494  
O    1.6412779    0.2865319   -9.1052324  
C    1.9780878   -1.9418905   -8.4197063  
H    2.2855820   -4.6072910   -7.0619289  
H    2.8392359   -2.8017854  -12.2645393  
H    2.9855773   -6.4362284   -8.8798335  
H    3.1572551   -5.3345022  -11.1246998  
C    0.0000000    0.0000000    1.4700000  
C    1.0662921    0.0000102    2.3034270  
C    0.4961870   -0.0000064    3.6418889  
C   -0.9663858    0.0000850    3.4240247  
N   -1.2632773    0.0000084    2.1528658  
C   -1.8985362    0.0000517    4.5177257  
C   -1.3925775   -0.0004564    5.7720543  
O   -2.1456383   -0.0005410    6.8851312  
C    0.0786232   -0.0009323    6.0245000  
O    0.4683759   -0.0012588    7.1921102  
C    1.0143166   -0.0008442    4.8859032  
H    2.1107198   -0.0000632    2.0421868  
H   -2.9622183    0.0003270    4.3293377  
H   -1.5042274   -0.0009692    7.6184419  
H    2.0724152   -0.0013148    5.1109744  
