58

C   -8.4426293    0.5571257   -2.7371998  
C   -9.7325861    0.4909642   -2.3180201  
C  -10.1529439   -0.8825914   -2.4645795  
C   -8.9938259   -1.6164956   -3.0073688  
N   -7.9898067   -0.6867340   -3.1501210  
C   -8.9870091   -2.9443811   -3.2873297  
C  -10.2024759   -3.7012196   -3.0375832  
O  -10.2965639   -4.9017441   -3.2571051  
C  -11.4422323   -2.9443391   -2.4631797  
O  -12.4712104   -3.5709542   -2.2491322  
C  -11.3281792   -1.5117142   -2.2015874  
H  -10.3223945    1.3108413   -1.9485057  
H   -8.1259897   -3.4634811   -3.6849363  
H  -12.1910398   -0.9950979   -1.8037145  
H   -7.7847649    1.4099576   -2.7794047  
C   -3.9842743    0.7276665   -1.9452916  
C   -5.3215475    0.5113821   -2.0401476  
C   -5.5219107   -0.4154365   -3.1290448  
C   -4.1821418   -0.7236117   -3.6646168  
N   -3.2941076    0.0012878   -2.9038237  
C   -3.9439121   -1.5640346   -4.7031926  
C   -5.0830931   -2.2078601   -5.3358774  
O   -4.9725199   -2.9811854   -6.2782374  
C   -6.5111101   -1.8958620   -4.7852126  
O   -7.4778764   -2.4317609   -5.3100327  
C   -6.6412652   -0.9729315   -3.6604414  
H   -6.0809665    0.9510761   -1.4184043  
H   -2.9532732   -1.7765312   -5.0805389  
H   -3.4449075    1.3567558   -1.2559297  
C    0.0000000    0.0000000    0.0000000  
C    1.0541688   -0.0001723   -0.8560392  
C    0.5103136   -0.0000455   -2.1935956  
C   -0.9576373    0.0002461   -2.0455730  
N   -1.2018460   -0.0001389   -0.6915968  
C   -1.8348314    0.0008319   -3.0810607  
C   -1.2972851    0.0009739   -4.4314603  
O   -2.0050676    0.0014268   -5.4301316  
C    0.2542619    0.0004184   -4.6117572  
O    0.7184666    0.0002257   -5.7439122  
C    1.0974551    0.0000873   -3.4189129  
H    2.0940752   -0.0005484   -0.5817983  
H    2.1707276   -0.0000912   -3.5523673  
H   -2.1128194    0.0014915   -0.2706789  
C    3.2798086   -0.0005857    2.9199648  
C    2.5571146   -0.0005566    4.0696553  
C    1.1637436   -0.0001548    3.6910360  
C    1.1336965    0.0000200    2.2159470  
N    2.4483514    0.0001428    1.8102719  
C    0.0000000    0.0000000    1.4700000  
C   -1.2757367    0.0000186    2.1664417  
O   -2.3524596    0.0000640    1.5842315  
C   -1.2676493    0.0000873    3.7284083  
O   -2.3355761    0.0004100    4.3257297  
C    0.0181563   -0.0001760    4.4216297  
H    2.9547357   -0.0006076    5.0689105  
H    0.0150794   -0.0003319    5.5031631  
H    4.3498549   -0.0008612    2.7900019  
H    2.7563627   -0.0012824    0.8551938  
