58

C   -0.7618869   -0.7063227   -9.5316135  
C   -0.4770407   -0.7007989  -10.8593588  
C   -0.6648368    0.6531338  -11.3245842  
C   -1.0854285    1.4416062  -10.1506145  
N   -1.1252706    0.5589541   -9.0959918  
C   -1.3621875    2.7699446  -10.1756212  
C   -1.2377146    3.4697162  -11.4434399  
O   -1.4647914    4.6659377  -11.5691063  
C   -0.7939560    2.6544756  -12.6997300  
O   -0.6859865    3.2327805  -13.7726540  
C   -0.5231647    1.2270683  -12.5479665  
H   -0.1705432   -1.5484867  -11.4459576  
H   -1.6690725    3.3295751   -9.3029564  
H   -0.2162013    0.6698338  -13.4226020  
H   -0.7371212   -1.5283133   -8.8347583  
C    0.5157023   -0.7055389   -5.2240925  
C   -0.2963293   -0.0005341   -4.3948471  
C   -1.2098550    0.7417636   -5.2310892  
C   -0.8609894    0.4090166   -6.6254931  
N    0.1928751   -0.4724048   -6.5523137  
C   -1.4945017    0.9085670   -7.7167385  
C   -2.5931304    1.8360108   -7.5036702  
O   -3.2264753    2.3405317   -8.4216212  
C   -2.9795613    2.2027195   -6.0353376  
O   -3.9026313    2.9827310   -5.8435417  
C   -2.2228516    1.5995820   -4.9410487  
H   -2.4968364    1.8585230   -3.9273399  
H    1.3229472   -1.3756269   -4.9766502  
H    0.6548727   -0.8845706   -7.3420756  
C    3.1301146   -0.0010313   -1.7028256  
C    2.5367765   -0.0002766   -0.4864669  
C    1.1089901    0.0001027   -0.7656184  
C    1.0177865   -0.0004150   -2.2415133  
N    2.1993571   -0.0011612   -2.7963824  
C   -0.2459219   -0.0002879   -2.9257116  
C   -1.3675326   -0.0000606   -2.1698520  
O   -2.6129318    0.0000865   -2.6748483  
C   -1.3083588    0.0000910   -0.6783229  
O   -2.3693264    0.0004206   -0.0541685  
C    0.0000000    0.0000000    0.0000000  
H    3.0096016   -0.0001007    0.4807518  
H   -3.1967444    0.0002093   -1.8949026  
H    4.1849275   -0.0015114   -1.9271979  
C    0.0000000    0.0000000    1.4700000  
C    1.0662921    0.0000102    2.3034270  
C    0.4961870   -0.0000064    3.6418889  
C   -0.9663858    0.0000850    3.4240247  
N   -1.2632773    0.0000084    2.1528658  
C   -1.8985362    0.0000517    4.5177257  
C   -1.3925775   -0.0004564    5.7720543  
O   -2.1456383   -0.0005410    6.8851312  
C    0.0786232   -0.0009323    6.0245000  
O    0.4683759   -0.0012588    7.1921102  
C    1.0143166   -0.0008442    4.8859032  
H    2.1107198   -0.0000632    2.0421868  
H   -2.9622183    0.0003270    4.3293377  
H   -1.5042274   -0.0009692    7.6184419  
H    2.0724152   -0.0013148    5.1109744  
