58

C   -8.4564059    1.0894584   -2.0730138  
C   -7.6821512    0.0113406   -2.3598349  
C   -8.5652095   -1.1267418   -2.4588904  
C   -9.9271615   -0.6196453   -2.2044716  
N   -9.7923500    0.7305597   -1.9771787  
C  -11.0465648   -1.3868615   -2.2088703  
C  -10.9001867   -2.8068576   -2.4822194  
O  -11.8477491   -3.5812864   -2.5084006  
C   -9.4671264   -3.3655826   -2.7541955  
O   -9.3314415   -4.5595158   -2.9852214  
C   -8.3374587   -2.4399940   -2.7227776  
H  -12.0363389   -0.9950085   -2.0199022  
H   -7.3485470   -2.8347705   -2.9123289  
H   -8.1634160    2.1159351   -1.9233758  
H  -10.5482715    1.3588639   -1.7750287  
C   -4.4297974    2.1087670   -0.2339398  
C   -5.6380117    1.6447705   -0.6450366  
C   -5.3911869    0.7496345   -1.7507690  
C   -3.9296543    0.7300040   -1.9515853  
N   -3.4052343    1.5747188   -1.0006228  
C   -3.2941076    0.0012878   -2.9038237  
C   -4.1035802   -0.8182213   -3.7902175  
O   -3.6253063   -1.5102279   -4.6794205  
C   -5.6534087   -0.8124879   -3.5957847  
O   -6.3452681   -1.4982638   -4.3362584  
C   -6.2225101    0.0137344   -2.5340254  
H   -6.5931606    1.9005373   -0.2220858  
H   -4.2016945    2.7960862    0.5644657  
H   -2.4284974    1.7712471   -0.8805867  
C    0.0000000    0.0000000    0.0000000  
C    1.0541688   -0.0001723   -0.8560392  
C    0.5103136   -0.0000455   -2.1935956  
C   -0.9576373    0.0002461   -2.0455730  
N   -1.2018460   -0.0001389   -0.6915968  
C   -1.8348314    0.0008319   -3.0810607  
C   -1.2972851    0.0009739   -4.4314603  
O   -2.0050676    0.0014268   -5.4301316  
C    0.2542619    0.0004184   -4.6117572  
O    0.7184666    0.0002257   -5.7439122  
C    1.0974551    0.0000873   -3.4189129  
H    2.0940752   -0.0005484   -0.5817983  
H    2.1707276   -0.0000912   -3.5523673  
H   -2.1128194    0.0014915   -0.2706789  
C    1.0965515   -0.0001358    2.2710304  
C    0.0000000    0.0000000    1.4700000  
C   -1.1546562   -0.0001469    2.3369512  
C   -0.6372014   -0.0003519    3.7186280  
N    0.7342871   -0.0007337    3.6095011  
C   -1.4147739   -0.0001353    4.8308716  
C   -2.8576048    0.0001048    4.6554461  
O   -3.6427778    0.0002493    5.5944904  
C   -3.4275839    0.0000726    3.2011665  
O   -4.6406829   -0.0000333    3.0410059  
C   -2.4891866    0.0001091    2.0816745  
H   -1.0150448   -0.0001615    5.8354244  
H   -2.8919121    0.0002919    1.0779135  
H    2.1388271   -0.0000662    1.9961646  
H    1.3735872    0.0006099    4.3830260  
