58

C   -2.5562203   -0.0002320   -3.6003013  
C   -3.5357944   -0.0009439   -2.6598184  
C   -4.7960211   -0.0005884   -3.3645624  
C   -4.4679947    0.0003669   -4.8030299  
N   -3.0942324    0.0009398   -4.8783005  
C   -5.3873296    0.0005426   -5.8012923  
C   -6.7937392   -0.0000368   -5.4344845  
O   -7.6974430    0.0001271   -6.2600877  
C   -7.1641082   -0.0007988   -3.9170423  
O   -8.3448906   -0.0009843   -3.5960851  
C   -6.0844239   -0.0012026   -2.9331042  
H   -3.3919672   -0.0014565   -1.5940199  
H   -5.1255360    0.0011185   -6.8502795  
H   -2.5641231    0.0000782   -5.7303748  
C    0.0000000    0.0000000    0.0000000  
C   -1.0541683    0.0000126   -0.8560398  
C   -0.5103135   -0.0000319   -2.1935961  
C    0.9576376   -0.0001010   -2.0455732  
N    1.2018463    0.0003210   -0.6915967  
C    1.8348318   -0.0005540   -3.0810609  
C    1.2972865   -0.0007773   -4.4314601  
O    2.0050693   -0.0011231   -5.4301316  
C   -0.2542606   -0.0004570   -4.6117575  
O   -0.7184655   -0.0003345   -5.7439125  
C   -1.0974543   -0.0002536   -3.4189134  
H   -2.0940750    0.0002313   -0.5817991  
H    2.9081068   -0.0007265   -2.9507057  
H    2.1128199   -0.0011713   -0.2706788  
C   -4.3958319    2.0909795    0.5694468  
C   -4.6479109    1.6291921   -0.6824652  
C   -5.7750002    0.7323736   -0.5813646  
C   -6.1616814    0.7093928    0.8422714  
N   -5.2864674    1.5533351    1.4862060  
C   -7.1871411   -0.0210742    1.3487844  
C   -7.9615434   -0.8394134    0.4305488  
O   -8.9042317   -1.5329179    0.7892831  
C   -7.5695358   -0.8305258   -1.0814221  
O   -8.2140607   -1.5157633   -1.8639162  
C   -6.4444271   -0.0021984   -1.5078685  
H   -4.1060185    1.8872003   -1.5748765  
H   -7.4542975   -0.0236643    2.3964156  
H   -3.6342195    2.7786630    0.8994884  
H   -5.2948348    1.7501166    2.4702051  
C    1.0672568    0.0000697    2.3021913  
C    0.0000000    0.0000000    1.4700000  
C   -1.1601224    0.0000736    2.3478473  
C   -0.5938729    0.0000769    3.7138435  
N    0.7113367    0.0001554    3.6934124  
C   -1.4286986    0.0001879    4.8835240  
C   -2.7683114    0.0006799    4.6970523  
O   -3.6653903    0.0008304    5.6976972  
C   -3.3702025    0.0010610    3.3310774  
O   -4.5974910    0.0013779    3.2362962  
C   -2.4926826    0.0008943    2.1470656  
H   -0.9878360   -0.0000190    5.8697035  
H   -4.5324246    0.0012261    5.2533954  
H   -2.9677772    0.0012974    1.1752040  
H    2.1134392    0.0000545    2.0405121  
