62

C    1.1188646    0.0008225   -0.8003808  
C    0.0000000    0.0000000    0.0000000  
C   -1.1323861    0.0008895   -0.8673529  
C   -0.6382655    0.0019675   -2.1969285  
N    0.7324023    0.0038482   -2.1202242  
C   -1.4770909    0.0027312   -3.3154813  
C   -2.8395467    0.0020932   -3.0876860  
O   -3.7039190    0.0024408   -4.1440352  
C   -3.3517864    0.0013917   -1.7684337  
O   -4.7300486    0.0012348   -1.7073133  
C   -2.5248539    0.0009114   -0.6644824  
H   -1.1067558    0.0036982   -4.3313812  
H   -4.5940022    0.0021811   -3.7685142  
H   -4.9934597    0.0007245   -0.7819920  
H   -2.9462579    0.0005593    0.3339652  
H    2.1619896    0.0009362   -0.5342066  
C    4.5872072   -2.1312989   -2.8760566  
C    3.4257636   -1.6618660   -2.3075955  
C    2.8225615   -0.7845952   -3.2568813  
C    3.6683580   -0.7581058   -4.3952370  
N    4.7314862   -1.5851481   -4.1299511  
C    3.3837520    0.0055798   -5.5312703  
C    2.2240413    0.7559622   -5.5180173  
O    1.8977511    1.5195633   -6.6012815  
C    1.3675641    0.7429394   -4.3914766  
O    0.2523234    1.5428639   -4.5318411  
C    1.6478441   -0.0100095   -3.2702998  
H    3.0590296   -1.9191247   -1.3286586  
H    4.0243525    0.0301932   -6.4020327  
H    1.0629717    1.9557298   -6.3864165  
H   -0.2722942    1.4770478   -3.7280698  
H    5.3248336   -2.8113784   -2.4857249  
C    5.8431448   -1.8620902   -5.0510469  
C    6.9214149   -2.6682423   -4.8734883  
C    7.7106266   -2.5875055   -6.0799140  
C    6.9986668   -1.6615740   -6.9813321  
N    5.8747076   -1.2574244   -6.2984934  
C    7.4233935   -1.3197004   -8.2240844  
C    8.6644546   -1.9027728   -8.7060908  
O    9.1305360   -1.6576803   -9.8110789  
C    9.4348646   -2.8861161   -7.7683755  
O   10.4807251   -3.3834723   -8.1634354  
C    8.8773682   -3.1773528   -6.4499556  
H    7.1389979   -3.2528879   -3.9974400  
H    6.8861807   -0.6384544   -8.8692319  
H    9.4170052   -3.8590618   -5.8066912  
H    5.1847797   -0.6197073   -6.6511455  
C    0.8400945    0.7047457    2.2710304  
C    0.0000000    0.0000000    1.4700000  
C   -0.8844236   -0.7423113    2.3369512  
C   -0.4878984   -0.4098547    3.7186280  
N    0.5629682    0.4714286    3.6095011  
C   -1.0836927   -0.9095027    4.8308716  
C   -2.1891196   -1.8367527    4.6554461  
O   -2.7906899   -2.3413415    5.5944904  
C   -2.6257283   -2.2031529    3.2011665  
O   -3.5549479   -2.9829990    3.0410059  
C   -1.9068976   -1.5999348    2.0816745  
H   -0.7774656   -0.6525820    5.8354244  
H   -2.2155208   -1.8586617    1.0779135  
H    1.6384792    1.3747609    1.9961646  
H    1.0518368    0.8833920    4.3830260  
