58

C    1.0965517    0.0001357   -0.8010303  
C    0.0000000    0.0000000    0.0000000  
C   -1.1546559    0.0001468   -0.8669513  
C   -0.6372014    0.0003518   -2.2486279  
N    0.7342875    0.0007336   -2.1395010  
C   -1.4147734    0.0001352   -3.3608717  
C   -2.8576047   -0.0001048   -3.1854460  
O   -3.6427777   -0.0002494   -4.1244909  
C   -3.4275841   -0.0000724   -1.7311669  
O   -4.6406823    0.0000332   -1.5710061  
C   -2.4891866   -0.0001090   -0.6116746  
H   -1.0150442    0.0001614   -4.3654247  
H   -2.8919121   -0.0002917    0.3920862  
H    2.1388273    0.0000661   -0.5261641  
C    4.5566859   -2.0943516   -2.8440014  
C    3.3981929   -1.6309283   -2.3080836  
C    2.8135377   -0.7361952   -3.2788908  
C    3.7329572   -0.7162214   -4.4326065  
N    4.7695091   -1.5597360   -4.1056005  
C    3.5352823    0.0116643   -5.5607961  
C    2.3371289    0.8302000   -5.6442437  
O    2.0692130    1.5215077   -6.6182129  
C    1.3496283    0.8244739   -4.4340310  
O    0.3376980    1.5099051   -4.4926968  
C    1.6707647   -0.0012347   -3.2725970  
H    2.9988748   -1.8865416   -1.3427751  
H    4.2221499    0.0120713   -6.3957353  
H    5.2729796   -2.7812829   -2.4233609  
C    5.9245662   -1.8503893   -4.9671474  
C    6.9857379   -2.6640362   -4.7305678  
C    7.8362967   -2.5960279   -5.8953676  
C    7.1789697   -1.6693983   -6.8366802  
N    6.0248593   -1.2527324   -6.2143391  
C    7.6695199   -1.3375920   -8.0577332  
C    8.9288380   -1.9330105   -8.4726166  
O    9.4528472   -1.6975625   -9.5534865  
C    9.6422114   -2.9173136   -7.4917745  
O   10.7028402   -3.4250138   -7.8302547  
C    9.0156100   -3.1970317   -6.2022085  
H    7.1534281   -3.2456398   -3.8416184  
H    7.1715953   -0.6556290   -8.7329424  
H    9.5160471   -3.8794865   -5.5287531  
H    5.3590999   -0.6115155   -6.6050471  
C    2.5128556    2.1077716    2.9199648  
C    1.9592212    1.6432552    4.0696553  
C    0.8915788    0.7479214    3.6910360  
C    0.8684491    0.7287414    2.2159470  
N    1.8754542    1.5738793    1.8102719  
C    0.0000000    0.0000000    1.4700000  
C   -0.9772830   -0.8200135    2.1664417  
O   -1.8021297   -1.5120829    1.5842315  
C   -0.9711318   -0.8147624    3.7284083  
O   -1.7894187   -1.5009653    4.3257297  
C    0.0140216    0.0115358    4.4216297  
H    2.2638494    1.8988021    5.0689105  
H    0.0117648    0.0094386    5.5031631  
H    3.3327358    2.7953732    2.7900019  
H    2.1123206    1.7707734    0.8551938  
