58

C   -7.0178248    1.8482348   -0.2376619  
C   -7.3919978    2.6620300    0.7830276  
C   -8.8315485    2.5925635    0.8707875  
C   -9.2685058    1.6649164   -0.1900282  
N   -8.1214145    1.2491134   -0.8257797  
C  -10.5609147    1.3316292   -0.4355971  
C  -11.5902798    1.9264140    0.4005690  
O  -12.7828092    1.6896443    0.2587517  
C  -11.1503374    2.9117739    1.5298708  
O  -12.0080855    3.4189529    2.2400118  
C   -9.7267872    3.1930689    1.6978792  
H   -6.7346046    3.2446489    1.4035129  
H  -10.8600738    0.6489393   -1.2187628  
H   -9.4304612    3.8762483    2.4822140  
H   -8.0905239    0.6075212   -1.5967873  
C   -4.4924717    2.0950384   -0.2442175  
C   -3.4157280    1.6323169   -0.9302108  
C   -3.9167331    0.7362616   -1.9455503  
C   -5.3841436    0.7147472   -1.7937833  
N   -5.6689491    1.5587229   -0.7452221  
C   -6.2266195   -0.0146657   -2.5683130  
C   -5.6495861   -0.8333369   -3.6215675  
O   -6.3243554   -1.5259649   -4.3720696  
C   -4.0978604   -0.8259953   -3.8001698  
O   -3.6005729   -1.5115249   -4.6833547  
C   -3.2941076    0.0012878   -2.9038237  
H   -2.3878030    1.8892262   -0.7458681  
H   -7.3001859   -0.0161872   -2.4403978  
H   -4.5254892    2.7825512    0.5853158  
C    0.0000000    0.0000000    0.0000000  
C    1.0541688   -0.0001723   -0.8560392  
C    0.5103136   -0.0000455   -2.1935956  
C   -0.9576373    0.0002461   -2.0455730  
N   -1.2018460   -0.0001389   -0.6915968  
C   -1.8348314    0.0008319   -3.0810607  
C   -1.2972851    0.0009739   -4.4314603  
O   -2.0050676    0.0014268   -5.4301316  
C    0.2542619    0.0004184   -4.6117572  
O    0.7184666    0.0002257   -5.7439122  
C    1.0974551    0.0000873   -3.4189129  
H    2.0940752   -0.0005484   -0.5817983  
H    2.1707276   -0.0000912   -3.5523673  
H   -2.1128194    0.0014915   -0.2706789  
C    3.3321173   -0.0004715    2.8079335  
C    2.6974184   -0.0000116    4.0032312  
C    1.2800439    0.0002118    3.6752840  
C    1.2395035   -0.0000644    2.1971295  
N    2.4394063   -0.0005460    1.6831036  
C    0.0000000    0.0000000    1.4700000  
C   -1.1468701   -0.0000635    2.1869543  
O   -2.3742202   -0.0000073    1.6395491  
C   -1.1388768   -0.0001607    3.6796354  
O   -2.2206231   -0.0000905    4.2670412  
C    0.1454524   -0.0001816    4.4024240  
H    3.1367986    0.0000651    4.9860947  
H   -2.9844344   -0.0001026    2.3990168  
H    0.1083576   -0.0003682    5.4835595  
H    4.3940039   -0.0007619    2.6198634  
