60

C    2.4521484    0.0014842   -3.7217481  
C    3.5087820    0.0024555   -2.8687537  
C    4.7039150    0.0027665   -3.6789965  
C    4.2537131    0.0019197   -5.0840259  
N    2.8785577    0.0007668   -5.0411852  
C    5.0840338    0.0023144   -6.1574656  
C    6.5167227    0.0034371   -5.9126443  
O    7.3462793    0.0038069   -6.8127195  
C    7.0158847    0.0040952   -4.4325625  
O    8.2198450    0.0047346   -4.2140697  
C    6.0245765    0.0038618   -3.3596409  
H    3.4569035    0.0027207   -1.7945466  
H    4.7332282    0.0018078   -7.1801314  
H    6.3784128    0.0045265   -2.3376217  
H    2.2773151    0.0015478   -5.8446488  
C    0.0000000    0.0000000    0.0000000  
C    1.0662922   -0.0000101   -0.8334266  
C    0.4961875    0.0000066   -2.1718886  
C   -0.9663853   -0.0000848   -1.9540248  
N   -1.2632772   -0.0000083   -0.6828658  
C   -1.8985359   -0.0000514   -3.0477260  
C   -1.3925768    0.0004568   -4.3020543  
O   -2.1456378    0.0005413   -5.4151314  
C    0.0786238    0.0009327   -4.5544999  
O    0.4683768    0.0012594   -5.7221098  
C    1.0143171    0.0008446   -3.4159030  
H    2.1107199    0.0000634   -0.5721863  
H   -1.5042266    0.0009697   -6.1484425  
C   -3.9884048    0.7039235   -1.8242586  
C   -3.3460091   -0.0004261   -2.7913651  
C   -4.3537576   -0.7427563   -3.5112432  
C   -5.6451792   -0.4107425   -2.8797472  
N   -5.3546444    0.4703285   -1.8637782  
C   -6.8441767   -0.9105379   -3.2725762  
C   -6.8640248   -1.8374906   -4.3919062  
O   -7.8934836   -2.3421814   -4.8206293  
C   -5.5080958   -2.2034205   -5.0755424  
O   -5.5122764   -2.9830135   -6.0186633  
C   -4.2805263   -1.6000811   -4.5627984  
H   -7.7799852   -0.6539432   -2.7957833  
H   -3.3459148   -1.8584816   -5.0418131  
H   -3.5786578    1.3738263   -1.0858635  
H   -6.0311465    0.8819830   -1.2473912  
C    0.0000000    0.0000000    1.4700000  
C    1.0521667    0.0011902    2.3562342  
C    0.4917218    0.0011957    3.6679131  
C   -0.9187428   -0.0003148    3.5178682  
N   -1.1833171    0.0009411    2.1707914  
C   -1.7951701   -0.0010350    4.6072090  
C   -1.2375837   -0.0005224    5.8710424  
O   -2.0474215   -0.0015360    6.9697579  
C    0.1673580    0.0013566    6.0411963  
O    0.5673524    0.0020687    7.3615553  
C    1.0325770    0.0023412    4.9669890  
H    2.0953057    0.0030649    2.0900562  
H   -2.0989778   -0.0102372    1.7591824  
H   -2.8710934   -0.0020419    4.4995513  
H   -1.4634884   -0.0006497    7.7393593  
H    1.5290710    0.0033153    7.3880045  
H    2.1042148    0.0039609    5.1284455  
