58

C    2.8922408   -0.6983018   -3.3324292  
C    1.7334693    0.0049304   -3.2500360  
C    1.6030840    0.7473163   -4.4815792  
C    2.7893711    0.4165532   -5.2940495  
N    3.5310122   -0.4639208   -4.5406410  
C    3.0380450    0.9167664   -6.5308408  
C    2.0730120    1.8428817   -7.0996617  
O    2.2068885    2.3478621   -8.2066274  
C    0.8095315    2.2074830   -6.2567572  
O   -0.0097634    2.9863627   -6.7251184  
C    0.6512121    1.6037995   -4.9360175  
H   -0.2264690    1.8612785   -4.3588654  
H    3.3334063   -1.3678890   -2.6120712  
H    4.4011529   -0.8747035   -4.8255269  
C    1.1319244    0.0015694   -0.8009269  
C    0.7969912    0.0034968   -2.1169398  
C   -0.6453341    0.0035682   -2.1842667  
C   -1.1266834    0.0015391   -0.7896024  
N    0.0000000    0.0000000    0.0000000  
C   -2.4346129    0.0013875   -0.4276293  
C   -3.4350111    0.0031281   -1.4820179  
O   -4.6384619    0.0030806   -1.2583907  
C   -2.9478959    0.0050394   -2.9661073  
O   -3.7809386    0.0062077   -3.8623770  
C   -1.5113828    0.0053030   -3.2312120  
H   -2.7664568    0.0000132    0.6013454  
H   -1.1823532    0.0068360   -4.2614848  
H    2.1104314    0.0009468   -0.3488060  
C    4.7941673   -0.6620321   -7.4159577  
C    4.2295547    0.5691394   -7.3184698  
C    5.0215811    1.4611246   -8.1320384  
C    6.1016295    0.6428219   -8.7157024  
N    5.9074097   -0.6342667   -8.2421914  
C    7.0631251    1.1184803   -9.5469546  
C    7.0322978    2.5306668   -9.8894649  
O    7.8540354    3.0545195  -10.6301582  
C    5.8975967    3.4160879   -9.2825962  
O    5.8615885    4.6064802   -9.5635405  
C    4.9176505    2.7893013   -8.3990258  
H    7.8464903    0.5011686   -9.9642971  
H    4.1350678    3.4092408   -7.9831376  
H    4.4907871   -1.5872523   -6.9535538  
H    6.4842051   -1.4248266   -8.4643813  
C    2.5528530    2.1414826    2.8079335  
C    2.0663498    1.7338582    4.0032312  
C    0.9804344    0.8229586    3.6752840  
C    0.9495562    0.7966882    2.1971295  
N    1.8690446    1.5676019    1.6831036  
C    0.0000000    0.0000000    1.4700000  
C   -0.8785127   -0.7372425    2.1869543  
O   -1.8187535   -1.5261249    1.6395491  
C   -0.8723269   -0.7321790    3.6796354  
O   -1.7010379   -1.4274584    4.2670412  
C    0.1115397    0.0933559    4.4024240  
H    2.4028853    2.0163452    4.9860947  
H   -2.2861435   -1.9184361    2.3990168  
H    0.0832434    0.0693689    5.4835595  
H    3.3664920    2.8238276    2.6198634  
