58

C    2.8697706   -3.3630203   -8.6925319  
C    2.4843054   -2.1203324   -8.3036623  
C    2.6089523   -1.2606999   -9.4570618  
C    3.1021415   -2.1105371  -10.5576669  
N    3.2400238   -3.3731352  -10.0287771  
C    3.3496038   -1.6704102  -11.8173317  
C    3.1147256   -0.2659190  -12.1084868  
O    3.3076109    0.2268420  -13.2122454  
C    2.5926892    0.6524798  -10.9579102  
O    2.3915720    1.8367336  -11.1910534  
C    2.3628346    0.0627778   -9.6413737  
H    3.7110009   -2.3104511  -12.6102065  
H    2.0011615    0.7053987   -8.8502008  
H    2.9147133   -4.2722389   -8.1153052  
H    3.5584384   -4.1783910  -10.5359478  
C    2.5185218   -2.1418784   -5.7664424  
C    2.0285782   -1.7344766   -6.9604095  
C    0.9435061   -0.8236411   -6.6295061  
C    0.9168305   -0.7971604   -5.1512734  
N    1.8378571   -1.5679055   -4.6397540  
C   -0.0307352   -0.0004646   -4.4215603  
C   -0.9113601    0.7365843   -5.1361187  
O   -1.8501209    1.5254492   -4.5861545  
C   -0.9094202    0.7313056   -6.6288105  
O   -1.7398706    1.4264149   -7.2139564  
C    0.0724713   -0.0942327   -7.3542759  
H   -2.3197102    1.9176027   -5.3443459  
H    0.0410970   -0.0704047   -8.4353302  
H    3.3327630   -2.8241129   -5.5805892  
C    3.2573670   -0.0002920   -1.5109380  
C    2.5379468   -0.0001709   -0.3591961  
C    1.1435043    0.0000332   -0.7338500  
C    1.1092609   -0.0000082   -2.2088477  
N    2.4227562    0.0001909   -2.6182613  
C   -0.0265532   -0.0002522   -2.9515663  
C   -1.3003035   -0.0002639   -2.2514981  
O   -2.3786784   -0.0004131   -2.8306429  
C   -1.2877725    0.0000312   -0.6895608  
O   -2.3539958    0.0003307   -0.0892036  
C    0.0000000    0.0000000    0.0000000  
H    2.9384091   -0.0000369    0.6389239  
H    4.3270394   -0.0004765   -1.6439446  
H    2.7280494   -0.0013406   -3.5742113  
C    2.5528530    2.1414826    2.8079335  
C    2.0663498    1.7338582    4.0032312  
C    0.9804344    0.8229586    3.6752840  
C    0.9495562    0.7966882    2.1971295  
N    1.8690446    1.5676019    1.6831036  
C    0.0000000    0.0000000    1.4700000  
C   -0.8785127   -0.7372425    2.1869543  
O   -1.8187535   -1.5261249    1.6395491  
C   -0.8723269   -0.7321790    3.6796354  
O   -1.7010379   -1.4274584    4.2670412  
C    0.1115397    0.0933559    4.4024240  
H    2.4028853    2.0163452    4.9860947  
H   -2.2861435   -1.9184361    2.3990168  
H    0.0832434    0.0693689    5.4835595  
H    3.3664920    2.8238276    2.6198634  
