60

C    1.1188644    0.0008226   -0.8003805  
C    0.0000000    0.0000000    0.0000000  
C   -1.1323860    0.0008892   -0.8673527  
C   -0.6382656    0.0019674   -2.1969283  
N    0.7324019    0.0038482   -2.1202239  
C   -1.4770908    0.0027309   -3.3154809  
C   -2.8395472    0.0020928   -3.0876856  
O   -3.7039192    0.0024401   -4.1440350  
C   -3.3517869    0.0013914   -1.7684331  
O   -4.7300491    0.0012343   -1.7073130  
C   -2.5248543    0.0009112   -0.6644819  
H   -1.1067561    0.0036980   -4.3313812  
H   -4.5940030    0.0021805   -3.7685135  
H   -4.9934602    0.0007241   -0.7819917  
H   -2.9462580    0.0005591    0.3339653  
H    2.1619895    0.0009363   -0.5342066  
C    4.5154634   -2.1146742   -2.8156716  
C    4.7985787   -1.6646921   -4.0652463  
C    3.7280662   -0.7729166   -4.4441598  
C    2.7913715   -0.7399853   -3.3047264  
N    3.3260556   -1.5745760   -2.3505458  
C    1.6478439   -0.0100095   -3.2702997  
C    1.3174724    0.7969142   -4.4331687  
O    0.3100018    1.4889656   -4.4992704  
C    2.2949959    0.7769792   -5.6513051  
O    2.0272068    1.4520882   -6.6360779  
C    3.4969331   -0.0492770   -5.5706860  
H    4.1686930   -0.0573906   -6.4182686  
H    5.0755455   -2.7955770   -2.1955351  
H    2.9164744   -1.7608854   -1.4535623  
C    6.8938563   -5.4820655   -4.6316505  
C    7.8668529   -5.0792837   -5.4890416  
C    7.6661920   -3.6682853   -5.7206775  
C    6.4881051   -3.2792532   -4.9222065  
N    6.0667436   -4.4241271   -4.2861188  
C    5.9747002   -2.0240842   -4.8705258  
C    6.6257519   -0.9871554   -5.6537535  
O    6.2391201    0.1740556   -5.6738806  
C    7.8748188   -1.3766995   -6.5069201  
O    8.4310972   -0.5122477   -7.1706507  
C    8.3350180   -2.7628555   -6.4816030  
H    8.6371177   -5.6998351   -5.9112022  
H    9.2006534   -3.0243290   -7.0749250  
H    6.7113194   -6.4627949   -4.2233125  
H    5.2807912   -4.4817882   -3.6648288  
C    2.5128556    2.1077716    2.9199648  
C    1.9592212    1.6432552    4.0696553  
C    0.8915788    0.7479214    3.6910360  
C    0.8684491    0.7287414    2.2159470  
N    1.8754542    1.5738793    1.8102719  
C    0.0000000    0.0000000    1.4700000  
C   -0.9772830   -0.8200135    2.1664417  
O   -1.8021297   -1.5120829    1.5842315  
C   -0.9711318   -0.8147624    3.7284083  
O   -1.7894187   -1.5009653    4.3257297  
C    0.0140216    0.0115358    4.4216297  
H    2.2638494    1.8988021    5.0689105  
H    0.0117648    0.0094386    5.5031631  
H    3.3327358    2.7953732    2.7900019  
H    2.1123206    1.7707734    0.8551938  
