62

C    1.9074101   -2.1157065   -5.2171229  
C    1.7366746   -1.6153233   -6.4871361  
C    0.6103620   -0.7412452   -6.4423316  
C    0.1310739   -0.7480686   -5.1073554  
N    0.9400186   -1.5942805   -4.3903116  
C   -0.9736307    0.0040462   -4.6965764  
C   -1.6058314    0.7773675   -5.6507639  
O   -2.6892511    1.5315492   -5.3037404  
C   -1.1427651    0.7971174   -6.9879240  
O   -1.8787377    1.6162795   -7.8189836  
C   -0.0531734    0.0551806   -7.3939360  
H    2.3479761   -1.8521275   -7.3410847  
H    0.8493703   -1.7919001   -3.4101534  
H   -2.9736295    1.9867684   -6.1069649  
H   -1.5003174    1.5722378   -8.7024217  
H    2.6418342   -2.8044012   -4.8359684  
C    1.1188640    0.0008221   -0.8003812  
C    0.0000000    0.0000000    0.0000000  
C   -1.1323863    0.0008899   -0.8673529  
C   -0.6382668    0.0019679   -2.1969279  
N    0.7324010    0.0038481   -2.1202242  
C   -1.4770922    0.0027316   -3.3154806  
C   -2.8395480    0.0020942   -3.0876856  
O   -3.7039211    0.0024421   -4.1440339  
C   -3.3517872    0.0013929   -1.7684323  
O   -4.7300499    0.0012365   -1.7073114  
C   -2.5248544    0.0009122   -0.6644814  
H    1.3576308   -0.0056168   -2.9057049  
H   -4.5940044    0.0021827   -3.7685121  
H   -4.9934605    0.0007257   -0.7819900  
H   -2.9462578    0.0005602    0.3339670  
H    2.1619894    0.0009355   -0.5342074  
C    0.8344324   -0.9502440   -9.5296517  
C    0.3964706    0.1029013   -8.7926654  
C    0.4587586    1.2674276   -9.6440372  
C    0.9725663    0.8030627  -10.9467870  
N    1.1807037   -0.5501659  -10.8113587  
C    1.1758502    1.6043807  -12.0230164  
C    0.8682617    3.0186084  -11.8892820  
O    1.0172985    3.8217968  -12.8008624  
C    0.3232321    3.5323498  -10.5185818  
O    0.0610328    4.7210421  -10.3939943  
C    0.1457740    2.5724759   -9.4318425  
H    1.5534351    1.2436023  -12.9696833  
H   -0.2322424    2.9362019   -8.4860457  
H    0.9335628   -1.9849365   -9.2442137  
H    1.5284658   -1.1544574  -11.5331211  
C    2.5128556    2.1077716    2.9199648  
C    1.9592212    1.6432552    4.0696553  
C    0.8915788    0.7479214    3.6910360  
C    0.8684491    0.7287414    2.2159470  
N    1.8754542    1.5738793    1.8102719  
C    0.0000000    0.0000000    1.4700000  
C   -0.9772830   -0.8200135    2.1664417  
O   -1.8021297   -1.5120829    1.5842315  
C   -0.9711318   -0.8147624    3.7284083  
O   -1.7894187   -1.5009653    4.3257297  
C    0.0140216    0.0115358    4.4216297  
H    2.2638494    1.8988021    5.0689105  
H    0.0117648    0.0094386    5.5031631  
H    3.3327358    2.7953732    2.7900019  
H    2.1123206    1.7707734    0.8551938  
