58

C    0.8807950   -0.7246970   -5.2251239  
C    0.6214225   -0.5080880   -6.5403738  
C   -0.4848661    0.4175788   -6.6044201  
C   -0.8513559    0.7247238   -5.2086633  
N    0.0139746    0.0003883   -4.4216235  
C   -1.8534961    1.5639100   -4.8437164  
C   -2.6226005    2.2073956   -5.8958292  
O   -3.5449409    2.9796324   -5.6694659  
C   -2.2520195    1.8964730   -7.3810233  
O   -2.8926925    2.4320968   -8.2753967  
C   -1.1509180    0.9748408   -7.6493942  
H    1.1451765   -0.9468426   -7.3709092  
H   -2.1059468    1.7756655   -3.8139893  
H   -0.9005276    0.7650130   -8.6804138  
H    1.6321148   -1.3531899   -4.7752294  
C    3.2798087    0.0005858   -1.4499643  
C    2.5571149    0.0005569   -2.5996548  
C    1.1637440    0.0001551   -2.2210358  
C    1.1336966   -0.0000198   -0.7459468  
N    2.4483512   -0.0001426   -0.3402714  
C    0.0000000    0.0000000    0.0000000  
C   -1.2757369   -0.0000185   -0.6964416  
O   -2.3524599   -0.0000639   -0.1142315  
C   -1.2676492   -0.0000870   -2.2584080  
O   -2.3355760   -0.0004099   -2.8557298  
C    0.0181565    0.0001762   -2.9516296  
H    2.9547360    0.0006079   -3.5989102  
H    2.7563627    0.0012824    0.6148067  
C    4.7390849    0.0009618   -1.2727274  
C    5.7159797    0.0017147   -2.2159938  
C    6.9782059    0.0017434   -1.5148383  
C    6.6542740    0.0009104   -0.0754432  
N    5.2807310    0.0008654    0.0037361  
C    7.5764453    0.0002884    0.9201994  
C    8.9818045    0.0006764    0.5493910  
O    9.8878540    0.0002360    1.3724190  
C    9.3478547    0.0018102   -0.9690988  
O   10.5277196    0.0024518   -1.2934138  
C    8.2653752    0.0021256   -1.9499607  
H    5.5691195    0.0023776   -3.2813791  
H    7.3176377   -0.0004484    1.9699268  
H    8.5272596    0.0027064   -2.9993132  
H    4.7530488   -0.0011853    0.8573138  
C    2.5528530    2.1414826    2.8079335  
C    2.0663498    1.7338582    4.0032312  
C    0.9804344    0.8229586    3.6752840  
C    0.9495562    0.7966882    2.1971295  
N    1.8690446    1.5676019    1.6831036  
C    0.0000000    0.0000000    1.4700000  
C   -0.8785127   -0.7372425    2.1869543  
O   -1.8187535   -1.5261249    1.6395491  
C   -0.8723269   -0.7321790    3.6796354  
O   -1.7010379   -1.4274584    4.2670412  
C    0.1115397    0.0933559    4.4024240  
H    2.4028853    2.0163452    4.9860947  
H   -2.2861435   -1.9184361    2.3990168  
H    0.0832434    0.0693689    5.4835595  
H    3.3664920    2.8238276    2.6198634  
