60

C    3.3003538    0.0005281   -1.4738992  
C    2.5232800    0.0003503   -2.6090749  
C    1.1623189   -0.0001314   -2.1820098  
C    1.1711878    0.0000586   -0.7636137  
N    2.4852296   -0.0014917   -0.3662360  
C    0.0000000    0.0000000    0.0000000  
C   -1.2020393    0.0000523   -0.6806466  
O   -2.3759247    0.0003494    0.0157756  
C   -1.2314669   -0.0005109   -2.0955498  
O   -2.5054399   -0.0008032   -2.6250165  
C   -0.0764531   -0.0007268   -2.8495186  
H    2.8036266    0.0088183    0.5858656  
H   -3.0835642    0.0000351   -0.6418796  
H   -2.4360061   -0.0011523   -3.5845904  
H   -0.1304110   -0.0013413   -3.9319077  
H    4.3715543    0.0004899   -1.3667147  
C    5.8912976   -2.0917703   -4.5522480  
C    4.9784970   -1.6292445   -3.6595324  
C    4.1021045   -0.7349680   -4.3785882  
C    4.5825769   -0.7142838   -5.7734030  
N    5.6694184   -1.5569930   -5.8122174  
C    4.0183399    0.0134452   -6.7702737  
C    2.8607053    0.8310507   -6.4478795  
O    2.2818930    1.5221480   -7.2759265  
C    2.3349637    0.8245617   -4.9770429  
O    1.3612100    1.5092075   -4.6936264  
C    3.0267417   -0.0008944   -3.9901705  
H    4.9253031   -1.8851652   -2.6163220  
H    4.3863155    0.0143831   -7.7868872  
H    6.7075424   -2.7781445   -4.3956452  
C    7.4498376   -5.2838251   -7.3035820  
C    8.0340581   -4.8160580   -8.4366995  
C    7.7468926   -3.4026955   -8.5058267  
C    6.9417343   -3.0830967   -7.3115204  
N    6.7968102   -4.2663310   -6.6246122  
C    6.4699203   -1.8467524   -7.0106067  
C    6.7753183   -0.7582542   -7.9240831  
O    6.3959114    0.3910597   -7.7412467  
C    7.6263121   -1.0739257   -9.1952900  
O    7.8895065   -0.1656209   -9.9718019  
C    8.0784549   -2.4459745   -9.4118557  
H    8.6012685   -5.3950673   -9.1435474  
H    8.6673660   -2.6561744  -10.2943090  
H    7.4412301   -6.2862989   -6.9075243  
H    6.2957340   -4.3737432   -5.7618071  
C    0.0000000    0.0000000    1.4700000  
C    1.0541688    0.0001722    2.3260392  
C    0.5103138    0.0000454    3.6635956  
C   -0.9576371   -0.0002459    3.5155732  
N   -1.2018458    0.0001392    2.1615969  
C   -1.8348311   -0.0008317    4.5510609  
C   -1.2972847   -0.0009736    5.9014604  
O   -2.0050672   -0.0014265    6.9001319  
C    0.2542623   -0.0004184    6.0817573  
O    0.7184670   -0.0002256    7.2139121  
C    1.0974552   -0.0000873    4.8889129  
H    2.0940752    0.0005483    2.0517982  
H   -2.9081052   -0.0011668    4.4207061  
H    2.1707277    0.0000911    5.0223670  
H   -2.1128194   -0.0014912    1.7406791  
