58

C    9.9275420   -0.0035440    3.8396502  
C    9.1690513   -0.0033010    2.7132543  
C    7.7882775   -0.0009964    3.1355033  
C    7.8046326    0.0001204    4.6108071  
N    9.1313934   -0.0019145    4.9749402  
C    6.6949573    0.0027106    5.3920355  
C    5.3979516    0.0042929    4.7360554  
O    4.3400721    0.0065826    5.3518368  
C    5.3569145    0.0028973    3.1746078  
O    4.2707327    0.0039027    2.6111645  
C    6.6202828    0.0003740    2.4412955  
H    9.5350504   -0.0047716    1.7019899  
H    6.7289574    0.0036195    6.4726612  
H   11.0011455   -0.0049933    3.9358988  
H    9.4692897   -0.0002144    5.9198593  
C    6.5698748   -0.0006426    0.9721604  
C    7.6069608   -0.0018566    0.1026600  
C    6.9912938   -0.0024303   -1.2154651  
C    5.5370524   -0.0015106   -0.9475766  
N    5.2839248   -0.0003802    0.3330147  
C    4.5679461   -0.0016854   -2.0086701  
C    5.0305954   -0.0023424   -3.2796108  
O    4.2398094   -0.0025846   -4.3662103  
C    6.4922743   -0.0029067   -3.5823566  
O    6.8417596   -0.0036170   -4.7626448  
C    7.4664607   -0.0027577   -2.4765153  
H    8.6597322   -0.0022169    0.3279327  
H    4.8556973   -0.0030409   -5.1210843  
H    8.5162191   -0.0030652   -2.7377369  
C    3.1301149   -0.0010311   -1.7028252  
C    2.5367768   -0.0002767   -0.4864665  
C    1.1089904    0.0001028   -0.7656183  
C    1.0177872   -0.0004148   -2.2415132  
N    2.1993578   -0.0011611   -2.7963820  
C   -0.2459209   -0.0002877   -2.9257118  
C   -1.3675319   -0.0000605   -2.1698524  
O   -2.6129313    0.0000867   -2.6748490  
C   -1.3083584    0.0000910   -0.6783232  
O   -2.3693261    0.0004206   -0.0541692  
C    0.0000000    0.0000000    0.0000000  
H    3.0096017   -0.0001007    0.4807525  
H   -0.2829630   -0.0004687   -4.0053125  
H   -3.1967441    0.0002094   -1.8949034  
C    0.0000000    0.0000000    1.4700000  
C    1.0662921    0.0000102    2.3034270  
C    0.4961870   -0.0000064    3.6418889  
C   -0.9663858    0.0000850    3.4240247  
N   -1.2632773    0.0000084    2.1528658  
C   -1.8985362    0.0000517    4.5177257  
C   -1.3925775   -0.0004564    5.7720543  
O   -2.1456383   -0.0005410    6.8851312  
C    0.0786232   -0.0009323    6.0245000  
O    0.4683759   -0.0012588    7.1921102  
C    1.0143166   -0.0008442    4.8859032  
H    2.1107198   -0.0000632    2.0421868  
H   -2.9622183    0.0003270    4.3293377  
H   -1.5042274   -0.0009692    7.6184419  
H    2.0724152   -0.0013148    5.1109744  
