58

C    6.9437609   -1.8460483   -6.6468514  
C    8.0295022   -2.6597111   -6.7033639  
C    8.5381134   -2.5899021   -8.0529111  
C    7.6533583   -1.6621984   -8.7832292  
N    6.7073963   -1.2466930   -7.8747125  
C    7.8000349   -1.3286180  -10.0904831  
C    8.9027712   -1.9231240  -10.8274175  
O    9.1191194   -1.6860801  -12.0086465  
C    9.8520882   -2.9085383  -10.0740506  
O   10.7837617   -3.4154846  -10.6841757  
C    9.5926027   -3.1901609   -8.6643681  
H    8.4284498   -3.2424577   -5.8922783  
H    7.1399359   -0.6458919  -10.6072661  
H   10.2546549   -3.8733758   -8.1499472  
H    5.9615312   -0.6051415   -8.0725622  
C    6.1923727   -2.0934464   -4.2359234  
C    5.2191579   -1.6310079   -3.4094375  
C    4.3967568   -0.7348789   -4.1875409  
C    4.9747507   -0.7130129   -5.5448301  
N    6.0607564   -1.5568759   -5.5077365  
C    4.4832131    0.0165646   -6.5781804  
C    3.3064983    0.8350541   -6.3374474  
O    2.7884378    1.5278083   -7.2034761  
C    2.6779836    0.8273397   -4.9075121  
O    1.6873118    1.5127139   -4.6928207  
C    3.2973506   -0.0000934   -3.8752374  
H    5.0920135   -1.8881512   -2.3729405  
H    4.9222082    0.0183443   -7.5662029  
H    6.9947906   -2.7809152   -4.0228475  
C    3.3321174    0.0004714   -1.3379332  
C    2.6974186    0.0000115   -2.5332308  
C    1.2800441   -0.0002119   -2.2052838  
C    1.2395035    0.0000643   -0.7271293  
N    2.4394063    0.0005458   -0.2131034  
C    0.0000000    0.0000000    0.0000000  
C   -1.1468701    0.0000634   -0.7169542  
O   -2.3742201    0.0000072   -0.1695492  
C   -1.1388767    0.0001606   -2.2096354  
O   -2.2206229    0.0000903   -2.7970413  
C    0.1454526    0.0001815   -2.9324239  
H   -2.9844344    0.0001023   -0.9290168  
H    0.1083580    0.0003680   -4.0135594  
H    4.3940040    0.0007617   -1.1498630  
C    0.8400945    0.7047457    2.2710304  
C    0.0000000    0.0000000    1.4700000  
C   -0.8844236   -0.7423113    2.3369512  
C   -0.4878984   -0.4098547    3.7186280  
N    0.5629682    0.4714286    3.6095011  
C   -1.0836927   -0.9095027    4.8308716  
C   -2.1891196   -1.8367527    4.6554461  
O   -2.7906899   -2.3413415    5.5944904  
C   -2.6257283   -2.2031529    3.2011665  
O   -3.5549479   -2.9829990    3.0410059  
C   -1.9068976   -1.5999348    2.0816745  
H   -0.7774656   -0.6525820    5.8354244  
H   -2.2155208   -1.8586617    1.0779135  
H    1.6384792    1.3747609    1.9961646  
H    1.0518368    0.8833920    4.3830260  
