58

C    1.1319244    0.0015679   -0.8009270  
C    0.7969906    0.0034958   -2.1169400  
C   -0.6453348    0.0035696   -2.1842663  
C   -1.1266837    0.0015411   -0.7896022  
N    0.0000000    0.0000000    0.0000000  
C   -2.4346133    0.0013914   -0.4276285  
C   -3.4350117    0.0031336   -1.4820169  
O   -4.6384613    0.0030876   -1.2583901  
C   -2.9478971    0.0050444   -2.9661061  
O   -3.7809387    0.0062136   -3.8623760  
C   -1.5113837    0.0053058   -3.2312116  
H   -2.7664563    0.0000175    0.6013457  
H   -1.1823545    0.0068381   -4.2614843  
H    2.1104310    0.0009435   -0.3488059  
C    4.6221939   -2.0851248   -2.8254002  
C    3.4630810   -1.6242706   -2.2886074  
C    2.8772259   -0.7284864   -3.2577202  
C    3.7966163   -0.7050959   -4.4113947  
N    4.8342984   -1.5478373   -4.0859846  
C    3.5979640    0.0246584   -5.5382047  
C    2.3987141    0.8417431   -5.6201041  
O    2.1298705    1.5345333   -6.5927634  
C    1.4112235    0.8324024   -4.4099060  
O    0.3983750    1.5165858   -4.4672755  
C    1.7334683    0.0049282   -3.2500365  
H    3.0641074   -1.8822459   -1.3237850  
H    5.3394087   -2.7718903   -2.4060600  
H    5.6230802   -1.7440852   -4.6745060  
C    5.9365795   -3.1746150   -7.4854996  
C    5.1066753   -2.4693426   -6.6743739  
C    5.1543332   -1.0953150   -7.1155222  
C    6.0866937   -1.0576378   -8.2583584  
N    6.5264032   -2.3497844   -8.4312805  
C    6.4031789    0.0626532   -8.9558467  
C    5.7843888    1.3149172   -8.5540162  
O    6.0048739    2.3782295   -9.1188639  
C    4.7940215    1.2984289   -7.3462471  
O    4.2671670    2.3466819   -6.9986100  
C    4.5318597    0.0286127   -6.6734244  
H    4.5273819   -2.8663041   -5.8598470  
H    7.0895028    0.0685629   -9.7912125  
H    6.1670826   -4.2275015   -7.4717725  
H    7.1742682   -2.6480756   -9.1372135  
C    2.5128556    2.1077716    2.9199648  
C    1.9592212    1.6432552    4.0696553  
C    0.8915788    0.7479214    3.6910360  
C    0.8684491    0.7287414    2.2159470  
N    1.8754542    1.5738793    1.8102719  
C    0.0000000    0.0000000    1.4700000  
C   -0.9772830   -0.8200135    2.1664417  
O   -1.8021297   -1.5120829    1.5842315  
C   -0.9711318   -0.8147624    3.7284083  
O   -1.7894187   -1.5009653    4.3257297  
C    0.0140216    0.0115358    4.4216297  
H    2.2638494    1.8988021    5.0689105  
H    0.0117648    0.0094386    5.5031631  
H    3.3327358    2.7953732    2.7900019  
H    2.1123206    1.7707734    0.8551938  
