58

C    7.0548980    0.0018860   -6.2721684  
C    7.6714086    0.0032455   -5.0622144  
C    9.0931541    0.0038692   -5.3141546  
C    9.2555689    0.0027828   -6.7805830  
N    7.9826650    0.0012067   -7.3026964  
C   10.4516818    0.0033584   -7.4216900  
C   11.6597096    0.0049426   -6.6134797  
O   12.7843729    0.0055053   -7.0966294  
C   11.5113629    0.0058608   -5.0585530  
O   12.5213233    0.0068888   -4.3677281  
C   10.1684911    0.0053966   -4.4836215  
H    7.1856442    0.0035712   -4.1027111  
H   10.5487893    0.0026702   -8.4984814  
H   10.0744148    0.0062438   -3.4061834  
H    7.7616800    0.0017440   -8.2815798  
C    3.2973507   -0.0000930   -3.8752373  
C    4.6109363    0.0001680   -4.2009254  
C    4.6367196   -0.0000873   -5.6555165  
C    3.2125800   -0.0006165   -6.0535231  
N    2.4227569   -0.0005415   -5.0142109  
C    2.8079502   -0.0009500   -7.4324215  
C    3.7817678   -0.0003743   -8.3710445  
O    3.5485418   -0.0006025   -9.6945417  
C    5.2278981    0.0005395   -8.0010881  
O    6.0602363    0.0009038   -8.9079694  
C    5.6174389    0.0008224   -6.5797565  
H    5.4578085    0.0005838   -3.5361826  
H    1.7599988   -0.0015416   -7.6945430  
H    4.4333818   -0.0000277  -10.1022329  
C    3.3321175    0.0004715   -1.3379331  
C    2.6974186    0.0000117   -2.5332308  
C    1.2800441   -0.0002117   -2.2052838  
C    1.2395036    0.0000644   -0.7271292  
N    2.4394065    0.0005460   -0.2131033  
C    0.0000000    0.0000000    0.0000000  
C   -1.1468701    0.0000635   -0.7169542  
O   -2.3742199    0.0000073   -0.1695491  
C   -1.1388766    0.0001607   -2.2096354  
O   -2.2206227    0.0000905   -2.7970412  
C    0.1454526    0.0001817   -2.9324239  
H   -2.9844344    0.0001026   -0.9290168  
H    0.1083579    0.0003683   -4.0135594  
H    4.3940038    0.0007619   -1.1498630  
C    0.0000000    0.0000000    1.4700000  
C    1.0662921    0.0000102    2.3034270  
C    0.4961870   -0.0000064    3.6418889  
C   -0.9663858    0.0000850    3.4240247  
N   -1.2632773    0.0000084    2.1528658  
C   -1.8985362    0.0000517    4.5177257  
C   -1.3925775   -0.0004564    5.7720543  
O   -2.1456383   -0.0005410    6.8851312  
C    0.0786232   -0.0009323    6.0245000  
O    0.4683759   -0.0012588    7.1921102  
C    1.0143166   -0.0008442    4.8859032  
H    2.1107198   -0.0000632    2.0421868  
H   -2.9622183    0.0003270    4.3293377  
H   -1.5042274   -0.0009692    7.6184419  
H    2.0724152   -0.0013148    5.1109744  
