58

C   -2.6509565    0.0011008   -8.7508984  
C   -3.7799334    0.0008235   -7.9962553  
C   -4.8974620    0.0009906   -8.9105661  
C   -4.3228844    0.0013615  -10.2694815  
N   -2.9571347    0.0018104  -10.1033015  
C   -5.0534361    0.0012107  -11.4131593  
C   -6.5023238    0.0008714  -11.2980064  
O   -7.2476861    0.0007751  -12.2689530  
C   -7.1324057    0.0007275   -9.8687404  
O   -8.3511245    0.0007487   -9.7592667  
C   -6.2414708    0.0006336   -8.7111193  
H   -3.8247461    0.0007172   -6.9217297  
H   -4.6121958    0.0013590  -12.4001837  
H   -6.6856714    0.0003288   -7.7250109  
H   -2.2861579    0.0005795  -10.8495161  
C   -0.8287671    0.0000935   -4.7555305  
C    0.4829789    0.0003529   -5.1068098  
C    0.5323568    0.0005978   -6.5498617  
C   -0.8681899    0.0004881   -7.0138230  
N   -1.6437154   -0.0002183   -5.8774035  
C   -1.2464066    0.0010495   -8.3171476  
C   -0.2045436    0.0015866   -9.3305861  
O   -0.4431247    0.0020510  -10.5311609  
C    1.2854921    0.0014598   -8.8619719  
O    2.1713296    0.0016018   -9.7060996  
C    1.5684482    0.0011144   -7.4288675  
H    1.3204182    0.0001883   -4.4320442  
H    2.6027354    0.0012340   -7.1126813  
H   -2.6471544    0.0011001   -5.8649186  
C    1.0672566   -0.0000698   -0.8321912  
C    0.0000000    0.0000000    0.0000000  
C   -1.1601226   -0.0000736   -0.8778472  
C   -0.5938732   -0.0000770   -2.2438435  
N    0.7113365   -0.0001555   -2.2234123  
C   -1.4286989   -0.0001880   -3.4135239  
C   -2.7683117   -0.0006800   -3.2270522  
O   -3.6653907   -0.0008306   -4.2276967  
C   -3.3702026   -0.0010611   -1.8610771  
O   -4.5974909   -0.0013781   -1.7662957  
C   -2.4926826   -0.0008944   -0.6770655  
H   -4.5324249   -0.0012263   -3.7833950  
H   -2.9677773   -0.0012975    0.2947963  
H    2.1134390   -0.0000546   -0.5705121  
C    2.4951002    2.0940188    2.9809380  
C    1.9440701    1.6314916    1.8291961  
C    0.8759964    0.7350050    2.2038498  
C    0.8497377    0.7130254    3.6788474  
N    1.8560616    1.5571714    4.0882609  
C   -0.0205033   -0.0168748    4.4215661  
C   -0.9962600   -0.8356168    3.7214979  
O   -1.8224391   -1.5286685    4.3006425  
C   -0.9864710   -0.8277881    2.1595606  
O   -1.8030528   -1.5133726    1.5592035  
C    0.0000000    0.0000000    1.4700000  
H    2.2509283    1.8888011    0.8310761  
H   -0.0229599   -0.0187323    5.5027230  
H    3.3143982    2.7817323    3.1139444  
H    2.0889452    1.7545833    5.0442112  
