58

C    4.4157321   -2.0877300   -6.0261217  
C    3.1732874   -1.6268433   -6.3227499  
C    3.3135222   -0.7322189   -7.4473904  
C    4.7498065   -0.7095444   -7.7840856  
N    5.3629468   -1.5515506   -6.8852115  
C    5.2916935    0.0190595   -8.7926493  
C    4.4008993    0.8355736   -9.6003168  
O    4.7922120    1.5273306  -10.5312556  
C    2.8761449    0.8269742   -9.2614160  
O    2.1165006    1.5106866   -9.9342735  
C    2.4108149    0.0007325   -8.1502690  
H    2.2625332   -1.8840676   -5.8118913  
H    6.3480267    0.0214587   -9.0230050  
H    4.7191061   -2.7738026   -5.2520684  
H    6.3466864   -1.7480319   -6.8587668  
C   -0.0307354   -0.0004645   -4.4215603  
C    1.0331815   -0.0004860   -5.2580174  
C    0.4592711   -0.0007213   -6.5948515  
C   -1.0026758   -0.0009313   -6.3728279  
N   -1.2959501   -0.0007014   -5.1008297  
C   -1.9379340   -0.0011519   -7.4638729  
C   -1.4355456   -0.0007729   -8.7196356  
O   -2.1917699   -0.0009264   -9.8305658  
C    0.0349312   -0.0001826   -8.9762653  
O    0.4213604    0.0000150  -10.1449796  
C    0.9738597   -0.0000102   -7.8403354  
H    2.0783481   -0.0002676   -4.9997493  
H   -3.0010760   -0.0015090   -7.2724597  
H   -1.5524475   -0.0005388  -10.5656984  
C    3.2573669   -0.0002919   -1.5109381  
C    2.5379467   -0.0001709   -0.3591962  
C    1.1435042    0.0000332   -0.7338501  
C    1.1092607   -0.0000081   -2.2088477  
N    2.4227561    0.0001910   -2.6182614  
C   -0.0265534   -0.0002522   -2.9515663  
C   -1.3003036   -0.0002639   -2.2514981  
O   -2.3786785   -0.0004131   -2.8306428  
C   -1.2877726    0.0000312   -0.6895608  
O   -2.3539957    0.0003306   -0.0892035  
C    0.0000000    0.0000000    0.0000000  
H    2.9384091   -0.0000368    0.6389238  
H    4.3270391   -0.0004764   -1.6439447  
H    2.7280492   -0.0013405   -3.5742114  
C    0.0000000    0.0000000    1.4700000  
C    1.0662921    0.0000102    2.3034270  
C    0.4961870   -0.0000064    3.6418889  
C   -0.9663858    0.0000850    3.4240247  
N   -1.2632773    0.0000084    2.1528658  
C   -1.8985362    0.0000517    4.5177257  
C   -1.3925775   -0.0004564    5.7720543  
O   -2.1456383   -0.0005410    6.8851312  
C    0.0786232   -0.0009323    6.0245000  
O    0.4683759   -0.0012588    7.1921102  
C    1.0143166   -0.0008442    4.8859032  
H    2.1107198   -0.0000632    2.0421868  
H   -2.9622183    0.0003270    4.3293377  
H   -1.5042274   -0.0009692    7.6184419  
H    2.0724152   -0.0013148    5.1109744  
