58

C    9.0494870    0.0024126   -3.8726011  
C    9.6084137    0.0019527   -5.1102096  
C   11.0404363    0.0027158   -4.9254098  
C   11.2716325    0.0036354   -3.4682417  
N   10.0246899    0.0038007   -2.8868436  
C   12.4965717    0.0041294   -2.8840950  
C   13.6652562    0.0039548   -3.7482213  
O   14.8113955    0.0044247   -3.3184974  
C   13.4439489    0.0032377   -5.2944516  
O   14.4203042    0.0033914   -6.0320086  
C   12.0755247    0.0024683   -5.8055953  
H    9.0780647    0.0013509   -6.0458067  
H   12.6442101    0.0046726   -1.8130615  
H   11.9308843    0.0017693   -6.8774168  
H    9.8499844    0.0028174   -1.8986513  
C    6.5739142    0.0018719   -4.3537915  
C    7.6280828    0.0019468   -3.4977523  
C    7.0842285    0.0017735   -2.1601955  
C    5.6162780    0.0015610   -2.3082178  
N    5.3720684    0.0020314   -3.6621941  
C    4.7390840    0.0009613   -1.2727298  
C    5.2766310    0.0007200    0.0776697  
O    4.5688485    0.0002470    1.0763412  
C    6.8281783    0.0011905    0.2579661  
O    7.2923836    0.0012994    1.3901206  
C    7.6713704    0.0015457   -0.9348786  
H    8.7446430    0.0016651   -0.8014249  
H    6.5739141    0.0019305   -5.4317008  
H    4.4610946    0.0004679   -4.0831113  
C    3.2798077    0.0005856   -1.4499661  
C    2.5571132    0.0005565   -2.5996564  
C    1.1637425    0.0001547   -2.2210366  
C    1.1336959   -0.0000200   -0.7459475  
N    2.4483509   -0.0001429   -0.3402730  
C    0.0000000    0.0000000    0.0000000  
C   -1.2757370   -0.0000187   -0.6964411  
O   -2.3524597   -0.0000640   -0.1142306  
C   -1.2676502   -0.0000874   -2.2584078  
O   -2.3355774   -0.0004102   -2.8557287  
C    0.0181551    0.0001758   -2.9516297  
H    2.9547342    0.0006074   -3.5989118  
H    0.0150776    0.0003317   -4.0331632  
H    2.7563626    0.0012823    0.6148051  
C    2.3971438    2.0127888    3.1728260  
C    1.9431056    1.6308205    1.9564670  
C    0.8496017    0.7127664    2.2356185  
C    0.7794028    0.6545384    3.7115134  
N    1.6840587    1.4146091    4.2663826  
C   -0.1885723   -0.1578550    4.3957118  
C   -1.0476298   -0.8789867    3.6398520  
O   -2.0015663   -1.6796266    4.1448486  
C   -1.0022026   -0.8410666    2.1483229  
O   -1.8147390   -1.5232959    1.5241687  
C    0.0000000    0.0000000    1.4700000  
H    2.3054237    1.9346118    0.9892483  
H   -0.2170646   -0.1815267    5.4753125  
H   -2.4487139   -2.0549881    3.3649027  
H    3.2048689    2.6911772    3.3971983  
