60

C   -0.0307358   -0.0004643   -4.4215602  
C    1.0209930   -0.0006519   -5.2805951  
C    0.4733348   -0.0007741   -6.6165989  
C   -0.9941891   -0.0006121   -6.4644009  
N   -1.2345445   -0.0008267   -5.1097353  
C   -1.8743257   -0.0002659   -7.4973888  
C   -1.3406230   -0.0002637   -8.8493124  
O   -2.0512444   -0.0000277   -9.8459663  
C    0.2104047   -0.0006857   -9.0340221  
O    0.6713865   -0.0009944  -10.1674936  
C    1.0569876   -0.0007580   -7.8435818  
H    2.0616754   -0.0008816   -5.0093143  
H   -2.9472243   -0.0000221   -7.3639810  
H    2.1298761   -0.0008456   -7.9800891  
H   -2.1443170    0.0007710   -4.6862273  
C    3.2573667   -0.0002917   -1.5109384  
C    2.5379466   -0.0001708   -0.3591963  
C    1.1435040    0.0000333   -0.7338502  
C    1.1092604   -0.0000080   -2.2088477  
N    2.4227557    0.0001912   -2.6182616  
C   -0.0265537   -0.0002520   -2.9515661  
C   -1.3003040   -0.0002638   -2.2514979  
O   -2.3786786   -0.0004130   -2.8306424  
C   -1.2877728    0.0000313   -0.6895606  
O   -2.3539959    0.0003306   -0.0892032  
C    0.0000000    0.0000000    0.0000000  
H    2.9384091   -0.0000367    0.6389235  
H    2.7280487   -0.0013403   -3.5742117  
C    5.6736564   -0.0009555   -0.7359124  
C    4.7161330   -0.0005432   -1.6923264  
C    5.4441200   -0.0005494   -2.9519032  
C    6.8695485   -0.0008927   -2.5585356  
N    7.0103274   -0.0012125   -1.2607796  
C    7.9272785   -0.0010472   -3.5313120  
C    7.5769325   -0.0012560   -4.8376782  
O    8.4592368   -0.0014094   -5.8513738  
C    6.1471278   -0.0012905   -5.2664177  
O    5.9016317   -0.0013609   -6.4726315  
C    5.0804441   -0.0010858   -4.2495050  
H    8.9603207   -0.0010917   -3.2155062  
H    7.9113444   -0.0015665   -6.6569585  
H    4.0573864   -0.0012335   -4.6010479  
H    5.5430687   -0.0010918    0.3345642  
C    2.5285572    2.1210227    2.9438989  
C    1.9331703    1.6216660    4.0790748  
C    0.8903039    0.7472258    3.6520102  
C    0.8972198    0.7527806    2.2336141  
N    1.9028376    1.5986179    1.8362361  
C    0.0000000    0.0000000    1.4700000  
C   -0.9207814   -0.7726952    2.1506477  
O   -1.8198395   -1.5274828    1.4542253  
C   -0.9436862   -0.7911793    3.5655508  
O   -1.9197945   -1.6098497    4.0950179  
C   -0.0590329   -0.0485852    4.3195194  
H    2.2150357    1.8593692    5.0905303  
H    2.1533708    1.7953814    0.8841339  
H   -2.3621246   -1.9821033    2.1118817  
H   -1.8668290   -1.5649508    5.0545920  
H   -0.1007624   -0.0827977    5.4019087  
H    3.3491200    2.8096064    2.8367138  
