62

C   -3.3040484    0.0228424   -1.5420434  
C   -2.5844716    0.0184377   -0.3695858  
C   -1.2039716    0.0083672   -0.7283592  
C   -1.1422143    0.0073335   -2.1454376  
N   -2.4348231    0.0143087   -2.6077468  
C    0.0655103   -0.0013352   -2.8497921  
C    1.2321455   -0.0087950   -2.1101400  
O    2.4392213   -0.0170653   -2.7472521  
C    1.1910917   -0.0082763   -0.6955266  
O    2.4370954   -0.0167037   -0.1032865  
C    0.0000000    0.0000000    0.0000000  
H   -3.0030804    0.0209348    0.6222580  
H   -2.7053480    0.0259096   -3.5745264  
H    0.1193420   -0.0023140   -3.9297475  
H    3.1132241   -0.0215695   -2.0551786  
H    2.3199756   -0.0157147    0.8516408  
C   -5.7394854    0.0404727   -0.8296821  
C   -4.7576105    0.0325481   -1.7610466  
C   -5.4528177    0.0358522   -3.0390044  
C   -6.8878936    0.0461267   -2.6825828  
N   -7.0621272    0.0489567   -1.3888968  
C   -7.9201295    0.0521145   -3.6823526  
C   -7.5361775    0.0484128   -4.9792341  
O   -8.3919938    0.0531863   -6.0153790  
C   -6.0958101    0.0384441   -5.3709027  
O   -5.8192575    0.0354211   -6.5703732  
C   -5.0557638    0.0324004   -4.3267801  
H   -7.8234955    0.0487311   -6.8065441  
H   -4.0239920    0.0253361   -4.6517832  
H   -5.6365821    0.0410432    0.2438089  
C  -10.0658132    2.1905753   -0.4602557  
C  -11.3222411    1.6994332   -0.7297643  
C  -11.1956724    0.8231049   -1.8480796  
C   -9.8271322    0.8190951   -2.2209167  
N   -9.1694927    1.6613003   -1.3590475  
C   -9.3365037    0.0620203   -3.2890502  
C  -10.2438871   -0.7052145   -3.9934528  
O   -9.8185048   -1.4638416   -5.0453782  
C  -11.6134273   -0.7141424   -3.6369443  
O  -12.3902583   -1.5283185   -4.4350638  
C  -12.0981940    0.0326929   -2.5834904  
H  -12.2197822    1.9436847   -0.1877731  
H   -8.1837662    1.8514105   -1.3725640  
H  -10.6003247   -1.9135159   -5.3915233  
H  -13.3003537   -1.4770037   -4.1273332  
H  -13.1524925    0.0058138   -2.3340716  
H   -9.7383522    2.8776579    0.3010891  
C    2.4951002    2.0940188    2.9809380  
C    1.9440701    1.6314916    1.8291961  
C    0.8759964    0.7350050    2.2038498  
C    0.8497377    0.7130254    3.6788474  
N    1.8560616    1.5571714    4.0882609  
C   -0.0205033   -0.0168748    4.4215661  
C   -0.9962600   -0.8356168    3.7214979  
O   -1.8224391   -1.5286685    4.3006425  
C   -0.9864710   -0.8277881    2.1595606  
O   -1.8030528   -1.5133726    1.5592035  
C    0.0000000    0.0000000    1.4700000  
H    2.2509283    1.8888011    0.8310761  
H   -0.0229599   -0.0187323    5.5027230  
H    3.3143982    2.7817323    3.1139444  
H    2.0889452    1.7545833    5.0442112  
