58

C    0.8077785   -0.7044851   -5.2248787  
C   -0.0307371   -0.0004634   -4.4215605  
C   -0.9183652    0.7408394   -5.2860963  
C   -0.5254412    0.4085800   -6.6688490  
N    0.5266118   -0.4716378   -6.5625881  
C   -1.1248966    0.9074723   -7.7794631  
C   -2.2307458    1.8336431   -7.6010238  
O   -2.8354893    2.3374954   -8.5384236  
C   -2.6635805    2.1998165   -6.1455592  
O   -3.5931194    2.9787574   -5.9828654  
C   -1.9409653    1.5974780   -5.0280323  
H   -2.2469895    1.8560414   -4.0234338  
H    1.6076112   -1.3736630   -4.9521913  
H    1.0136888   -0.8832241   -7.3374429  
C    3.2573663   -0.0002917   -1.5109395  
C    2.5379466   -0.0001711   -0.3591971  
C    1.1435037    0.0000336   -0.7338505  
C    1.1092600   -0.0000078   -2.2088480  
N    2.4227548    0.0001914   -2.6182623  
C   -0.0265546   -0.0002513   -2.9515662  
C   -1.3003044   -0.0002632   -2.2514976  
O   -2.3786797   -0.0004120   -2.8306419  
C   -1.2877728    0.0000315   -0.6895605  
O   -2.3539961    0.0003312   -0.0892028  
C    0.0000000    0.0000000    0.0000000  
H    2.9384092   -0.0000371    0.6389227  
H    4.3270388   -0.0004763   -1.6439464  
H    2.7280480   -0.0013400   -3.5742128  
C   -0.3400462   -0.6732406   -9.5809516  
C   -0.7120743    0.5583693   -9.1464326  
C   -0.6231986    1.4490990  -10.2793655  
C   -0.1656433    0.6295816  -11.4177084  
N   -0.0121389   -0.6469395  -10.9279943  
C    0.0423044    1.1038637  -12.6721083  
C   -0.2005371    2.5157455  -12.9173713  
O   -0.0421791    3.0383930  -14.0128449  
C   -0.6852944    3.4024360  -11.7263229  
O   -0.8927344    4.5925844  -11.9206834  
C   -0.8739666    2.7770866  -10.4197274  
H    0.3780057    0.4856765  -13.4931193  
H   -1.2099959    3.3978997   -9.6003373  
H   -0.2776321   -1.5978368   -9.0303918  
H    0.2894846   -1.4380634  -11.4666908  
C    2.3971438    2.0127888    3.1728260  
C    1.9431056    1.6308205    1.9564670  
C    0.8496017    0.7127664    2.2356185  
C    0.7794028    0.6545384    3.7115134  
N    1.6840587    1.4146091    4.2663826  
C   -0.1885723   -0.1578550    4.3957118  
C   -1.0476298   -0.8789867    3.6398520  
O   -2.0015663   -1.6796266    4.1448486  
C   -1.0022026   -0.8410666    2.1483229  
O   -1.8147390   -1.5232959    1.5241687  
C    0.0000000    0.0000000    1.4700000  
H    2.3054237    1.9346118    0.9892483  
H   -0.2170646   -0.1815267    5.4753125  
H   -2.4487139   -2.0549881    3.3649027  
H    3.2048689    2.6911772    3.3971983  
