60

C    0.0000000    0.0000000    0.0000000  
C   -1.0521661   -0.0016538   -0.8862343  
C   -0.4917231   -0.0001333   -2.1979132  
C    0.9187399    0.0021685   -2.0478684  
N    1.1833105    0.0041394   -0.7007914  
C    1.7951667    0.0038172   -3.1372092  
C    1.2375807    0.0028227   -4.4010426  
O    2.0474180    0.0039981   -5.4997578  
C   -0.1673610    0.0009044   -4.5711964  
O   -0.5673558    0.0005354   -5.8915554  
C   -1.0325794   -0.0004496   -3.4969891  
H   -2.0953062   -0.0025985   -0.6200564  
H    2.0989968   -0.0045638   -0.2891829  
H    2.8710889    0.0057184   -3.0295514  
H    1.4634847    0.0033061   -6.2693595  
H   -1.5290744   -0.0008175   -5.9180049  
C   -2.4861732   -0.0021816   -3.7159923  
C   -3.4897101   -0.0035377   -2.8011223  
C   -4.7313140   -0.0049723   -3.5381794  
C   -4.3662463   -0.0043654   -4.9676955  
N   -2.9909993   -0.0022646   -5.0074605  
C   -5.2594907   -0.0057387   -5.9893685  
C   -6.6749026   -0.0077367   -5.6590061  
O   -7.5569816   -0.0090172   -6.5076735  
C   -7.0843393   -0.0081590   -4.1516350  
O   -8.2730160   -0.0095290   -3.8612812  
C   -6.0304283   -0.0068382   -3.1401404  
H   -3.3734565   -0.0033513   -1.7319644  
H   -4.9706926   -0.0053910   -7.0312447  
H   -2.4390593   -0.0029499   -5.8455594  
C   -4.4352210    2.0890251    0.4037417  
C   -4.6543614    1.6263223   -0.8540176  
C   -5.7826746    0.7282708   -0.7815838  
C   -6.2059701    0.7055641    0.6316026  
N   -5.3486307    1.5508265    1.2974782  
C   -7.2433465   -0.0258167    1.1118498  
C   -7.9928523   -0.8454989    0.1743547  
O   -8.9437101   -1.5398971    0.5089907  
C   -7.5619347   -0.8369237   -1.3269920  
O   -8.1852627   -1.5232881   -2.1255072  
C   -6.4271208   -0.0075288   -1.7246777  
H   -4.0898912    1.8844998   -1.7322725  
H   -7.5374687   -0.0281853    2.1522326  
H   -3.6831614    2.7777417    0.7529783  
H   -5.3826310    1.7480923    2.2808283  
C    0.0000000    0.0000000    1.4700000  
C    1.0541688    0.0001722    2.3260392  
C    0.5103138    0.0000454    3.6635956  
C   -0.9576371   -0.0002459    3.5155732  
N   -1.2018458    0.0001392    2.1615969  
C   -1.8348311   -0.0008317    4.5510609  
C   -1.2972847   -0.0009736    5.9014604  
O   -2.0050672   -0.0014265    6.9001319  
C    0.2542623   -0.0004184    6.0817573  
O    0.7184670   -0.0002256    7.2139121  
C    1.0974552   -0.0000873    4.8889129  
H    2.0940752    0.0005483    2.0517982  
H   -2.9081052   -0.0011668    4.4207061  
H    2.1707277    0.0000911    5.0223670  
H   -2.1128194   -0.0014912    1.7406791  
