58

C   -2.8697419   -0.0357855   -4.0185823  
C   -4.1342788   -0.0511012   -4.5133419  
C   -4.0231533   -0.0476587   -5.9529513  
C   -2.5798714   -0.0289773   -6.2585302  
N   -1.9353612   -0.0221326   -5.0430264  
C   -2.0593348   -0.0210185   -7.5117992  
C   -2.9821691   -0.0313289   -8.6346559  
O   -2.6118014   -0.0252928   -9.8013137  
C   -4.5148992   -0.0508862   -8.3343884  
O   -5.3014849   -0.0593900   -9.2716570  
C   -4.9551755   -0.0582777   -6.9415663  
H   -5.0413824   -0.0632235   -3.9357363  
H   -6.0180863   -0.0720337   -6.7421800  
H   -0.9395727   -0.0111711   -4.9192024  
C   -3.2570877   -0.0426532   -1.5109376  
C   -2.5377284   -0.0332894   -0.3591961  
C   -1.1434044   -0.0151092   -0.7338497  
C   -1.1091646   -0.0146164   -2.2088473  
N   -2.4225432   -0.0321327   -2.6182609  
C    0.0265474    0.0006021   -2.9515662  
C    1.3001868    0.0174069   -2.2514980  
O    2.3784659    0.0317733   -2.8306423  
C    1.2876610    0.0169466   -0.6895610  
O    2.3537957    0.0307044   -0.0892029  
C    0.0000000    0.0000000    0.0000000  
H   -2.9381539   -0.0387032    0.6389243  
H    0.0296210    0.0007987   -4.0327229  
H   -4.3266696   -0.0565714   -1.6439441  
C    0.3374759   -0.6961217   -7.1123762  
C   -0.6154260   -0.0025386   -7.7869099  
C    0.0612798    0.7495210   -8.8171096  
C    1.4968248    0.4349497   -8.6865508  
N    1.5973907   -0.4463387   -7.6348346  
C    2.4715390    0.9478051   -9.4794047  
C    2.0806822    1.8714119  -10.5314105  
O    2.8841276    2.3870233  -11.2975179  
C    0.5658941    2.2189620  -10.6877176  
O    0.2248626    2.9955862  -11.5696553  
C   -0.3916105    1.6026055   -9.7727639  
H    3.5188044    0.7039112   -9.3668832  
H   -1.4385690    1.8483123   -9.8877839  
H    0.2253348   -1.3685538   -6.2774217  
H    2.4538604   -0.8479419   -7.2998392  
C    2.5528530    2.1414826    2.8079335  
C    2.0663498    1.7338582    4.0032312  
C    0.9804344    0.8229586    3.6752840  
C    0.9495562    0.7966882    2.1971295  
N    1.8690446    1.5676019    1.6831036  
C    0.0000000    0.0000000    1.4700000  
C   -0.8785127   -0.7372425    2.1869543  
O   -1.8187535   -1.5261249    1.6395491  
C   -0.8723269   -0.7321790    3.6796354  
O   -1.7010379   -1.4274584    4.2670412  
C    0.1115397    0.0933559    4.4024240  
H    2.4028853    2.0163452    4.9860947  
H   -2.2861435   -1.9184361    2.3990168  
H    0.0832434    0.0693689    5.4835595  
H    3.3664920    2.8238276    2.6198634  
