60

C    5.5868518    0.0001902   -1.0681562  
C    6.8043815    0.0013361   -1.6695678  
C    6.5701480    0.0005340   -3.0943378  
C    5.1058544   -0.0011564   -3.2749817  
N    4.5679461   -0.0016852   -2.0086700  
C    4.4796775   -0.0019121   -4.4789772  
C    5.3028522   -0.0012258   -5.6768582  
O    4.8337320   -0.0018782   -6.8074450  
C    6.8558126    0.0003102   -5.5091801  
O    7.5591489    0.0005923   -6.5104685  
C    7.4139945    0.0012962   -4.1592600  
H    7.7577676    0.0024169   -1.1719050  
H    3.4041778   -0.0030227   -4.5894716  
H    8.4901785    0.0025631   -4.0517884  
H    5.3482114    0.0003409   -0.0169951  
C    3.1301152   -0.0010311   -1.7028251  
C    2.5367770   -0.0002766   -0.4864665  
C    1.1089905    0.0001028   -0.7656183  
C    1.0177873   -0.0004148   -2.2415130  
N    2.1993580   -0.0011610   -2.7963820  
C   -0.2459208   -0.0002877   -2.9257119  
C   -1.3675318   -0.0000605   -2.1698523  
O   -2.6129310    0.0000866   -2.6748492  
C   -1.3083584    0.0000911   -0.6783232  
O   -2.3693259    0.0004206   -0.0541692  
C    0.0000000    0.0000000    0.0000000  
H    3.0096019   -0.0001007    0.4807529  
H   -3.1967440    0.0002093   -1.8949035  
C    2.1650280   -2.1089222   -5.9297634  
C    1.5723618   -1.6445161   -7.0598735  
C    0.5184584   -0.7489600   -6.6450207  
C    0.5459270   -0.7295295   -5.1700093  
N    1.5661299   -1.5747492   -4.7989581  
C   -0.2963281   -0.0005339   -4.3948471  
C   -1.2968006    0.8195084   -5.0575089  
O   -2.1010989    1.5117980   -4.4474761  
C   -1.3442148    0.8139947   -6.6187672  
O   -2.1824049    1.5002194   -7.1877962  
C   -0.3835299   -0.0125662   -7.3452202  
H    1.8425093   -1.9002756   -8.0689433  
H   -0.4228717   -0.0106498   -8.4260400  
H    2.9887842   -2.7966240   -5.8278725  
H    1.8355792   -1.7715186   -3.8525303  
C    2.5285572    2.1210227    2.9438989  
C    1.9331703    1.6216660    4.0790748  
C    0.8903039    0.7472258    3.6520102  
C    0.8972198    0.7527806    2.2336141  
N    1.9028376    1.5986179    1.8362361  
C    0.0000000    0.0000000    1.4700000  
C   -0.9207814   -0.7726952    2.1506477  
O   -1.8198395   -1.5274828    1.4542253  
C   -0.9436862   -0.7911793    3.5655508  
O   -1.9197945   -1.6098497    4.0950179  
C   -0.0590329   -0.0485852    4.3195194  
H    2.2150357    1.8593692    5.0905303  
H    2.1533708    1.7953814    0.8841339  
H   -2.3621246   -1.9821033    2.1118817  
H   -1.8668290   -1.5649508    5.0545920  
H   -0.1007624   -0.0827977    5.4019087  
H    3.3491200    2.8096064    2.8367138  
