58

C    3.9404946   -0.7293549   -4.5163119  
C    4.0976525   -0.5146855   -5.8479626  
C    3.0657855    0.4119876   -6.2496624  
C    2.2890365    0.7218372   -5.0341600  
N    2.8699638   -0.0020525   -4.0185828  
C    1.2244920    1.5626425   -4.9954967  
C    0.8163860    2.2051420   -6.2337132  
O   -0.1297734    2.9786859   -6.3023647  
C    1.6244746    1.8913611   -7.5330745  
O    1.2900269    2.4261332   -8.5816085  
C    2.7534399    0.9681715   -7.4493443  
H    4.8503965   -0.9553573   -6.4770881  
H    0.6684827    1.7763755   -4.0932316  
H    4.5165360   -1.3578515   -3.8567220  
C    3.2573670   -0.0002920   -1.5109384  
C    2.5379466   -0.0001708   -0.3591964  
C    1.1435042    0.0000333   -0.7338500  
C    1.1092606   -0.0000082   -2.2088477  
N    2.4227559    0.0001910   -2.6182614  
C   -0.0265533   -0.0002524   -2.9515665  
C   -1.3003040   -0.0002640   -2.2514980  
O   -2.3786785   -0.0004135   -2.8306426  
C   -1.2877727    0.0000313   -0.6895608  
O   -2.3539959    0.0003306   -0.0892036  
C    0.0000000    0.0000000    0.0000000  
H    2.9384090   -0.0000368    0.6389239  
H   -0.0296293   -0.0004086   -4.0327231  
H    4.3270391   -0.0004761   -1.6439451  
C    3.5070317    0.6802910   -8.6782152  
C    4.5805505   -0.1326815   -8.8534520  
C    4.9388357   -0.0616650  -10.2503861  
C    3.9791899    0.8659951  -10.8791284  
N    3.1377889    1.2803251   -9.8725178  
C    3.9821776    1.2005373  -12.1943379  
C    4.9982322    0.6071864  -13.0476278  
O    5.0842781    0.8451495  -14.2452381  
C    6.0246002   -0.3781608  -12.4030619  
O    6.8844037   -0.8841395  -13.1115697  
C    5.9206255   -0.6608814  -10.9736877  
H    5.0659212   -0.7157303   -8.0911642  
H    3.2692748    1.8832118  -12.6355121  
H    6.6352128   -1.3440421  -10.5350755  
H    2.3744530    1.9215602   -9.9873339  
C    0.0000000    0.0000000    1.4700000  
C    1.0541688    0.0001722    2.3260392  
C    0.5103138    0.0000454    3.6635956  
C   -0.9576371   -0.0002459    3.5155732  
N   -1.2018458    0.0001392    2.1615969  
C   -1.8348311   -0.0008317    4.5510609  
C   -1.2972847   -0.0009736    5.9014604  
O   -2.0050672   -0.0014265    6.9001319  
C    0.2542623   -0.0004184    6.0817573  
O    0.7184670   -0.0002256    7.2139121  
C    1.0974552   -0.0000873    4.8889129  
H    2.0940752    0.0005483    2.0517982  
H   -2.9081052   -0.0011668    4.4207061  
H    2.1707277    0.0000911    5.0223670  
H   -2.1128194   -0.0014912    1.7406791  
