58

C    4.7795897    0.0008677   -1.0815734  
C    5.8063524    0.0010479   -1.9702989  
C    7.0285667    0.0013960   -1.2015146  
C    6.6268090    0.0013748    0.2181268  
N    5.2509932    0.0014468    0.2224659  
C    7.4934501    0.0012529    1.2624628  
C    8.9169021    0.0013612    0.9686563  
O    9.7768359    0.0013267    1.8397563  
C    9.3650181    0.0016376   -0.5276712  
O   10.5607793    0.0020372   -0.7873201  
C    8.3375016    0.0014694   -1.5659692  
H    5.7176696    0.0011307   -3.0420955  
H    7.1779191    0.0011093    2.2965562  
H    8.6560847    0.0014573   -2.5995205  
H    4.6776559   -0.0001047    1.0460743  
C    3.3321166    0.0004717   -1.3379342  
C    2.6974176    0.0000121   -2.5332317  
C    1.2800432   -0.0002115   -2.2052842  
C    1.2395033    0.0000645   -0.7271297  
N    2.4394059    0.0005461   -0.2131042  
C    0.0000000    0.0000000    0.0000000  
C   -1.1468704    0.0000636   -0.7169540  
O   -2.3742206    0.0000073   -0.1695488  
C   -1.1388774    0.0001610   -2.2096351  
O   -2.2206238    0.0000908   -2.7970408  
C    0.1454514    0.0001820   -2.9324241  
H    3.1367977   -0.0000646   -3.5160953  
H   -2.9844351    0.0001027   -0.9290163  
C    0.0950440    0.0004357   -4.4015596  
C    1.1192386    0.0002605   -5.2932435  
C    0.5298377    0.0006958   -6.6113644  
C   -0.9321740    0.0011715   -6.4130916  
N   -1.1298103    0.0005876   -5.0515376  
C   -1.8443597    0.0020614   -7.4178901  
C   -1.3534356    0.0023594   -8.7859287  
O   -2.0950469    0.0030859   -9.7597424  
C    0.1910163    0.0016135   -9.0193234  
O    0.6161255    0.0015497  -10.1667300  
C    1.0746167    0.0009560   -7.8560943  
H    2.1679373   -0.0003116   -5.0548230  
H   -2.9125325    0.0025274   -7.2508094  
H    2.1426818    0.0006472   -8.0262735  
H   -2.0258144    0.0022756   -4.5996289  
C    2.4951002    2.0940188    2.9809380  
C    1.9440701    1.6314916    1.8291961  
C    0.8759964    0.7350050    2.2038498  
C    0.8497377    0.7130254    3.6788474  
N    1.8560616    1.5571714    4.0882609  
C   -0.0205033   -0.0168748    4.4215661  
C   -0.9962600   -0.8356168    3.7214979  
O   -1.8224391   -1.5286685    4.3006425  
C   -0.9864710   -0.8277881    2.1595606  
O   -1.8030528   -1.5133726    1.5592035  
C    0.0000000    0.0000000    1.4700000  
H    2.2509283    1.8888011    0.8310761  
H   -0.0229599   -0.0187323    5.5027230  
H    3.3143982    2.7817323    3.1139444  
H    2.0889452    1.7545833    5.0442112  
