60

C    1.1188647    0.0008222   -0.8003809  
C    0.0000000    0.0000000    0.0000000  
C   -1.1323857    0.0008897   -0.8673532  
C   -0.6382652    0.0019677   -2.1969286  
N    0.7324024    0.0038479   -2.1202243  
C   -1.4770906    0.0027316   -3.3154814  
C   -2.8395469    0.0020943   -3.0876862  
O   -3.7039190    0.0024420   -4.1440356  
C   -3.3517863    0.0013927   -1.7684337  
O   -4.7300496    0.0012365   -1.7073126  
C   -2.5248540    0.0009121   -0.6644824  
H   -1.1067561    0.0036985   -4.3313816  
H   -4.5940026    0.0021825   -3.7685140  
H   -4.9934598    0.0007261   -0.7819920  
H   -2.9462577    0.0005600    0.3339653  
H    2.1619897    0.0009354   -0.5342068  
C    4.4769672   -2.1470636   -2.7027280  
C    4.8409695   -1.7539554   -3.9455261  
C    3.7877273   -0.8472134   -4.3756417  
C    2.8430657   -0.8072142   -3.2387166  
N    3.2418502   -1.5671438   -2.2551175  
C    1.6478441   -0.0100102   -3.2702999  
C    1.4074698    0.7146087   -4.3867594  
O    0.3314549    1.5023749   -4.5530624  
C    2.3418729    0.6955145   -5.5506700  
O    2.0597593    1.3797241   -6.5342808  
C    3.5612163   -0.1302662   -5.4939931  
H    5.7161646   -2.0434615   -4.5016698  
H    0.4389884    1.8844061   -5.4428045  
H    4.9959832   -2.8222039   -2.0410774  
C    5.8152983   -3.3193811   -7.5019769  
C    6.3980198   -2.5941007   -8.4911578  
C    5.9590839   -1.2284466   -8.3263558  
C    5.0664988   -1.2174773   -7.1516379  
N    5.0210270   -2.5156668   -6.6982882  
C    4.4460574   -0.1117774   -6.6677117  
C    4.6723259    1.1517648   -7.3494734  
O    4.1590074    2.2034744   -6.9907082  
C    5.6136938    1.1634433   -8.5958666  
O    5.8114864    2.2212870   -9.1781936  
C    6.2256231   -0.0924798   -9.0225409  
H    7.0596757   -2.9726146   -9.2498093  
H    6.8762903   -0.0758225   -9.8862995  
H    5.8991070   -4.3734398   -7.2926298  
H    4.4938317   -2.8303757   -5.9045178  
C    0.0000000    0.0000000    1.4700000  
C    1.0541688    0.0001722    2.3260392  
C    0.5103138    0.0000454    3.6635956  
C   -0.9576371   -0.0002459    3.5155732  
N   -1.2018458    0.0001392    2.1615969  
C   -1.8348311   -0.0008317    4.5510609  
C   -1.2972847   -0.0009736    5.9014604  
O   -2.0050672   -0.0014265    6.9001319  
C    0.2542623   -0.0004184    6.0817573  
O    0.7184670   -0.0002256    7.2139121  
C    1.0974552   -0.0000873    4.8889129  
H    2.0940752    0.0005483    2.0517982  
H   -2.9081052   -0.0011668    4.4207061  
H    2.1707277    0.0000911    5.0223670  
H   -2.1128194   -0.0014912    1.7406791  
