60

C   -0.9119259    0.6482665   -0.8003802  
C    0.0000000    0.0000000    0.0000000  
C    0.9219481   -0.6575035   -0.8673526  
C    0.5188028   -0.3717941   -2.1969277  
N   -0.5988611    0.4216553   -2.1202237  
C    1.2016830   -0.8589310   -3.3154807  
C    2.3119363   -1.6486300   -3.0876857  
O    3.0158692   -2.1502455   -4.1440352  
C    2.7296238   -1.9451553   -1.7684334  
O    3.8524745   -2.7444138   -1.7073130  
C    2.0562672   -1.4651468   -0.6644817  
H   -1.1026960    0.7919960   -2.9057036  
H    3.7410992   -2.6662776   -3.7685136  
H    4.0673502   -2.8967751   -0.7819921  
H    2.3997550   -1.7092725    0.3339654  
H   -1.7617417    1.2531819   -0.5342064  
C   -0.3302435    2.7959675   -5.2626196  
C    0.1459512    1.8910872   -4.3690286  
C    0.3402596    0.6531543   -5.0863858  
C   -0.0646430    0.9128699   -6.4811588  
N   -0.4611203    2.2297078   -6.5215718  
C   -0.0282933   -0.0087519   -7.4766470  
C    0.4407236   -1.3457703   -7.1527016  
O    0.5103812   -2.2457475   -7.9794360  
C    0.8743489   -1.6431914   -5.6818809  
O    1.2706720   -2.7652995   -5.3971654  
C    0.7907906   -0.5679961   -4.6965761  
H    0.3388869    2.0703012   -3.3263053  
H   -0.3296907    0.2023743   -8.4932572  
H   -0.7924034    2.7065750   -7.3400439  
C   -0.3279211    5.5851777   -1.7863079  
C   -0.1768305    4.4671018   -2.5337420  
C   -0.6047009    4.8490552   -3.8707306  
C   -0.9920636    6.2706813   -3.7461835  
N   -0.8319001    6.7077258   -2.5266225  
C   -1.4786578    7.0276424   -4.8665957  
C   -1.5735814    6.3933441   -6.0573898  
O   -2.0112857    6.9771238   -7.1859539  
C   -1.1900520    4.9594083   -6.2151671  
O   -1.3024122    4.4464128   -7.3284645  
C   -0.6937337    4.2044844   -5.0508293  
H    0.1808881    3.5023443   -2.2169521  
H   -1.7547443    8.0651105   -4.7468244  
H   -1.9651252    6.2766168   -7.8614632  
H   -0.1181102    5.7156472   -0.7365789  
C    2.4951002    2.0940188    2.9809380  
C    1.9440701    1.6314916    1.8291961  
C    0.8759964    0.7350050    2.2038498  
C    0.8497377    0.7130254    3.6788474  
N    1.8560616    1.5571714    4.0882609  
C   -0.0205033   -0.0168748    4.4215661  
C   -0.9962600   -0.8356168    3.7214979  
O   -1.8224391   -1.5286685    4.3006425  
C   -0.9864710   -0.8277881    2.1595606  
O   -1.8030528   -1.5133726    1.5592035  
C    0.0000000    0.0000000    1.4700000  
H    2.2509283    1.8888011    0.8310761  
H   -0.0229599   -0.0187323    5.5027230  
H    3.3143982    2.7817323    3.1139444  
H    2.0889452    1.7545833    5.0442112  
