62

C   -3.3001091   -0.0403324   -1.4738970  
C   -2.5230953   -0.0307824   -2.6090734  
C   -1.1622390   -0.0138866   -2.1820093  
C   -1.1711032   -0.0141838   -0.7636133  
N   -2.4850675   -0.0284820   -0.3662345  
C    0.0000000    0.0000000    0.0000000  
C    1.2019506    0.0144456   -0.6806484  
O    2.3757556    0.0283061    0.0157735  
C    1.2313682    0.0153636   -2.0955516  
O    2.5052460    0.0310211   -2.6250189  
C    0.0764354    0.0016492   -2.8495196  
H   -2.8917941   -0.0343178   -3.6205288  
H   -2.8033159   -0.0426314    0.5858677  
H    3.0833394    0.0371555   -0.6418829  
H    2.4358119    0.0305327   -3.5845934  
H    0.1303822    0.0029149   -3.9319086  
C   -5.6722887   -0.0680841   -2.3740952  
C   -6.9483496   -0.0812676   -1.9098002  
C   -6.8717568   -0.0792640   -0.4679385  
C   -5.4361809   -0.0636918   -0.1278382  
N   -4.7626992   -0.0579216   -1.3275378  
C   -4.9458278   -0.0570295    1.1375529  
C   -5.8953346   -0.0660063    2.2379579  
O   -5.5530333   -0.0610940    3.4131630  
C   -7.4204573   -0.0827774    1.9010238  
O   -8.2292956   -0.0907522    2.8191619  
C   -7.8272321   -0.0884126    0.4980432  
H   -7.8413663   -0.0914385   -2.5089923  
H   -3.8889896   -0.0454619    1.3652995  
H   -5.3198482   -0.0651545   -3.3927545  
C  -10.1585983   -2.2372289   -2.5851697  
C  -11.3979620   -1.7506325   -2.2392388  
C  -11.2062860   -0.8730400   -1.1312261  
C   -9.8174567   -0.8636096   -0.8431462  
N   -9.2107908   -1.7039428   -1.7433761  
C   -9.2650392   -0.1039336    0.1924769  
C  -10.1303621    0.6603770    0.9509115  
O   -9.6440676    1.4213480    1.9743639  
C  -11.5192351    0.6638921    0.6791849  
O  -12.2486761    1.4757022    1.5231187  
C  -12.0649385   -0.0855119   -0.3421511  
H  -12.3261592   -1.9986484   -2.7249664  
H   -8.2253794   -1.8903283   -1.7903345  
H  -10.4048573    1.8683193    2.3676576  
H  -13.1757499    1.4207405    1.2718891  
H  -13.1326602   -0.0627820   -0.5263607  
H   -9.8759016   -2.9236133   -3.3648608  
C    0.8681109    0.7263879    2.2709268  
C    0.6127770    0.5096195    3.5869401  
C   -0.4920590   -0.4175482    3.6542670  
C   -0.8620974   -0.7254003    2.2596025  
N    0.0000000    0.0000000    1.4700000  
C   -1.8641242   -1.5660088    1.8976294  
C   -2.6293522   -2.2103885    2.9520183  
O   -3.5512764   -2.9839180    2.7283916  
C   -2.2549728   -1.8987399    4.4361073  
O   -2.8923672   -2.4351063    5.3323774  
C   -1.1543735   -0.9755647    4.7012123  
H    1.1382914    0.9492124    4.4159191  
H   -2.1192137   -1.7782617    0.8686553  
H   -0.9013378   -0.7652422    5.7314848  
H    1.6172880    1.3558399    1.8188057  
