60

C    3.3041272    0.0001175   -1.5420435  
C    2.5845371   -0.0004783   -0.3695853  
C    1.2040006   -0.0000009   -0.7283590  
C    1.1422372    0.0006035   -2.1454375  
N    2.4348637    0.0026107   -2.6077467  
C   -0.0655185    0.0008795   -2.8497920  
C   -1.2321771    0.0002323   -2.1101398  
O   -2.4392814    0.0001144   -2.7472513  
C   -1.1911211   -0.0000008   -0.6955259  
O   -2.4371530   -0.0002319   -0.1032851  
C    0.0000000    0.0000000    0.0000000  
H    3.0031536   -0.0000662    0.6222579  
H   -0.1193552    0.0014841   -3.9297469  
H   -3.1132988   -0.0000648   -2.0551785  
H   -2.3200282   -0.0004071    0.8516417  
H    4.3686621    0.0004070   -1.7024297  
C    5.6515792   -2.1002976   -4.7819019  
C    4.8081953   -1.6310299   -3.8266184  
C    3.8761256   -0.7467205   -4.4854643  
C    4.2482777   -0.7392326   -5.9131329  
N    5.3319456   -1.5792872   -6.0265390  
C    3.6067587   -0.0234896   -6.8711881  
C    2.4743151    0.7942200   -6.4693699  
O    1.8313252    1.4750508   -7.2576178  
C    2.0627995    0.8015928   -4.9625836  
O    1.1111835    1.4864535   -4.6123650  
C    2.8310660   -0.0116222   -4.0232754  
H    4.8359708   -1.8762190   -2.7798496  
H    6.4798585   -2.7827408   -4.6813314  
H    5.8148552   -1.7840908   -6.8820513  
C    4.9663609   -3.2504752   -9.5608863  
C    4.5342411   -2.5338163   -8.4914249  
C    4.3935790   -1.1655426   -8.9306018  
C    4.7819285   -1.1436507  -10.3538009  
N    5.1185850   -2.4385108  -10.6745651  
C    4.7839360   -0.0327191  -11.1332439  
C    4.3766271    1.2254116  -10.5301346  
O    4.3449238    2.2811834  -11.1487141  
C    3.9615239    1.2256109   -9.0243143  
O    3.6170333    2.2789299   -8.5055594  
C    3.9997301   -0.0352238   -8.2876403  
H    4.3367579   -2.9196200   -7.5071636  
H    5.0722794   -0.0383530  -12.1752313  
H    5.1866205   -4.3034346   -9.6290903  
H    5.4254506   -2.7466301  -11.5789677  
C    0.0000000    0.0000000    1.4700000  
C    1.0541688    0.0001722    2.3260392  
C    0.5103138    0.0000454    3.6635956  
C   -0.9576371   -0.0002459    3.5155732  
N   -1.2018458    0.0001392    2.1615969  
C   -1.8348311   -0.0008317    4.5510609  
C   -1.2972847   -0.0009736    5.9014604  
O   -2.0050672   -0.0014265    6.9001319  
C    0.2542623   -0.0004184    6.0817573  
O    0.7184670   -0.0002256    7.2139121  
C    1.0974552   -0.0000873    4.8889129  
H    2.0940752    0.0005483    2.0517982  
H   -2.9081052   -0.0011668    4.4207061  
H    2.1707277    0.0000911    5.0223670  
H   -2.1128194   -0.0014912    1.7406791  
