62

C   -3.3000858   -0.0420369   -1.4739007  
C   -2.5230754   -0.0320855   -2.6090763  
C   -1.1622279   -0.0144870   -2.1820107  
C   -1.1710945   -0.0147886   -0.7636148  
N   -2.4850515   -0.0297654   -0.3662375  
C    0.0000000    0.0000000    0.0000000  
C    1.2019447    0.0150663   -0.6806468  
O    2.3757414    0.0295330    0.0157761  
C    1.2313639    0.0159994   -2.0955502  
O    2.5052322    0.0323149   -2.6250163  
C    0.0764385    0.0016885   -2.8495194  
H   -2.8917711   -0.0358114   -3.6205317  
H   -2.8032936   -0.0440792    0.5858646  
H    3.0833215    0.0387477   -0.6418798  
H    2.4358009    0.0317906   -3.5845906  
H    0.1303849    0.0029820   -3.9319085  
C   -6.6258339   -0.0865808   -4.4617214  
C   -5.3876554   -0.0710046   -3.8624401  
C   -5.6072001   -0.0720491   -2.4530434  
C   -7.0109863   -0.0889966   -2.2504990  
N   -7.5996604   -0.0955262   -3.4906752  
C   -7.5915647   -0.0949249   -0.9786176  
C   -6.7395037   -0.0838442    0.1086024  
O   -7.2532385   -0.0893285    1.3731419  
C   -5.3361135   -0.0665118   -0.0730925  
O   -4.6228244   -0.0566848    1.1077829  
C   -4.7626664   -0.0603814   -1.3275431  
H   -4.4424937   -0.0591112   -4.3777273  
H   -8.6607173   -0.1076821   -0.8175253  
H   -6.4975622   -0.0794284    1.9749050  
H   -3.6843739   -0.0451938    0.8961654  
H   -6.8913822   -0.0905719   -5.5049985  
C   -9.9955535   -2.2650932   -6.4632183  
C  -11.2334425   -1.8269021   -6.1172501  
C  -11.0643732   -0.9245141   -5.0028235  
C   -9.6161276   -0.8725060   -4.7259291  
N   -9.0243903   -1.7073058   -5.6456279  
C   -9.0473048   -0.1282708   -3.7439621  
C   -9.9197090    0.6749662   -2.9035715  
O   -9.5038074    1.3789385   -1.9926653  
C  -11.4567452    0.6349299   -3.1787492  
O  -12.2011760    1.3067699   -2.4775263  
C  -11.9513744   -0.2055369   -4.2663195  
H  -12.1593516   -2.1043139   -6.5887886  
H  -13.0168951   -0.2275341   -4.4504547  
H   -9.7110671   -2.9487403   -7.2465346  
H   -8.0386626   -1.8826197   -5.7138414  
C    2.5128556    2.1077716    2.9199648  
C    1.9592212    1.6432552    4.0696553  
C    0.8915788    0.7479214    3.6910360  
C    0.8684491    0.7287414    2.2159470  
N    1.8754542    1.5738793    1.8102719  
C    0.0000000    0.0000000    1.4700000  
C   -0.9772830   -0.8200135    2.1664417  
O   -1.8021297   -1.5120829    1.5842315  
C   -0.9711318   -0.8147624    3.7284083  
O   -1.7894187   -1.5009653    4.3257297  
C    0.0140216    0.0115358    4.4216297  
H    2.2638494    1.8988021    5.0689105  
H    0.0117648    0.0094386    5.5031631  
H    3.3327358    2.7953732    2.7900019  
H    2.1123206    1.7707734    0.8551938  
