62

C    1.1188647    0.0008222   -0.8003809  
C    0.0000000    0.0000000    0.0000000  
C   -1.1323857    0.0008897   -0.8673532  
C   -0.6382652    0.0019677   -2.1969286  
N    0.7324024    0.0038479   -2.1202243  
C   -1.4770906    0.0027316   -3.3154814  
C   -2.8395469    0.0020943   -3.0876862  
O   -3.7039190    0.0024420   -4.1440356  
C   -3.3517863    0.0013927   -1.7684337  
O   -4.7300496    0.0012365   -1.7073126  
C   -2.5248540    0.0009121   -0.6644824  
H   -1.1067561    0.0036985   -4.3313816  
H   -4.5940026    0.0021825   -3.7685140  
H   -4.9934598    0.0007261   -0.7819920  
H   -2.9462577    0.0005600    0.3339653  
H    2.1619897    0.0009354   -0.5342068  
C    4.4769672   -2.1470636   -2.7027280  
C    4.8409695   -1.7539554   -3.9455261  
C    3.7877273   -0.8472134   -4.3756417  
C    2.8430657   -0.8072142   -3.2387166  
N    3.2418502   -1.5671438   -2.2551175  
C    1.6478441   -0.0100102   -3.2702999  
C    1.4074698    0.7146087   -4.3867594  
O    0.3314549    1.5023749   -4.5530624  
C    2.3418729    0.6955145   -5.5506700  
O    2.0597593    1.3797241   -6.5342808  
C    3.5612163   -0.1302662   -5.4939931  
H    5.7161646   -2.0434615   -4.5016698  
H    0.4389884    1.8844061   -5.4428045  
H    4.9959832   -2.8222039   -2.0410774  
C    4.4460574   -0.1117774   -6.6677117  
C    5.6311025   -0.7725479   -6.8946868  
C    6.0732473   -0.3986409   -8.1982594  
C    5.1094067    0.5001337   -8.7227989  
N    4.1339275    0.6509512   -7.7686970  
C    5.2222211    1.0733154   -9.9930450  
C    6.3283282    0.7332257  -10.7473944  
O    6.4882091    1.2642849  -11.9945627  
C    7.3006643   -0.1620578  -10.2415807  
O    8.3430111   -0.4010887  -11.1131996  
C    7.1898787   -0.7281048   -8.9886467  
H    6.1165326   -1.4425828   -6.2059168  
H    3.3242167    1.2383296   -7.8543556  
H    4.4910087    1.7588877  -10.3986575  
H    7.3129647    0.9008890  -12.3423928  
H    8.9544304   -1.0150349  -10.6950606  
H    7.9505094   -1.4107394   -8.6281893  
C    2.5128556    2.1077716    2.9199648  
C    1.9592212    1.6432552    4.0696553  
C    0.8915788    0.7479214    3.6910360  
C    0.8684491    0.7287414    2.2159470  
N    1.8754542    1.5738793    1.8102719  
C    0.0000000    0.0000000    1.4700000  
C   -0.9772830   -0.8200135    2.1664417  
O   -1.8021297   -1.5120829    1.5842315  
C   -0.9711318   -0.8147624    3.7284083  
O   -1.7894187   -1.5009653    4.3257297  
C    0.0140216    0.0115358    4.4216297  
H    2.2638494    1.8988021    5.0689105  
H    0.0117648    0.0094386    5.5031631  
H    3.3327358    2.7953732    2.7900019  
H    2.1123206    1.7707734    0.8551938  
