58

C   -2.9481722   -0.0008213   -8.5573797  
C   -3.9995227   -0.0012618   -7.6978817  
C   -5.1996326   -0.0018655   -8.5007341  
C   -4.7581096   -0.0017690   -9.9085154  
N   -3.3827153   -0.0007268   -9.8741610  
C   -5.5950378   -0.0026240  -10.9768105  
C   -7.0261882   -0.0034857  -10.7231533  
O   -7.8612835   -0.0042286  -11.6180915  
C   -7.5162091   -0.0033511   -9.2400194  
O   -8.7187983   -0.0037647   -9.0141013  
C   -6.5182992   -0.0026731   -8.1732350  
H   -3.9410168   -0.0009914   -6.6240149  
H   -5.2505494   -0.0026657  -12.0016225  
H   -6.8658227   -0.0027896   -7.1490519  
H   -2.7864426   -0.0019699  -10.6813185  
C   -0.8712823    0.0001712   -4.7267111  
C    0.4275910    0.0003833   -5.1068518  
C    0.3927412    0.0003245   -6.5612538  
C   -1.0467464   -0.0000493   -6.8995721  
N   -1.7925765   -0.0000599   -5.8282521  
C   -1.5084814   -0.0001661   -8.2604129  
C   -0.5746209    0.0004685   -9.2387989  
O   -0.8627925    0.0004375  -10.5514293  
C    0.8856685    0.0012293   -8.9294212  
O    1.6794953    0.0016581   -9.8701972  
C    1.3340966    0.0012908   -7.5255564  
H    1.3014265    0.0006484   -4.4779743  
H    0.0042906    0.0010051  -10.9956357  
H    2.4004346    0.0019674   -7.3434770  
C    1.0965515    0.0001358   -0.8010304  
C    0.0000000    0.0000000    0.0000000  
C   -1.1546562    0.0001470   -0.8669514  
C   -0.6372012    0.0003520   -2.2486282  
N    0.7342873    0.0007338   -2.1395014  
C   -1.4147737    0.0001354   -3.3608717  
C   -2.8576047   -0.0001047   -3.1854463  
O   -3.6427778   -0.0002491   -4.1244908  
C   -3.4275837   -0.0000725   -1.7311667  
O   -4.6406828    0.0000333   -1.5710061  
C   -2.4891866   -0.0001090   -0.6116745  
H   -2.8919121   -0.0002919    0.3920865  
H    2.1388272    0.0000662   -0.5261647  
H    1.3735873   -0.0006098   -2.9130261  
C    0.8175213    0.6860729    2.3021913  
C    0.0000000    0.0000000    1.4700000  
C   -0.8887526   -0.7456559    2.3478473  
C   -0.4549825   -0.3816753    3.7138435  
N    0.5448156    0.4573574    3.6934124  
C   -1.0945674   -0.9182058    4.8835240  
C   -2.1210866   -1.7789155    4.6970523  
O   -2.8083856   -2.3554314    5.6976972  
C   -2.5824069   -2.1655116    3.3310774  
O   -3.5227682   -2.9541547    3.2362962  
C   -1.9100805   -1.6015804    2.1470656  
H   -0.7567140   -0.6349833    5.8697035  
H   -3.4728268   -2.9124471    5.2533954  
H   -2.2742832   -1.9066565    1.1752040  
H    1.6189533    1.3585343    2.0405121  
