58

C    6.2062272   -0.7212549   -3.2346732  
C    7.4536363   -0.5057503   -2.7431408  
C    8.1045593    0.4213626   -3.6384600  
C    7.1271027    0.7305596   -4.6994809  
N    5.9974492    0.0059111   -4.3967323  
C    7.3606112    1.5715253   -5.7386902  
C    8.6615294    2.2148975   -5.8175583  
O    8.9686616    2.9886504   -6.7149309  
C    9.7120839    1.9018181   -4.7048499  
O   10.8108789    2.4373275   -4.7608645  
C    9.3438552    0.9783780   -3.6345601  
H    7.8703093   -0.9461450   -1.8548566  
H    6.6298119    1.7847700   -6.5063938  
H   10.0768543    0.7670623   -2.8678903  
H    5.4219746   -1.3502786   -2.8458723  
C    1.7334697    0.0049246   -3.2500361  
C    3.0913864    0.0046114   -3.2383151  
C    3.5242791    0.0065426   -4.6157893  
C    2.2984623    0.0080465   -5.4368628  
N    1.2476587    0.0065694   -4.5487759  
C    2.2819768    0.0104505   -6.7938549  
C    3.5566110    0.0114101   -7.4923125  
O    3.6472560    0.0134890   -8.7130008  
C    4.8674248    0.0095965   -6.6428604  
O    5.9464914    0.0100765   -7.2198154  
C    4.7574564    0.0073252   -5.1862363  
H    3.7182529    0.0030074   -2.3644445  
H    1.3716378    0.0116508   -7.3771145  
H    0.2773175    0.0086319   -4.8046686  
C    1.1319247    0.0015655   -0.8009267  
C    0.7969916    0.0034943   -2.1169401  
C   -0.6453337    0.0035710   -2.1842668  
C   -1.1266832    0.0015433   -0.7896026  
N    0.0000000    0.0000000    0.0000000  
C   -2.4346130    0.0013964   -0.4276294  
C   -3.4350109    0.0031408   -1.4820183  
O   -4.6384610    0.0030973   -1.2583915  
C   -2.9478956    0.0050505   -2.9661075  
O   -3.7809378    0.0062218   -3.8623775  
C   -1.5113821    0.0053090   -3.2312122  
H   -2.7664565    0.0000232    0.6013446  
H   -1.1823527    0.0068407   -4.2614846  
H    2.1104317    0.0009391   -0.3488056  
C    0.0000000    0.0000000    1.4700000  
C    1.0662921    0.0000102    2.3034270  
C    0.4961870   -0.0000064    3.6418889  
C   -0.9663858    0.0000850    3.4240247  
N   -1.2632773    0.0000084    2.1528658  
C   -1.8985362    0.0000517    4.5177257  
C   -1.3925775   -0.0004564    5.7720543  
O   -2.1456383   -0.0005410    6.8851312  
C    0.0786232   -0.0009323    6.0245000  
O    0.4683759   -0.0012588    7.1921102  
C    1.0143166   -0.0008442    4.8859032  
H    2.1107198   -0.0000632    2.0421868  
H   -2.9622183    0.0003270    4.3293377  
H   -1.5042274   -0.0009692    7.6184419  
H    2.0724152   -0.0013148    5.1109744  
