58

C    1.0965517    0.0001359   -0.8010306  
C    0.0000000    0.0000000    0.0000000  
C   -1.1546565    0.0001471   -0.8669509  
C   -0.6372015    0.0003522   -2.2486283  
N    0.7342872    0.0007341   -2.1395011  
C   -1.4147740    0.0001356   -3.3608713  
C   -2.8576051   -0.0001043   -3.1854460  
O   -3.6427776   -0.0002489   -4.1244906  
C   -3.4275843   -0.0000725   -1.7311663  
O   -4.6406828    0.0000334   -1.5710056  
C   -2.4891865   -0.0001091   -0.6116745  
H   -1.0150447    0.0001622   -4.3654243  
H   -2.8919123   -0.0002920    0.3920865  
H    2.1388273    0.0000664   -0.5261645  
C    4.5298623   -2.1105781   -2.7870401  
C    4.8358779   -1.6476822   -4.0264580  
C    3.7723838   -0.7519980   -4.4157720  
C    2.8148500   -0.7308466   -3.2935094  
N    3.3319992   -1.5752937   -2.3383368  
C    1.6707642   -0.0012340   -3.2725973  
C    1.3617420    0.8177040   -4.4329339  
O    0.3555482    1.5104318   -4.5104134  
C    2.3615449    0.8103626   -5.6329946  
O    2.1118346    1.4956459   -6.6154876  
C    3.5619268   -0.0167192   -5.5388084  
H    5.7070853   -1.9045221   -4.6023435  
H    5.0785345   -2.7978854   -2.1637768  
H    2.9059925   -1.7708746   -1.4510301  
C    5.8945293   -3.2227206   -7.4822463  
C    5.0658809   -2.5149310   -6.6720297  
C    5.1163548   -1.1414735   -7.1146374  
C    6.0489993   -1.1068738   -8.2573392  
N    6.4861686   -2.4000772   -8.4287988  
C    6.3678423    0.0120387   -8.9559655  
C    5.7514711    1.2659607   -8.5555884  
O    5.9741775    2.3282275   -9.1215326  
C    4.7608501    1.2527347   -7.3479872  
O    4.2360195    2.3024052   -7.0015699  
C    4.4960380   -0.0158372   -6.6738574  
H    4.4856482   -2.9098679   -5.8571871  
H    7.0543301    0.0156893   -9.7912082  
H    6.1229338   -4.2760484   -7.4673508  
H    7.1335682   -2.7004118   -9.1342910  
C    0.8400945    0.7047457    2.2710304  
C    0.0000000    0.0000000    1.4700000  
C   -0.8844236   -0.7423113    2.3369512  
C   -0.4878984   -0.4098547    3.7186280  
N    0.5629682    0.4714286    3.6095011  
C   -1.0836927   -0.9095027    4.8308716  
C   -2.1891196   -1.8367527    4.6554461  
O   -2.7906899   -2.3413415    5.5944904  
C   -2.6257283   -2.2031529    3.2011665  
O   -3.5549479   -2.9829990    3.0410059  
C   -1.9068976   -1.5999348    2.0816745  
H   -0.7774656   -0.6525820    5.8354244  
H   -2.2155208   -1.8586617    1.0779135  
H    1.6384792    1.3747609    1.9961646  
H    1.0518368    0.8833920    4.3830260  
