60

C   -3.3041217    0.0051088   -1.5420451  
C   -2.5845325    0.0045662   -0.3695870  
C   -1.2039985    0.0019052   -0.7283598  
C   -1.1422349    0.0012031   -2.1454380  
N   -2.4348624    0.0012406   -2.6077480  
C    0.0655197   -0.0009835   -2.8497916  
C    1.2321764   -0.0021816   -2.1101391  
O    2.4392806   -0.0039733   -2.7472503  
C    1.1911205   -0.0018834   -0.6955255  
O    2.4371509   -0.0036231   -0.1032844  
C    0.0000000    0.0000000    0.0000000  
H   -3.0031496    0.0048165    0.6222562  
H   -2.7054453    0.0113894   -3.5745279  
H    0.1193554   -0.0016733   -3.9297471  
H    3.1132970   -0.0048599   -2.0551764  
H    2.3200262   -0.0032628    0.8516425  
C   -4.7577148    0.0070129   -1.7610490  
C   -5.7406963    0.0099224   -0.8308242  
C   -6.9792855    0.0106665   -1.5939733  
C   -6.5459583    0.0079798   -3.0077640  
N   -5.2447563    0.0057500   -3.1119615  
C   -7.4885808    0.0077724   -4.0924525  
C   -8.8042887    0.0097526   -3.7790131  
O   -9.7927519    0.0098246   -4.6894975  
C   -9.2730965    0.0121144   -2.3618418  
O  -10.4857415    0.0139654   -2.1503922  
C   -8.2866077    0.0123244   -1.2669615  
H   -5.6379708    0.0112929    0.2408672  
H  -10.6134361    0.0114409   -4.1644952  
H   -8.6668032    0.0139510   -0.2542038  
C   -4.1751990   -2.0930359   -6.1184179  
C   -5.0644146   -1.6281943   -5.2033805  
C   -5.9559540   -0.7315275   -5.9005032  
C   -5.5100728   -0.7119641   -7.3067740  
N   -4.4267567   -1.5575390   -7.3724920  
C   -6.0968651    0.0173606   -8.2893546  
C   -7.2440051    0.8379887   -7.9383932  
O   -7.8412901    1.5307022   -8.7518430  
C   -7.7332244    0.8327322   -6.4550045  
O   -8.6978561    1.5199190   -6.1475628  
C   -7.0194360    0.0053448   -5.4855776  
H   -5.0924678   -1.8840851   -4.1591840  
H   -5.7541438    0.0174345   -9.3147582  
H   -3.3571486   -2.7815821   -5.9820798  
H   -3.9012080   -1.7567039   -8.2038639  
C    0.8400945    0.7047457    2.2710304  
C    0.0000000    0.0000000    1.4700000  
C   -0.8844236   -0.7423113    2.3369512  
C   -0.4878984   -0.4098547    3.7186280  
N    0.5629682    0.4714286    3.6095011  
C   -1.0836927   -0.9095027    4.8308716  
C   -2.1891196   -1.8367527    4.6554461  
O   -2.7906899   -2.3413415    5.5944904  
C   -2.6257283   -2.2031529    3.2011665  
O   -3.5549479   -2.9829990    3.0410059  
C   -1.9068976   -1.5999348    2.0816745  
H   -0.7774656   -0.6525820    5.8354244  
H   -2.2155208   -1.8586617    1.0779135  
H    1.6384792    1.3747609    1.9961646  
H    1.0518368    0.8833920    4.3830260  
