62

C   -3.3003052   -0.0181119   -1.4738981  
C   -2.5232446   -0.0137938   -2.6090742  
C   -1.1623048   -0.0060610   -2.1820099  
C   -1.1711718   -0.0062984   -0.7636137  
N   -2.4852033   -0.0117494   -0.3662354  
C    0.0000000    0.0000000    0.0000000  
C    1.2020214    0.0063524   -0.6806483  
O    2.3758923    0.0123094    0.0157739  
C    1.2314447    0.0070724   -2.0955512  
O    2.5053979    0.0141525   -2.6250185  
C    0.0764461    0.0011344   -2.8495195  
H   -2.8919579   -0.0148467   -3.6205295  
H   -2.8035398   -0.0237557    0.5858669  
H    3.0835204    0.0163944   -0.6418824  
H    2.4359635    0.0141316   -3.5845927  
H    0.1303997    0.0020368   -3.9319086  
C   -5.6629584   -0.0137331   -2.3673672  
C   -6.9418435   -0.0093497   -1.8605132  
C   -6.8262921   -0.0174841   -0.4388305  
C   -5.4410659   -0.0264479   -0.1338823  
N   -4.7629806   -0.0258531   -1.3275394  
C   -4.9553363   -0.0356572    1.1771366  
C   -5.8849175   -0.0355135    2.1989277  
O   -5.4653102   -0.0439417    3.4977239  
C   -7.2712853   -0.0270192    1.9148001  
O   -8.0693385   -0.0284574    3.0401683  
C   -7.7511865   -0.0182049    0.6216858  
H   -3.9008221   -0.0426599    1.4162029  
H   -6.2631504   -0.0425382    4.0424377  
H   -8.9897941   -0.0223428    2.7602972  
H   -8.8187010   -0.0120036    0.4349971  
H   -5.3215670   -0.0106188   -3.3883476  
C   -8.3836892   -0.7197813   -3.8238601  
C   -9.6271491   -0.4948747   -4.3211521  
C  -10.2779740    0.4311135   -3.4245986  
C   -9.3047623    0.7294047   -2.3565760  
N   -8.1774138    0.0001577   -2.6568652  
C   -9.5394554    1.5662074   -1.3142783  
C  -10.8372604    2.2162878   -1.2392372  
O  -11.1451536    2.9870235   -0.3395323  
C  -11.8833012    1.9147850   -2.3593710  
O  -12.9794530    2.4560164   -2.3066304  
C  -11.5141714    0.9949332   -3.4324358  
H  -10.0412724   -0.9283380   -5.2140272  
H   -8.8117860    1.7714325   -0.5414326  
H  -12.2440349    0.7916439   -4.2042484  
H   -7.6007305   -1.3510624   -4.2116090  
C    0.0000000    0.0000000    1.4700000  
C    1.0541688    0.0001722    2.3260392  
C    0.5103138    0.0000454    3.6635956  
C   -0.9576371   -0.0002459    3.5155732  
N   -1.2018458    0.0001392    2.1615969  
C   -1.8348311   -0.0008317    4.5510609  
C   -1.2972847   -0.0009736    5.9014604  
O   -2.0050672   -0.0014265    6.9001319  
C    0.2542623   -0.0004184    6.0817573  
O    0.7184670   -0.0002256    7.2139121  
C    1.0974552   -0.0000873    4.8889129  
H    2.0940752    0.0005483    2.0517982  
H   -2.9081052   -0.0011668    4.4207061  
H    2.1707277    0.0000911    5.0223670  
H   -2.1128194   -0.0014912    1.7406791  
