60

C    3.3041269    0.0001175   -1.5420426  
C    2.5845369   -0.0004781   -0.3695850  
C    1.2040006   -0.0000009   -0.7283587  
C    1.1422370    0.0006035   -2.1454368  
N    2.4348637    0.0026106   -2.6077462  
C   -0.0655187    0.0008795   -2.8497912  
C   -1.2321773    0.0002320   -2.1101394  
O   -2.4392815    0.0001144   -2.7472514  
C   -1.1911212   -0.0000008   -0.6955259  
O   -2.4371528   -0.0002320   -0.1032851  
C    0.0000000    0.0000000    0.0000000  
H    3.0031534   -0.0000661    0.6222590  
H   -0.1193551    0.0014838   -3.9297465  
H   -3.1132990   -0.0000651   -2.0551779  
H   -2.3200282   -0.0004068    0.8516418  
H    4.3686618    0.0004068   -1.7024290  
C    3.8860205   -0.7395034   -4.5524246  
C    3.9939097   -0.5373191   -5.8909151  
C    2.9441499    0.3812270   -6.2638935  
C    2.2105942    0.6999140   -5.0240848  
N    2.8310659   -0.0116225   -4.0232749  
C    1.1445016    1.5367990   -4.9549937  
C    0.6890266    2.1654498   -6.1837640  
O   -0.2623538    2.9344941   -6.2255532  
C    1.4508807    1.8421321   -7.5084711  
O    1.0763534    2.3652224   -8.5493195  
C    2.5861428    0.9243289   -7.4567932  
H    0.6206116    1.7571749   -4.0352745  
H    3.1083965    0.7058561   -8.3783375  
H    4.4883010   -1.3591735   -3.9080980  
C    4.9935929   -1.1439695   -6.7817060  
C    5.9956944   -2.0094461   -6.4803463  
C    6.6886781   -2.2971611   -7.7139711  
C    6.0032623   -1.5227856   -8.7662726  
N    4.9849353   -0.8456880   -8.1358452  
C    6.3582791   -1.5235658  -10.0761068  
C    7.4909098   -2.3418650  -10.4761943  
O    7.8883132   -2.4098467  -11.6319408  
C    8.2314220   -3.1703701   -9.3784573  
O    9.1862032   -3.8632342   -9.7034067  
C    7.7560017   -3.0879383   -7.9996779  
H    6.2233332   -2.4016995   -5.5051893  
H    5.8421720   -0.9481643  -10.8320540  
H    8.2743132   -3.6644977   -7.2455846  
H    4.3366972   -0.2282147   -8.5892338  
C    2.5128556    2.1077716    2.9199648  
C    1.9592212    1.6432552    4.0696553  
C    0.8915788    0.7479214    3.6910360  
C    0.8684491    0.7287414    2.2159470  
N    1.8754542    1.5738793    1.8102719  
C    0.0000000    0.0000000    1.4700000  
C   -0.9772830   -0.8200135    2.1664417  
O   -1.8021297   -1.5120829    1.5842315  
C   -0.9711318   -0.8147624    3.7284083  
O   -1.7894187   -1.5009653    4.3257297  
C    0.0140216    0.0115358    4.4216297  
H    2.2638494    1.8988021    5.0689105  
H    0.0117648    0.0094386    5.5031631  
H    3.3327358    2.7953732    2.7900019  
H    2.1123206    1.7707734    0.8551938  
