58

C    1.7724891   -2.0972088   -5.2508569  
C    1.5944632   -1.6313102   -6.5139174  
C    0.4614766   -0.7369888   -6.4769603  
C   -0.0093302   -0.7199090   -5.0788045  
N    0.8272494   -1.5651728   -4.3870293  
C   -1.0641726    0.0073887   -4.6315345  
C   -1.7839595    0.8279534   -5.5912823  
O   -2.7474225    1.5188303   -5.2867672  
C   -1.3029082    0.8249180   -7.0773461  
O   -1.9012754    1.5116025   -7.8944639  
C   -0.1528500    0.0000409   -7.4390041  
H    2.1888676   -1.8853055   -7.3734422  
H    2.5145573   -2.7846292   -4.8784618  
H    0.7624991   -1.7633144   -3.4054008  
C    1.1319251    0.0015673   -0.8009273  
C    0.7969921    0.0034953   -2.1169403  
C   -0.6453333    0.0035696   -2.1842678  
C   -1.1266829    0.0015413   -0.7896035  
N    0.0000000    0.0000000    0.0000000  
C   -2.4346127    0.0013921   -0.4276305  
C   -3.4350107    0.0031347   -1.4820192  
O   -4.6384606    0.0030892   -1.2583929  
C   -2.9478952    0.0050450   -2.9661079  
O   -3.7809372    0.0062147   -3.8623786  
C   -1.5113815    0.0053060   -3.2312131  
H    1.4821245    0.0045429   -2.9459194  
H   -2.7664563    0.0000184    0.6013440  
H    2.1104319    0.0009427   -0.3488061  
C    1.2780831   -3.2197086  -10.0598780  
C    1.5048086   -2.5042153  -11.1915759  
C    1.1572454   -1.1334946  -10.8997542  
C    0.7062413   -1.1088864   -9.4951972  
N    0.8031236   -2.4048172   -9.0434603  
C    0.2914326    0.0049725   -8.8402492  
C    0.2887983    1.2635315   -9.5672688  
O   -0.0670678    2.3218260   -9.0655993  
C    0.7621629    1.2607960  -11.0557998  
O    0.7639992    2.3143379  -11.6781398  
C    1.1867110   -0.0029730  -11.6528745  
H    1.8732851   -2.8923942  -12.1243984  
H    1.5132185    0.0037123  -12.6839284  
H    1.4178078   -4.2737779   -9.8829465  
H    0.5672564   -2.7110738   -8.1173821  
C    2.5528530    2.1414826    2.8079335  
C    2.0663498    1.7338582    4.0032312  
C    0.9804344    0.8229586    3.6752840  
C    0.9495562    0.7966882    2.1971295  
N    1.8690446    1.5676019    1.6831036  
C    0.0000000    0.0000000    1.4700000  
C   -0.8785127   -0.7372425    2.1869543  
O   -1.8187535   -1.5261249    1.6395491  
C   -0.8723269   -0.7321790    3.6796354  
O   -1.7010379   -1.4274584    4.2670412  
C    0.1115397    0.0933559    4.4024240  
H    2.4028853    2.0163452    4.9860947  
H   -2.2861435   -1.9184361    2.3990168  
H    0.0832434    0.0693689    5.4835595  
H    3.3664920    2.8238276    2.6198634  
