60

C    3.3003545    0.0005275   -1.4738985  
C    2.5232816    0.0003498   -2.6090745  
C    1.1623201   -0.0001318   -2.1820100  
C    1.1711884    0.0000584   -0.7636138  
N    2.4852303   -0.0014918   -0.3662355  
C    0.0000000    0.0000000    0.0000000  
C   -1.2020383    0.0000520   -0.6806475  
O   -2.3759247    0.0003495    0.0157748  
C   -1.2314656   -0.0005111   -2.0955504  
O   -2.5054387   -0.0008035   -2.6250179  
C   -0.0764515   -0.0007273   -2.8495193  
H    2.8919956   -0.0005620   -3.6205297  
H    2.8036266    0.0088180    0.5858667  
H   -3.0835637    0.0000349   -0.6418815  
H   -2.4360046   -0.0011526   -3.5845919  
H    4.3715550    0.0004893   -1.3667129  
C    2.3339072   -2.1433066   -5.7798814  
C    1.7884039   -1.7364551   -6.9497006  
C    0.7199610   -0.8255803   -6.5686008  
C    0.7627111   -0.7984773   -5.0907571  
N    1.7068232   -1.5689207   -4.6227199  
C   -0.1496414   -0.0015612   -4.3176957  
C   -1.0629248    0.7351038   -4.9904306  
O   -1.9749198    1.5241139   -4.3973303  
C   -1.1310647    0.7291946   -6.4815657  
O   -1.9881487    1.4239795   -7.0273692  
C   -0.1842217   -0.0965591   -7.2519837  
H    2.0756490   -2.0194342   -7.9479435  
H   -2.4796306    1.9159033   -5.1328036  
H    3.1560524   -2.8253865   -5.6321748  
C   -0.1755942   -1.0975775   -9.5837228  
C   -0.2957794   -0.0648046   -8.7174008  
C   -0.5618384    1.0963113   -9.5525782  
C   -0.5681964    0.5683337  -10.9338037  
N   -0.3424225   -0.7171285  -10.9583517  
C   -0.8005370    1.4154855  -12.0710979  
C   -1.0170817    2.7302498  -11.8390679  
O   -1.2473312    3.6350326  -12.8057080  
C   -1.0172280    3.2932508  -10.4566104  
O   -1.2212561    4.4994405  -10.3198628  
C   -0.7764081    2.4037659   -9.3065033  
H   -0.7994121    1.0027858  -13.0693901  
H   -1.3630019    4.4789803  -12.3329235  
H   -0.7846949    2.8504428   -8.3212919  
H    0.0240660   -2.1332169   -9.3588667  
C    2.4951002    2.0940188    2.9809380  
C    1.9440701    1.6314916    1.8291961  
C    0.8759964    0.7350050    2.2038498  
C    0.8497377    0.7130254    3.6788474  
N    1.8560616    1.5571714    4.0882609  
C   -0.0205033   -0.0168748    4.4215661  
C   -0.9962600   -0.8356168    3.7214979  
O   -1.8224391   -1.5286685    4.3006425  
C   -0.9864710   -0.8277881    2.1595606  
O   -1.8030528   -1.5133726    1.5592035  
C    0.0000000    0.0000000    1.4700000  
H    2.2509283    1.8888011    0.8310761  
H   -0.0229599   -0.0187323    5.5027230  
H    3.3143982    2.7817323    3.1139444  
H    2.0889452    1.7545833    5.0442112  
