58

C    1.0965508    0.0001356   -0.8010304  
C    0.0000000    0.0000000    0.0000000  
C   -1.1546573    0.0001468   -0.8669500  
C   -0.6372028    0.0003516   -2.2486272  
N    0.7342859    0.0007336   -2.1395009  
C   -1.4147758    0.0001350   -3.3608706  
C   -2.8576066   -0.0001052   -3.1854445  
O   -3.6427802   -0.0002499   -4.1244889  
C   -3.4275856   -0.0000729   -1.7311647  
O   -4.6406840    0.0000328   -1.5710034  
C   -2.4891870   -0.0001095   -0.6116733  
H   -1.0150469    0.0001612   -4.3654236  
H   -2.8919124   -0.0002920    0.3920876  
H    2.1388268    0.0000663   -0.5261649  
C    4.4892964   -2.1441338   -2.6751670  
C    4.8760691   -1.7381812   -3.9069090  
C    3.8307824   -0.8270018   -4.3469401  
C    2.8653290   -0.7987569   -3.2272592  
N    3.2460484   -1.5688474   -2.2444047  
C    1.6707625   -0.0012345   -3.2725975  
C    1.4508800    0.7349192   -4.3857302  
O    0.3779831    1.5243966   -4.5636595  
C    2.4065700    0.7278580   -5.5323630  
O    2.1425146    1.4222294   -6.5138639  
C    3.6247965   -0.0985003   -5.4617881  
H    5.7614086   -2.0219348   -4.4498031  
H    0.5018282    1.9156217   -5.4472642  
H    4.2917507   -0.0759649   -6.3131961  
C    8.2686220   -4.3989213   -3.0344192  
C    7.2020112   -3.5889707   -3.2589104  
C    6.3599330   -3.6677004   -2.0886363  
C    7.0281936   -4.5965489   -1.1572618  
N    8.1794810   -5.0047696   -1.7903365  
C    6.5481474   -4.9370646    0.0655664  
C    5.2891785   -4.3496953    0.4928012  
O    4.7741416   -4.5933642    1.5761585  
C    4.5640786   -3.3635960   -0.4775820  
O    3.5033316   -2.8630876   -0.1289167  
C    5.1801884   -3.0737424   -1.7699618  
H    7.0252052   -3.0033519   -4.1434464  
H    7.0541171   -5.6203051    0.7334642  
H    9.1121775   -4.6043631   -3.6732431  
H    8.8524223   -5.6427953   -1.4067735  
C    0.8681109    0.7263879    2.2709268  
C    0.6127770    0.5096195    3.5869401  
C   -0.4920590   -0.4175482    3.6542670  
C   -0.8620974   -0.7254003    2.2596025  
N    0.0000000    0.0000000    1.4700000  
C   -1.8641242   -1.5660088    1.8976294  
C   -2.6293522   -2.2103885    2.9520183  
O   -3.5512764   -2.9839180    2.7283916  
C   -2.2549728   -1.8987399    4.4361073  
O   -2.8923672   -2.4351063    5.3323774  
C   -1.1543735   -0.9755647    4.7012123  
H    1.1382914    0.9492124    4.4159191  
H   -2.1192137   -1.7782617    0.8686553  
H   -0.9013378   -0.7652422    5.7314848  
H    1.6172880    1.3558399    1.8188057  
