58

C    0.8807936   -0.7246962   -5.2251244  
C    0.6214206   -0.5080868   -6.5403739  
C   -0.4848681    0.4175800   -6.6044198  
C   -0.8513572    0.7247246   -5.2086625  
N    0.0139735    0.0003890   -4.4216236  
C   -1.8534975    1.5639108   -4.8437156  
C   -2.6226020    2.2073964   -5.8958279  
O   -3.5449423    2.9796333   -5.6694646  
C   -2.2520211    1.8964740   -7.3810220  
O   -2.8926946    2.4320980   -8.2753954  
C   -1.1509204    0.9748422   -7.6493937  
H   -2.1059483    1.7756663   -3.8139886  
H   -0.9005297    0.7650142   -8.6804132  
H    1.6321133   -1.3531890   -4.7752298  
C    3.2798085    0.0005863   -1.4499651  
C    2.5571140    0.0005574   -2.5996556  
C    1.1637432    0.0001555   -2.2210361  
C    1.1336965   -0.0000197   -0.7459472  
N    2.4483511   -0.0001424   -0.3402720  
C    0.0000000    0.0000000    0.0000000  
C   -1.2757369   -0.0000184   -0.6964411  
O   -2.3524596   -0.0000641   -0.1142310  
C   -1.2676496   -0.0000869   -2.2584080  
O   -2.3355766   -0.0004093   -2.8557289  
C    0.0181558    0.0001767   -2.9516295  
H    2.9547351    0.0006085   -3.5989110  
H    4.3498549    0.0008618   -1.3200024  
H    2.7563629    0.0012825    0.6148060  
C    1.3373173   -1.1078018   -7.6755983  
C    2.3785610   -1.9794736   -7.6669658  
C    2.7078739   -2.2555979   -9.0454222  
C    1.7664015   -1.4676701   -9.8637073  
N    0.9620999   -0.7945883   -8.9732302  
C    1.7514398   -1.4550504  -11.2206598  
C    2.7276089   -2.2721981  -11.9220156  
O    2.7949864   -2.3285973  -13.1429083  
C    3.7341494   -3.1149137  -11.0755459  
O    4.5603720   -3.8069428  -11.6549542  
C    3.6524996   -3.0462949   -9.6186737  
H    2.8607736   -2.3831155   -6.7945219  
H    1.0523947   -0.8698445  -11.8018481  
H    4.3531544   -3.6326447   -9.0398806  
H    0.2185227   -0.1702623   -9.2269180  
C    0.8175213    0.6860729    2.3021913  
C    0.0000000    0.0000000    1.4700000  
C   -0.8887526   -0.7456559    2.3478473  
C   -0.4549825   -0.3816753    3.7138435  
N    0.5448156    0.4573574    3.6934124  
C   -1.0945674   -0.9182058    4.8835240  
C   -2.1210866   -1.7789155    4.6970523  
O   -2.8083856   -2.3554314    5.6976972  
C   -2.5824069   -2.1655116    3.3310774  
O   -3.5227682   -2.9541547    3.2362962  
C   -1.9100805   -1.6015804    2.1470656  
H   -0.7567140   -0.6349833    5.8697035  
H   -3.4728268   -2.9124471    5.2533954  
H   -2.2742832   -1.9066565    1.1752040  
H    1.6189533    1.3585343    2.0405121  
