58

C    3.4166198   -0.7237139   -3.0386504  
C    4.6505742   -0.5066207   -3.5623899  
C    4.4859769    0.4195039   -4.6578516  
C    3.0446499    0.7263903   -4.7298857  
N    2.4521480    0.0014830   -3.7217483  
C    2.4815918    1.5658684   -5.6353935  
C    3.3532913    2.2099643   -6.6038029  
O    2.9422598    2.9825017   -7.4596885  
C    4.8829911    1.8993248   -6.5461255  
O    5.6266962    2.4354621   -7.3565073  
C    5.3718613    0.9773332   -5.5239760  
H    5.5710251   -0.9453430   -3.2204743  
H    1.4219288    1.7774263   -5.6709974  
H    6.4323652    0.7677044   -5.4906539  
H    3.1306602   -1.3526353   -2.2112606  
C    0.0000000    0.0000000    0.0000000  
C    1.0662921   -0.0000106   -0.8334269  
C    0.4961870    0.0000059   -2.1718889  
C   -0.9663856   -0.0000854   -1.9540246  
N   -1.2632773   -0.0000087   -0.6828657  
C   -1.8985362   -0.0000522   -3.0477258  
C   -1.3925773    0.0004558   -4.3020541  
O   -2.1456384    0.0005402   -5.4151311  
C    0.0786236    0.0009315   -4.5544999  
O    0.4683762    0.0012578   -5.7221098  
C    1.0143167    0.0008435   -3.4159031  
H    2.1107198    0.0000631   -0.5721865  
H   -1.5042271    0.0009682   -6.1484419  
C   -3.9834213    0.7255588   -1.7966836  
C   -5.3237509    0.5085133   -1.8186565  
C   -5.5825287   -0.4184194   -2.8950697  
C   -4.2737046   -0.7258316   -3.5027434  
N   -3.3460094   -0.0004268   -2.7913647  
C   -4.0918496   -1.5661191   -4.5527673  
C   -5.2633971   -2.2105927   -5.1225620  
O   -5.2038133   -2.9838548   -6.0695659  
C   -6.6595190   -1.8994079   -4.4950174  
O   -7.6531000   -2.4358571   -4.9664833  
C   -6.7288173   -0.9765515   -3.3648025  
H   -6.0484724    0.9477749   -1.1565068  
H   -3.1230855   -1.7780515   -4.9834534  
H   -7.6992177   -0.7665493   -2.9359132  
H   -3.4077088    1.3549549   -1.1376654  
C    3.2573670    0.0002920    2.9809380  
C    2.5379467    0.0001709    1.8291961  
C    1.1435042   -0.0000331    2.2038498  
C    1.1092607    0.0000083    3.6788474  
N    2.4227561   -0.0001909    4.0882609  
C   -0.0265533    0.0002524    4.4215661  
C   -1.3003036    0.0002640    3.7214979  
O   -2.3786784    0.0004133    4.3006425  
C   -1.2877726   -0.0000311    2.1595606  
O   -2.3539958   -0.0003306    1.5592035  
C    0.0000000    0.0000000    1.4700000  
H    2.9384090    0.0000368    0.8310761  
H   -0.0296291    0.0004086    5.5027230  
H    4.3270393    0.0004765    3.1139444  
H    2.7280493    0.0013407    5.0442112  
