58

C    6.6020620   -0.0045256   -5.8622217  
C    5.3036141   -0.0045146   -6.2598499  
C    5.3054986   -0.0054870   -7.7037445  
C    6.7216337   -0.0060988   -8.1176910  
N    7.4563260   -0.0050730   -6.9544552  
C    7.1458826   -0.0074628   -9.4067658  
C    6.1406563   -0.0081641  -10.4565539  
O    6.4217091   -0.0093301  -11.6479006  
C    4.6349230   -0.0072826  -10.0411345  
O    3.7796118   -0.0075550  -10.9161800  
C    4.3012669   -0.0061003   -8.6189801  
H    4.4427472   -0.0037135   -5.6152411  
H    8.1895818   -0.0080207   -9.6889066  
H    3.2564064   -0.0057007   -8.3397127  
H    8.4586874   -0.0067305   -6.9063532  
C    4.5679461   -0.0016854   -2.0086701  
C    5.6049852   -0.0016933   -1.1391134  
C    6.7955419   -0.0024718   -1.9752198  
C    6.2781452   -0.0029783   -3.3604579  
N    4.9730333   -0.0024399   -3.3863781  
C    7.1539712   -0.0037582   -4.4997625  
C    8.4861197   -0.0036311   -4.2658492  
O    9.4181585   -0.0043056   -5.2340147  
C    9.0391356   -0.0027525   -2.8793670  
O   10.2622856   -0.0028092   -2.7410739  
C    8.1201340   -0.0020063   -1.7272560  
H    5.5667630   -0.0011378   -0.0631886  
H   10.2688725   -0.0039792   -4.7592114  
H    8.5604255   -0.0012654   -0.7391402  
C    3.1301149   -0.0010311   -1.7028252  
C    2.5367768   -0.0002767   -0.4864665  
C    1.1089904    0.0001028   -0.7656183  
C    1.0177872   -0.0004148   -2.2415132  
N    2.1993578   -0.0011611   -2.7963820  
C   -0.2459209   -0.0002877   -2.9257118  
C   -1.3675319   -0.0000605   -2.1698524  
O   -2.6129313    0.0000867   -2.6748490  
C   -1.3083584    0.0000910   -0.6783232  
O   -2.3693261    0.0004206   -0.0541692  
C    0.0000000    0.0000000    0.0000000  
H    3.0096017   -0.0001007    0.4807525  
H   -0.2829630   -0.0004687   -4.0053125  
H   -3.1967441    0.0002094   -1.8949034  
C    2.3971438    2.0127888    3.1728260  
C    1.9431056    1.6308205    1.9564670  
C    0.8496017    0.7127664    2.2356185  
C    0.7794028    0.6545384    3.7115134  
N    1.6840587    1.4146091    4.2663826  
C   -0.1885723   -0.1578550    4.3957118  
C   -1.0476298   -0.8789867    3.6398520  
O   -2.0015663   -1.6796266    4.1448486  
C   -1.0022026   -0.8410666    2.1483229  
O   -1.8147390   -1.5232959    1.5241687  
C    0.0000000    0.0000000    1.4700000  
H    2.3054237    1.9346118    0.9892483  
H   -0.2170646   -0.1815267    5.4753125  
H   -2.4487139   -2.0549881    3.3649027  
H    3.2048689    2.6911772    3.3971983  
