60

C    3.3041283    0.0001171   -1.5420418  
C    2.5845377   -0.0004782   -0.3695842  
C    1.2040011   -0.0000010   -0.7283583  
C    1.1422387    0.0006032   -2.1454372  
N    2.4348655    0.0026102   -2.6077457  
C   -0.0655166    0.0008792   -2.8497924  
C   -1.2321758    0.0002321   -2.1101405  
O   -2.4392798    0.0001143   -2.7472530  
C   -1.1911203   -0.0000009   -0.6955271  
O   -2.4371529   -0.0002318   -0.1032872  
C    0.0000000    0.0000000    0.0000000  
H    3.0031535   -0.0000663    0.6222594  
H   -0.1193528    0.0014836   -3.9297473  
H   -3.1132976   -0.0000650   -2.0551803  
H   -2.3200285   -0.0004068    0.8516399  
H    4.3686633    0.0004068   -1.7024274  
C    5.6587049   -2.1482577   -4.5997605  
C    5.5107229   -1.7555993   -5.8864228  
C    4.3729248   -0.8490970   -5.8734377  
C    3.9446822   -0.8087297   -4.4586716  
N    4.6947132   -1.5682543   -3.7072961  
C    2.8310686   -0.0116229   -4.0232742  
C    2.1753270    0.7125516   -4.9586395  
O    1.1191558    1.5001773   -4.6937094  
C    2.5836206    0.6930782   -6.3942852  
O    1.9410908    1.3768911   -7.1910134  
C    3.7292216   -0.1325940   -6.8159344  
H    0.8721742    1.8818755   -5.5553699  
H    3.9932695   -0.1192724   -7.8649015  
H    6.3942996   -2.8231078   -4.1917764  
C    7.2357408   -5.6172522   -7.0676460  
C    7.8385893   -5.2487554   -8.2273264  
C    7.5780466   -3.8401166   -8.4081302  
C    6.7682097   -3.4151055   -7.2504081  
N    6.5954358   -4.5390183   -6.4759027  
C    6.3164885   -2.1510981   -7.0505634  
C    6.6499963   -1.1419478   -8.0419883  
O    6.2901246    0.0245564   -7.9521998  
C    7.5064208   -1.5697903   -9.2762062  
O    7.7931978   -0.7289458  -10.1176332  
C    7.9352275   -2.9622148   -9.3817049  
H    8.4013939   -5.8905244   -8.8815412  
H    8.5280730   -3.2502779  -10.2391884  
H    7.2051821   -6.5858362   -6.5956273  
H    6.0847533   -4.5706334   -5.6126234  
C    2.4951002    2.0940188    2.9809380  
C    1.9440701    1.6314916    1.8291961  
C    0.8759964    0.7350050    2.2038498  
C    0.8497377    0.7130254    3.6788474  
N    1.8560616    1.5571714    4.0882609  
C   -0.0205033   -0.0168748    4.4215661  
C   -0.9962600   -0.8356168    3.7214979  
O   -1.8224391   -1.5286685    4.3006425  
C   -0.9864710   -0.8277881    2.1595606  
O   -1.8030528   -1.5133726    1.5592035  
C    0.0000000    0.0000000    1.4700000  
H    2.2509283    1.8888011    0.8310761  
H   -0.0229599   -0.0187323    5.5027230  
H    3.3143982    2.7817323    3.1139444  
H    2.0889452    1.7545833    5.0442112  
