58

C    3.4193782   -0.7262635   -7.2681487  
C    4.6926237   -0.5099148   -7.6878076  
C    4.6198954    0.4158918   -8.7934418  
C    3.1896572    0.7234026   -8.9848708  
N    2.5152334   -0.0008762   -8.0291188  
C    2.7040446    1.5628108   -9.9342283  
C    3.6533699    2.2061665  -10.8272062  
O    3.3151122    2.9785829  -11.7144816  
C    5.1728658    1.8948574  -10.6427550  
O    5.9814788    2.4303690  -11.3888320  
C    5.5748318    0.9730113   -9.5832848  
H    5.5813339   -0.9489296   -7.2705869  
H    1.6510872    1.7748335  -10.0576648  
H    6.6288181    0.7629162   -9.4620517  
H    3.0654777   -1.3547599   -6.4671264  
C   -0.0307354   -0.0004645   -4.4215603  
C    1.0209938   -0.0006518   -5.2805949  
C    0.4733361   -0.0007738   -6.6165986  
C   -0.9941877   -0.0006121   -6.4644009  
N   -1.2345439   -0.0008268   -5.1097353  
C   -1.8743241   -0.0002659   -7.4973894  
C   -1.3406216   -0.0002634   -8.8493122  
O   -2.0512423   -0.0000274   -9.8459671  
C    0.2104061   -0.0006851   -9.0340223  
O    0.6713883   -0.0009936  -10.1674938  
C    1.0569891   -0.0007575   -7.8435816  
H    2.0616762   -0.0008815   -5.0093135  
H   -2.9472234   -0.0000222   -7.3639817  
H   -2.1443165    0.0007705   -4.6862281  
C    3.2573669   -0.0002919   -1.5109381  
C    2.5379467   -0.0001709   -0.3591962  
C    1.1435042    0.0000332   -0.7338501  
C    1.1092607   -0.0000081   -2.2088477  
N    2.4227561    0.0001910   -2.6182614  
C   -0.0265534   -0.0002522   -2.9515663  
C   -1.3003036   -0.0002639   -2.2514981  
O   -2.3786785   -0.0004131   -2.8306428  
C   -1.2877726    0.0000312   -0.6895608  
O   -2.3539957    0.0003306   -0.0892035  
C    0.0000000    0.0000000    0.0000000  
H    2.9384091   -0.0000368    0.6389238  
H    4.3270391   -0.0004764   -1.6439447  
H    2.7280492   -0.0013405   -3.5742114  
C    2.4951002    2.0940188    2.9809380  
C    1.9440701    1.6314916    1.8291961  
C    0.8759964    0.7350050    2.2038498  
C    0.8497377    0.7130254    3.6788474  
N    1.8560616    1.5571714    4.0882609  
C   -0.0205033   -0.0168748    4.4215661  
C   -0.9962600   -0.8356168    3.7214979  
O   -1.8224391   -1.5286685    4.3006425  
C   -0.9864710   -0.8277881    2.1595606  
O   -1.8030528   -1.5133726    1.5592035  
C    0.0000000    0.0000000    1.4700000  
H    2.2509283    1.8888011    0.8310761  
H   -0.0229599   -0.0187323    5.5027230  
H    3.3143982    2.7817323    3.1139444  
H    2.0889452    1.7545833    5.0442112  
