58

C    0.2914229    0.0049628   -8.8402516  
C    1.3208603   -0.6694518   -9.4142714  
C    1.3275224   -0.3155130  -10.8140998  
C    0.2095839    0.6271673  -11.0099520  
N   -0.3784379    0.7791966   -9.7754458  
C   -0.1185093    1.1945674  -12.1982774  
C    0.6827742    0.8539111  -13.3620794  
O    0.4673471    1.3122627  -14.4764417  
C    1.8714316   -0.1425617  -13.1778507  
O    2.5529210   -0.4370955  -14.1505182  
C    2.1272602   -0.6884541  -11.8472846  
H    1.9981337   -1.3386555   -8.9141918  
H   -0.9424900    1.8838159  -12.3203541  
H    2.9522719   -1.3775708  -11.7281321  
H   -1.1707690    1.3642067   -9.5830347  
C    1.7704314   -2.0997834   -5.2515180  
C    1.5928583   -1.6333171   -6.5144322  
C    0.4607459   -0.7379013   -6.4771945  
C   -0.0100423   -0.7207978   -5.0790327  
N    0.8257126   -1.5670941   -4.3875221  
C   -1.0641734    0.0073898   -4.6315339  
C   -1.7831600    0.8289562   -5.5910244  
O   -2.7459474    1.5206786   -5.2862925  
C   -1.3021138    0.8259146   -7.0770896  
O   -1.8998116    1.5134379   -7.8939923  
C   -0.1528623    0.0000279   -7.4390070  
H    2.1870132   -1.8876247   -7.3740374  
H    2.5118287   -2.7880443   -4.8793388  
H    0.7607706   -1.7654786   -3.4059556  
C    1.1319248    0.0015675   -0.8009270  
C    0.7969916    0.0034959   -2.1169404  
C   -0.6453336    0.0035703   -2.1842672  
C   -1.1266831    0.0015415   -0.7896027  
N    0.0000000    0.0000000    0.0000000  
C   -2.4346129    0.0013924   -0.4276297  
C   -3.4350110    0.0031352   -1.4820184  
O   -4.6384610    0.0030897   -1.2583919  
C   -2.9478958    0.0050460   -2.9661075  
O   -3.7809377    0.0062160   -3.8623775  
C   -1.5113821    0.0053068   -3.2312125  
H    1.4821240    0.0045436   -2.9459192  
H   -2.7664565    0.0000185    0.6013447  
H    2.1104318    0.0009428   -0.3488058  
C    0.0000000    0.0000000    1.4700000  
C    1.0662921    0.0000102    2.3034270  
C    0.4961870   -0.0000064    3.6418889  
C   -0.9663858    0.0000850    3.4240247  
N   -1.2632773    0.0000084    2.1528658  
C   -1.8985362    0.0000517    4.5177257  
C   -1.3925775   -0.0004564    5.7720543  
O   -2.1456383   -0.0005410    6.8851312  
C    0.0786232   -0.0009323    6.0245000  
O    0.4683759   -0.0012588    7.1921102  
C    1.0143166   -0.0008442    4.8859032  
H    2.1107198   -0.0000632    2.0421868  
H   -2.9622183    0.0003270    4.3293377  
H   -1.5042274   -0.0009692    7.6184419  
H    2.0724152   -0.0013148    5.1109744  
