62

C    0.0000000    0.0000000    0.0000000  
C    1.0521663   -0.0011902   -0.8862345  
C    0.4917215   -0.0011956   -2.1979133  
C   -0.9187430    0.0003149   -2.0478683  
N   -1.1833172   -0.0009411   -0.7007910  
C   -1.7951704    0.0010351   -3.1372088  
C   -1.2375840    0.0005226   -4.4010423  
O   -2.0474221    0.0015361   -5.4997580  
C    0.1673576   -0.0013565   -4.5711965  
O    0.5673516   -0.0020685   -5.8915550  
C    1.0325767   -0.0023411   -3.4969892  
H    2.0953056   -0.0030649   -0.6200563  
H   -2.0989778    0.0102372   -0.2891821  
H   -1.4634890    0.0006499   -6.2693592  
H    1.5290706   -0.0033151   -5.9180044  
C   -4.5382432    2.1273441   -0.3186947  
C   -3.4269652    1.6642215   -0.9843126  
C   -3.8900509    0.7769057   -2.0005914  
C   -5.3047972    0.7380662   -1.9061941  
N   -5.6653153    1.5677425   -0.8735850  
C   -6.0984769   -0.0377255   -2.7564927  
C   -5.4522252   -0.7877412   -3.7198273  
O   -6.1789713   -1.5628758   -4.5765772  
C   -4.0414998   -0.7624929   -3.8295256  
O   -3.5480024   -1.5637039   -4.8384183  
C   -3.2578654    0.0024039   -2.9908502  
H   -2.4078449    1.9320309   -0.7637133  
H   -6.6071042    1.7500065   -0.5772840  
H   -7.1771657   -0.0717845   -2.6896186  
H   -5.5421618   -1.9965803   -5.1593622  
H   -2.5888282   -1.4891819   -4.8443292  
H   -4.6159809    2.8114593    0.5088938  
C    2.4861696   -0.0045381   -3.7159924  
C    3.4897067   -0.0059405   -2.8011226  
C    4.7313099   -0.0078381   -3.5381797  
C    4.3662414   -0.0073941   -4.9676956  
N    2.9909940   -0.0057670   -5.0074607  
C    5.2594866   -0.0083968   -5.9893690  
C    6.6748990   -0.0102480   -5.6590064  
O    7.5569779   -0.0113207   -6.5076742  
C    7.0843353   -0.0110003   -4.1516358  
O    8.2730115   -0.0128635   -3.8612819  
C    6.0304246   -0.0095093   -3.1401409  
H    3.3734529   -0.0058581   -1.7319645  
H    4.9706890   -0.0079170   -7.0312449  
H    6.3222875   -0.0098370   -2.0987282  
H    2.4390579   -0.0035501   -5.8455590  
C    0.0000000    0.0000000    1.4700000  
C    1.0662921    0.0000102    2.3034270  
C    0.4961870   -0.0000064    3.6418889  
C   -0.9663858    0.0000850    3.4240247  
N   -1.2632773    0.0000084    2.1528658  
C   -1.8985362    0.0000517    4.5177257  
C   -1.3925775   -0.0004564    5.7720543  
O   -2.1456383   -0.0005410    6.8851312  
C    0.0786232   -0.0009323    6.0245000  
O    0.4683759   -0.0012588    7.1921102  
C    1.0143166   -0.0008442    4.8859032  
H    2.1107198   -0.0000632    2.0421868  
H   -2.9622183    0.0003270    4.3293377  
H   -1.5042274   -0.0009692    7.6184419  
H    2.0724152   -0.0013148    5.1109744  
