60

C    1.1188646    0.0008226   -0.8003804  
C    0.0000000    0.0000000    0.0000000  
C   -1.1323862    0.0008896   -0.8673522  
C   -0.6382659    0.0019677   -2.1969274  
N    0.7324021    0.0038484   -2.1202236  
C   -1.4770910    0.0027315   -3.3154805  
C   -2.8395469    0.0020939   -3.0876856  
O   -3.7039197    0.0024417   -4.1440350  
C   -3.3517869    0.0013922   -1.7684325  
O   -4.7300491    0.0012352   -1.7073121  
C   -2.5248542    0.0009116   -0.6644816  
H    1.3576318   -0.0056163   -2.9057038  
H   -4.5940029    0.0021815   -3.7685127  
H   -4.9934600    0.0007250   -0.7819914  
H   -2.9462576    0.0005593    0.3339654  
H    2.1619893    0.0009359   -0.5342063  
C    0.1166616   -0.7214345   -5.1522985  
C    0.3273818   -0.5035452   -6.4760040  
C   -0.6880510    0.4234399   -6.9169464  
C   -1.5135277    0.7299635   -5.7331297  
N   -0.9736292    0.0040463   -4.6965760  
C   -2.5793559    1.5700278   -5.7355905  
C   -2.9375154    2.2151825   -6.9878017  
O   -3.8806689    2.9883095   -7.0928594  
C   -2.0773313    1.9049433   -8.2541505  
O   -2.3694869    2.4419715   -9.3141069  
C   -0.9520259    0.9822472   -8.1269833  
H   -3.1715411    1.7813044   -4.8560518  
H   -0.3613266    0.7729020   -9.0084441  
H    0.6660045   -1.3511262   -4.4714163  
C    2.2144044   -4.5304161   -6.7724779  
C    1.4123116   -3.5160817   -6.3732895  
C    1.8002056   -2.3835651   -7.1999963  
C    2.8792262   -2.9061874   -8.0655394  
N    3.1263543   -4.1641238   -7.8195465  
C    3.5385741   -2.0821996   -9.0409319  
C    3.1379186   -0.7947454   -9.1471001  
O    3.6652828    0.0863716  -10.0140262  
C    2.0515081   -0.2378848   -8.2881596  
O    1.7382954    0.9429327   -8.4391201  
C    1.3906262   -1.1032347   -7.2950185  
H    0.6513405   -3.5341783   -5.6119279  
H    4.3241405   -2.4903400   -9.6599779  
H    3.1771772    0.9141874   -9.8539393  
H    2.2391553   -5.5428098   -6.4017756  
C    2.5128556    2.1077716    2.9199648  
C    1.9592212    1.6432552    4.0696553  
C    0.8915788    0.7479214    3.6910360  
C    0.8684491    0.7287414    2.2159470  
N    1.8754542    1.5738793    1.8102719  
C    0.0000000    0.0000000    1.4700000  
C   -0.9772830   -0.8200135    2.1664417  
O   -1.8021297   -1.5120829    1.5842315  
C   -0.9711318   -0.8147624    3.7284083  
O   -1.7894187   -1.5009653    4.3257297  
C    0.0140216    0.0115358    4.4216297  
H    2.2638494    1.8988021    5.0689105  
H    0.0117648    0.0094386    5.5031631  
H    3.3327358    2.7953732    2.7900019  
H    2.1123206    1.7707734    0.8551938  
