58

C    0.0139748    0.0003878   -4.4216235  
C    1.0657035    0.0015281   -5.2806580  
C    0.5180458    0.0012343   -6.6166623  
C   -0.9494775   -0.0001516   -6.4644643  
N   -1.1898324   -0.0010074   -5.1097989  
C   -1.8296139   -0.0004060   -7.4974523  
C   -1.2959114    0.0005369   -8.8493757  
O   -2.0065327    0.0003354   -9.8460292  
C    0.2551158    0.0017579   -9.0340856  
O    0.7160978    0.0022519  -10.1675554  
C    1.1016984    0.0022060   -7.8436445  
H    2.1063855    0.0022855   -5.0093766  
H   -2.9025123   -0.0013004   -7.3640453  
H    2.1745864    0.0032574   -7.9801510  
H   -2.0996060   -0.0004653   -4.6862914  
C    3.2798089    0.0005856   -1.4499642  
C    2.5571149    0.0005566   -2.5996548  
C    1.1637440    0.0001548   -2.2210358  
C    1.1336966   -0.0000200   -0.7459468  
N    2.4483517   -0.0001428   -0.3402714  
C    0.0000000    0.0000000    0.0000000  
C   -1.2757362   -0.0000187   -0.6964415  
O   -2.3524596   -0.0000640   -0.1142317  
C   -1.2676489   -0.0000874   -2.2584083  
O   -2.3355758   -0.0004101   -2.8557300  
C    0.0181567    0.0001759   -2.9516296  
H    2.9547363    0.0006074   -3.5989101  
H    2.7563627    0.0012824    0.6148067  
C    6.8068836    0.0035024   -4.1746982  
C    5.5278604    0.0022333   -3.7323449  
C    5.6328285    0.0014351   -2.2813170  
C    7.0869601    0.0022987   -2.0128311  
N    7.7802422    0.0035925   -3.1188818  
C    7.6138029    0.0019128   -0.6758484  
C    6.7282255    0.0011072    0.3464465  
O    7.0793816    0.0006616    1.6436474  
C    5.2547120    0.0005947    0.1078717  
O    4.5071913   -0.0002587    1.0858454  
C    4.7390854    0.0009614   -1.2727274  
H    4.6247057    0.0019724   -4.3183375  
H    8.6810612    0.0023570   -0.5089097  
H    6.2347352    0.0001391    2.1291635  
H    7.1567970    0.0044019   -5.1947640  
C    0.8400945    0.7047457    2.2710304  
C    0.0000000    0.0000000    1.4700000  
C   -0.8844236   -0.7423113    2.3369512  
C   -0.4878984   -0.4098547    3.7186280  
N    0.5629682    0.4714286    3.6095011  
C   -1.0836927   -0.9095027    4.8308716  
C   -2.1891196   -1.8367527    4.6554461  
O   -2.7906899   -2.3413415    5.5944904  
C   -2.6257283   -2.2031529    3.2011665  
O   -3.5549479   -2.9829990    3.0410059  
C   -1.9068976   -1.5999348    2.0816745  
H   -0.7774656   -0.6525820    5.8354244  
H   -2.2155208   -1.8586617    1.0779135  
H    1.6384792    1.3747609    1.9961646  
H    1.0518368    0.8833920    4.3830260  
