58

C    5.8392102   -1.1103929   -6.2988424  
C    6.7846695   -1.9824380   -5.8632745  
C    7.6504992   -2.2595852   -6.9850435  
C    7.1282359   -1.4718506   -8.1179624  
N    6.0297526   -0.7978928   -7.6362939  
C    7.6714654   -1.4601147   -9.3615340  
C    8.8489795   -2.2780767   -9.6001458  
O    9.4114169   -2.3353005  -10.6858193  
C    9.4189787   -3.1206042   -8.4147955  
O   10.4097850   -3.8133131   -8.6037931  
C    8.7466926   -3.0510014   -7.1197903  
H    6.8661316   -2.3856837   -4.8696101  
H    7.2728545   -0.8750351  -10.1786640  
H    9.1477527   -3.6372262   -6.3041842  
H    5.4561571   -0.1734627   -8.1730640  
C    4.4169309   -0.7262692   -4.2519971  
C    4.7208615   -0.5096739   -5.5576722  
C    3.7394659    0.4171465   -6.0702171  
C    2.8323824    0.7249833   -4.9480643  
N    3.2973506   -0.0000934   -3.8752374  
C    1.7696619    1.5653070   -5.0267138  
C    1.5012132    2.2093745   -6.3017228  
O    0.5680988    2.9826342   -6.4739682  
C    2.4487563    1.8977358   -7.5037412  
O    2.2325066    2.4338409   -8.5822068  
C    3.5619542    0.9748830   -7.2964134  
H    1.1167873    1.7775543   -4.1914795  
H    4.2134827    0.7645654   -8.1336704  
H    4.9165185   -1.3554568   -3.5333701  
C    3.3321174    0.0004714   -1.3379332  
C    2.6974186    0.0000115   -2.5332308  
C    1.2800441   -0.0002119   -2.2052838  
C    1.2395035    0.0000643   -0.7271293  
N    2.4394063    0.0005458   -0.2131034  
C    0.0000000    0.0000000    0.0000000  
C   -1.1468701    0.0000634   -0.7169542  
O   -2.3742201    0.0000072   -0.1695492  
C   -1.1388767    0.0001606   -2.2096354  
O   -2.2206229    0.0000903   -2.7970413  
C    0.1454526    0.0001815   -2.9324239  
H   -2.9844344    0.0001023   -0.9290168  
H    0.1083580    0.0003680   -4.0135594  
H    4.3940040    0.0007617   -1.1498630  
C    2.5528530    2.1414826    2.8079335  
C    2.0663498    1.7338582    4.0032312  
C    0.9804344    0.8229586    3.6752840  
C    0.9495562    0.7966882    2.1971295  
N    1.8690446    1.5676019    1.6831036  
C    0.0000000    0.0000000    1.4700000  
C   -0.8785127   -0.7372425    2.1869543  
O   -1.8187535   -1.5261249    1.6395491  
C   -0.8723269   -0.7321790    3.6796354  
O   -1.7010379   -1.4274584    4.2670412  
C    0.1115397    0.0933559    4.4024240  
H    2.4028853    2.0163452    4.9860947  
H   -2.2861435   -1.9184361    2.3990168  
H    0.0832434    0.0693689    5.4835595  
H    3.3664920    2.8238276    2.6198634  
