58

C    2.8349221    0.0005882   -7.1268112  
C    3.3973684    0.0013146   -5.8907979  
C    4.8288581    0.0010243   -6.0796716  
C    5.0559083    0.0000916   -7.5374912  
N    3.8073168   -0.0005319   -8.1153386  
C    6.2791810   -0.0000247   -8.1251208  
C    7.4503185    0.0005992   -7.2643224  
O    8.5952318    0.0004899   -7.6973064  
C    7.2334116    0.0013383   -5.7174691  
O    8.2118609    0.0015610   -4.9826927  
C    5.8664471    0.0016770   -5.2024341  
H    2.8696825    0.0017957   -4.9536959  
H    6.4237722   -0.0005852   -9.1965699  
H    5.7248563    0.0023941   -4.1302052  
H    3.6298009    0.0003303   -9.1030302  
C   -0.8712823    0.0001712   -4.7267111  
C    0.4246872    0.0002197   -5.1323438  
C    0.4138928    0.0002760   -6.5761997  
C   -1.0047698    0.0002856   -6.9813994  
N   -1.7322696   -0.0001788   -5.8136521  
C   -1.4369651    0.0007304   -8.2678333  
C   -0.4382355    0.0010072   -9.3238034  
O   -0.7266349    0.0013503  -10.5133951  
C    1.0700325    0.0007503   -8.9176837  
O    1.9199277    0.0006732   -9.7979906  
C    1.4124577    0.0005499   -7.4976145  
H    1.2895154    0.0000339   -4.4930585  
H   -2.4823848    0.0008590   -8.5435282  
H   -2.7343167    0.0012687   -5.7593670  
C    1.0965515    0.0001358   -0.8010304  
C    0.0000000    0.0000000    0.0000000  
C   -1.1546562    0.0001470   -0.8669514  
C   -0.6372012    0.0003520   -2.2486282  
N    0.7342873    0.0007338   -2.1395014  
C   -1.4147737    0.0001354   -3.3608717  
C   -2.8576047   -0.0001047   -3.1854463  
O   -3.6427778   -0.0002491   -4.1244908  
C   -3.4275837   -0.0000725   -1.7311667  
O   -4.6406828    0.0000333   -1.5710061  
C   -2.4891866   -0.0001090   -0.6116745  
H   -2.8919121   -0.0002919    0.3920865  
H    2.1388272    0.0000662   -0.5261647  
H    1.3735873   -0.0006098   -2.9130261  
C    0.8175213    0.6860729    2.3021913  
C    0.0000000    0.0000000    1.4700000  
C   -0.8887526   -0.7456559    2.3478473  
C   -0.4549825   -0.3816753    3.7138435  
N    0.5448156    0.4573574    3.6934124  
C   -1.0945674   -0.9182058    4.8835240  
C   -2.1210866   -1.7789155    4.6970523  
O   -2.8083856   -2.3554314    5.6976972  
C   -2.5824069   -2.1655116    3.3310774  
O   -3.5227682   -2.9541547    3.2362962  
C   -1.9100805   -1.6015804    2.1470656  
H   -0.7567140   -0.6349833    5.8697035  
H   -3.4728268   -2.9124471    5.2533954  
H   -2.2742832   -1.9066565    1.1752040  
H    1.6189533    1.3585343    2.0405121  
