58

C    0.8353407   -0.7266722   -5.2248496  
C    0.5761897   -0.5101812   -6.5401622  
C   -0.5291500    0.4165998   -6.6044784  
C   -0.8953242    0.7245273   -5.2088111  
N   -0.0307359   -0.0004648   -4.4215606  
C   -1.8966041    1.5648462   -4.8441094  
C   -2.6650489    2.2088125   -5.8964093  
O   -3.5865974    2.9820599   -5.6702711  
C   -2.2947869    1.8970770   -7.3815126  
O   -2.9349117    2.4330964   -8.2760428  
C   -1.1946309    0.9742393   -7.6496151  
H    1.0994937   -0.9497145   -7.3705699  
H   -2.1488378    1.7771609   -3.8144438  
H   -0.9444559    0.7638543   -8.6805735  
H    1.5860162   -1.3558034   -4.7747714  
C    3.2573667   -0.0002920   -1.5109386  
C    2.5379466   -0.0001709   -0.3591965  
C    1.1435040    0.0000332   -0.7338503  
C    1.1092604   -0.0000083   -2.2088478  
N    2.4227557    0.0001908   -2.6182616  
C   -0.0265538   -0.0002523   -2.9515663  
C   -1.3003040   -0.0002641   -2.2514979  
O   -2.3786787   -0.0004133   -2.8306426  
C   -1.2877728    0.0000312   -0.6895607  
O   -2.3539959    0.0003306   -0.0892033  
C    0.0000000    0.0000000    0.0000000  
H    2.9384091   -0.0000368    0.6389234  
H    2.7280486   -0.0013408   -3.5742120  
C    5.6736563   -0.0009559   -0.7359126  
C    4.7161330   -0.0005435   -1.6923266  
C    5.4441199   -0.0005498   -2.9519033  
C    6.8695484   -0.0008931   -2.5585359  
N    7.0103274   -0.0012129   -1.2607798  
C    7.9272784   -0.0010476   -3.5313123  
C    7.5769324   -0.0012564   -4.8376783  
O    8.4592366   -0.0014099   -5.8513743  
C    6.1471277   -0.0012908   -5.2664177  
O    5.9016317   -0.0013613   -6.4726315  
C    5.0804441   -0.0010861   -4.2495053  
H    8.9603207   -0.0010922   -3.2155065  
H    7.9113444   -0.0015669   -6.6569586  
H    4.0573864   -0.0012338   -4.6010479  
H    5.5430687   -0.0010922    0.3345641  
C    0.8681109    0.7263879    2.2709268  
C    0.6127770    0.5096195    3.5869401  
C   -0.4920590   -0.4175482    3.6542670  
C   -0.8620974   -0.7254003    2.2596025  
N    0.0000000    0.0000000    1.4700000  
C   -1.8641242   -1.5660088    1.8976294  
C   -2.6293522   -2.2103885    2.9520183  
O   -3.5512764   -2.9839180    2.7283916  
C   -2.2549728   -1.8987399    4.4361073  
O   -2.8923672   -2.4351063    5.3323774  
C   -1.1543735   -0.9755647    4.7012123  
H    1.1382914    0.9492124    4.4159191  
H   -2.1192137   -1.7782617    0.8686553  
H   -0.9013378   -0.7652422    5.7314848  
H    1.6172880    1.3558399    1.8188057  
