58

C    2.8497505   -0.7283608   -3.3359964  
C    3.4914347   -0.5134529   -4.5133372  
C    2.6832183    0.4131987   -5.2702641  
C    1.5096744    0.7227757   -4.4313672  
N    1.6707645   -0.0012351   -3.2725971  
C    0.5071672    1.5634827   -4.7917776  
C    0.5893852    2.2061555   -6.0928339  
O   -0.2632806    2.9796294   -6.5087679  
C    1.8232414    1.8926640   -6.9978898  
O    1.9032044    2.4275843   -8.0954898  
C    2.8399733    0.9695582   -6.4999101  
H   -0.3448590    1.7770150   -4.1614087  
H    3.6912445    0.7579535   -7.1325907  
H    3.1388492   -1.3569186   -2.5094211  
C    1.0965515    0.0001357   -0.8010303  
C    0.0000000    0.0000000    0.0000000  
C   -1.1546560    0.0001466   -0.8669515  
C   -0.6372014    0.0003513   -2.2486280  
N    0.7342874    0.0007332   -2.1395011  
C   -1.4147736    0.0001344   -3.3608717  
C   -2.8576045   -0.0001056   -3.1854464  
O   -3.6427775   -0.0002505   -4.1244904  
C   -3.4275838   -0.0000734   -1.7311669  
O   -4.6406825    0.0000325   -1.5710062  
C   -2.4891865   -0.0001094   -0.6116745  
H   -1.0150446    0.0001604   -4.3654245  
H   -2.8919121   -0.0002923    0.3920864  
H    2.1388272    0.0000662   -0.5261646  
C    5.1029396   -4.5686007   -4.0212329  
C    6.3033623   -4.4094748   -4.6358379  
C    6.3663400   -3.0397741   -5.0883745  
C    5.0951043   -2.4094408   -4.6841091  
N    4.3736746   -3.3894170   -4.0421782  
C    4.7666285   -1.1155540   -4.9283741  
C    5.7292963   -0.2886399   -5.6369069  
O    5.5268198    0.8884950   -5.9045973  
C    7.0819682   -0.9354789   -6.0747243  
O    7.9001239   -0.2492141   -6.6721536  
C    7.3220738   -2.3403008   -5.7542929  
H    7.0584702   -5.1653913   -4.7583771  
H    8.2612096   -2.7805645   -6.0607497  
H    4.6895916   -5.4481523   -3.5549472  
H    3.4591876   -3.2663629   -3.6476931  
C    2.5128556    2.1077716    2.9199648  
C    1.9592212    1.6432552    4.0696553  
C    0.8915788    0.7479214    3.6910360  
C    0.8684491    0.7287414    2.2159470  
N    1.8754542    1.5738793    1.8102719  
C    0.0000000    0.0000000    1.4700000  
C   -0.9772830   -0.8200135    2.1664417  
O   -1.8021297   -1.5120829    1.5842315  
C   -0.9711318   -0.8147624    3.7284083  
O   -1.7894187   -1.5009653    4.3257297  
C    0.0140216    0.0115358    4.4216297  
H    2.2638494    1.8988021    5.0689105  
H    0.0117648    0.0094386    5.5031631  
H    3.3327358    2.7953732    2.7900019  
H    2.1123206    1.7707734    0.8551938  
