64

C    3.3003558    0.0005277   -1.4738965  
C    2.5232833    0.0003499   -2.6090730  
C    1.1623222   -0.0001318   -2.1820092  
C    1.1711891    0.0000584   -0.7636132  
N    2.4852306   -0.0014919   -0.3662342  
C    0.0000000    0.0000000    0.0000000  
C   -1.2020379    0.0000521   -0.6806485  
O   -2.3759245    0.0003495    0.0157732  
C   -1.2314636   -0.0005111   -2.0955515  
O   -2.5054372   -0.0008035   -2.6250194  
C   -0.0764493   -0.0007270   -2.8495195  
H    2.8919983   -0.0005617   -3.6205280  
H    2.8036262    0.0088181    0.5858683  
H   -3.0835632    0.0000348   -0.6418837  
H   -2.4360019   -0.0011525   -3.5845935  
H   -0.1304067   -0.0013419   -3.9319088  
C    6.5582239    0.0029729   -4.4647435  
C    7.6103908    0.0023861   -3.5785091  
C    7.0499451    0.0016139   -2.2668308  
C    5.6394797    0.0014822   -2.4168767  
N    5.3749078    0.0042717   -3.7639519  
C    4.7630518    0.0004756   -1.3275370  
C    5.3206374   -0.0007212   -0.0637039  
O    4.5107978   -0.0020884    1.0350105  
C    6.7255798   -0.0002355    0.1064516  
O    7.1255739   -0.0011496    1.4268105  
C    7.5908002    0.0010306   -0.9677543  
H    8.6535308    0.0036057   -3.8446851  
H    4.4592377   -0.0057078   -4.1755712  
H    5.0947313   -0.0024569    1.8046121  
H    8.0872931   -0.0007698    1.4532610  
H    6.5582248    0.0040135   -5.5412935  
C   10.8772904    2.1254513   -3.0280211  
C   11.9113928    1.6261823   -2.2705061  
C   11.3342466    0.7507229   -1.3035138  
C    9.9327075    0.7555943   -1.5216654  
N    9.6890794    1.6020215   -2.5746722  
C    9.0443948    0.0017445   -0.7487495  
C    9.5807268   -0.7713370    0.2626212  
O    8.7585827   -1.5271626    1.0473637  
C   10.9764373   -0.7891519    0.4960537  
O   11.3550610   -1.6083250    1.5395785  
C   11.8533461   -0.0455029   -0.2658800  
H   12.9534114    1.8645961   -2.3983702  
H    8.7848113    1.7985177   -2.9641192  
H    9.3283789   -1.9818860    1.6812589  
H   12.3117897   -1.5629189    1.6301955  
H   12.9174595   -0.0792223   -0.0633826  
H   10.8931402    2.8146216   -3.8549144  
C    0.8400945    0.7047457    2.2710304  
C    0.0000000    0.0000000    1.4700000  
C   -0.8844236   -0.7423113    2.3369512  
C   -0.4878984   -0.4098547    3.7186280  
N    0.5629682    0.4714286    3.6095011  
C   -1.0836927   -0.9095027    4.8308716  
C   -2.1891196   -1.8367527    4.6554461  
O   -2.7906899   -2.3413415    5.5944904  
C   -2.6257283   -2.2031529    3.2011665  
O   -3.5549479   -2.9829990    3.0410059  
C   -1.9068976   -1.5999348    2.0816745  
H   -0.7774656   -0.6525820    5.8354244  
H   -2.2155208   -1.8586617    1.0779135  
H    1.6384792    1.3747609    1.9961646  
H    1.0518368    0.8833920    4.3830260  
