58

C    2.4818862   -3.0569239   -9.0114730  
C    2.1528770   -1.8455355   -8.4934327  
C    2.1474930   -0.9061519   -9.5899566  
C    2.5028551   -1.6750813  -10.7979527  
N    2.6932109   -2.9717488  -10.3792542  
C    2.6042039   -1.1464208  -12.0437267  
C    2.3462782    0.2747841  -12.2055487  
O    2.4120161    0.8448127  -13.2867745  
C    1.9685720    1.1085157  -10.9398337  
O    1.7494885    2.3059816  -11.0636819  
C    1.8903619    0.4266557   -9.6503372  
H    2.8660820   -1.7280956  -12.9166437  
H    1.6280276    1.0110243   -8.7788918  
H    2.5879611   -4.0046761   -8.5090751  
H    2.9447190   -3.7385331  -10.9757717  
C    2.5365542   -2.0936798   -5.9975195  
C    2.0254114   -1.6312727   -4.8274822  
C    0.9452519   -0.7345686   -5.1651398  
C    0.8684328   -0.7123308   -6.6383657  
N    1.8600001   -1.5565500   -7.0821879  
C   -0.0266561    0.0178219   -7.3506841  
C   -0.9777112    0.8365829   -6.6174311  
O   -1.8231604    1.5298522   -7.1677880  
C   -0.9143687    0.8284832   -5.0567494  
O   -1.7097814    1.5140808   -4.4286288  
C    0.0950446    0.0004351   -4.4015596  
H    2.3662772   -1.8887983   -3.8405144  
H   -0.0661850    0.0198663   -8.4311199  
H    3.3507072   -2.7814877   -6.1586571  
C    3.3321173    0.0004713   -1.3379338  
C    2.6974181    0.0000116   -2.5332314  
C    1.2800438   -0.0002119   -2.2052841  
C    1.2395034    0.0000643   -0.7271299  
N    2.4394062    0.0005460   -0.2131038  
C    0.0000000    0.0000000    0.0000000  
C   -1.1468702    0.0000634   -0.7169543  
O   -2.3742203    0.0000074   -0.1695487  
C   -1.1388770    0.0001607   -2.2096355  
O   -2.2206234    0.0000905   -2.7970411  
C    0.1454522    0.0001815   -2.9324241  
H    3.1367984   -0.0000653   -3.5160950  
H   -2.9844346    0.0001026   -0.9290167  
H    4.3940038    0.0007618   -1.1498640  
C    2.3971438    2.0127888    3.1728260  
C    1.9431056    1.6308205    1.9564670  
C    0.8496017    0.7127664    2.2356185  
C    0.7794028    0.6545384    3.7115134  
N    1.6840587    1.4146091    4.2663826  
C   -0.1885723   -0.1578550    4.3957118  
C   -1.0476298   -0.8789867    3.6398520  
O   -2.0015663   -1.6796266    4.1448486  
C   -1.0022026   -0.8410666    2.1483229  
O   -1.8147390   -1.5232959    1.5241687  
C    0.0000000    0.0000000    1.4700000  
H    2.3054237    1.9346118    0.9892483  
H   -0.2170646   -0.1815267    5.4753125  
H   -2.4487139   -2.0549881    3.3649027  
H    3.2048689    2.6911772    3.3971983  
