60

C    3.3041280    0.0001177   -1.5420415  
C    2.5845373   -0.0004780   -0.3695841  
C    1.2040010   -0.0000008   -0.7283584  
C    1.1422390    0.0006037   -2.1454369  
N    2.4348650    0.0026109   -2.6077455  
C   -0.0655165    0.0008799   -2.8497918  
C   -1.2321762    0.0002325   -2.1101403  
O   -2.4392806    0.0001149   -2.7472532  
C   -1.1911194   -0.0000007   -0.6955272  
O   -2.4371520   -0.0002319   -0.1032873  
C    0.0000000    0.0000000    0.0000000  
H    3.0031532   -0.0000662    0.6222595  
H    2.7054644   -0.0071098   -3.5745250  
H   -0.1193533    0.0014845   -3.9297474  
H   -3.1132978   -0.0000646   -2.0551798  
H   -2.3200290   -0.0004070    0.8516399  
C    6.7370857   -0.0008256    1.2348688  
C    5.4910170   -0.0006934    0.6950653  
C    5.6537436    0.0002332   -0.7396312  
C    7.1071786    0.0006036   -0.9932397  
N    7.7077097    0.0003270    0.2446023  
C    7.6723934    0.0010656   -2.2270292  
C    6.7903730    0.0014338   -3.3822673  
O    7.2023965    0.0019211   -4.5348893  
C    5.2477335    0.0013035   -3.1371764  
O    4.4952294    0.0019171   -4.1020585  
C    4.7577228    0.0005127   -1.7610441  
H    4.5636975   -0.0010060    1.2397596  
H    7.0279692   -0.0014514    2.2727885  
H    8.6984744   -0.0010837    0.4040690  
C   10.0488311   -0.7253343   -1.7139503  
C   11.3108209   -0.5083130   -2.1660106  
C   11.2095940    0.4192415   -3.2679322  
C    9.7748986    0.7270452   -3.4218710  
N    9.1253596    0.0012503   -2.4501662  
C    9.2649580    1.5679513   -4.3570405  
C   10.1909246    2.2127254   -5.2732201  
O    9.8298915    2.9865426   -6.1502398  
C   11.7146671    1.9011353   -5.1285662  
O   12.5037607    2.4378324   -5.8944311  
C   12.1438322    0.9776164   -4.0812922  
H   12.2099960   -0.9479817   -1.7725771  
H    8.2091708    1.7801623   -4.4529060  
H   13.2005895    0.7673367   -3.9876527  
H    9.7157154   -1.3550996   -0.9050506  
C    2.5128556    2.1077716    2.9199648  
C    1.9592212    1.6432552    4.0696553  
C    0.8915788    0.7479214    3.6910360  
C    0.8684491    0.7287414    2.2159470  
N    1.8754542    1.5738793    1.8102719  
C    0.0000000    0.0000000    1.4700000  
C   -0.9772830   -0.8200135    2.1664417  
O   -1.8021297   -1.5120829    1.5842315  
C   -0.9711318   -0.8147624    3.7284083  
O   -1.7894187   -1.5009653    4.3257297  
C    0.0140216    0.0115358    4.4216297  
H    2.2638494    1.8988021    5.0689105  
H    0.0117648    0.0094386    5.5031631  
H    3.3327358    2.7953732    2.7900019  
H    2.1123206    1.7707734    0.8551938  
