60

C   -1.1241246    0.0242023   -0.7919003  
C   -0.7477745   -0.0007158   -2.1148544  
C    0.6777119   -0.0440780   -2.1414697  
C    1.1193568   -0.0439182   -0.7935545  
N    0.0000000    0.0000000    0.0000000  
C    2.4717445   -0.0815720   -0.4408242  
C    3.3951054   -0.1203957   -1.4675057  
O    4.7287186   -0.1584950   -1.1793466  
C    2.9740661   -0.1208452   -2.8186319  
O    4.0135891   -0.1616361   -3.7247616  
C    1.6400780   -0.0834380   -3.1673480  
H    2.8148392   -0.0815231    0.5845968  
H    5.1907782   -0.1810170   -2.0274369  
H    3.6433148   -0.1590929   -4.6127335  
H    1.3477978   -0.0846114   -4.2109228  
H   -2.1054329    0.0587694   -0.3505408  
C   -1.6631559    0.0166921   -3.2649301  
C   -3.0204256    0.0581527   -3.2781787  
C   -3.4281187    0.0577944   -4.6633219  
C   -2.1882213    0.0123718   -5.4616841  
N   -1.1541403   -0.0104937   -4.5544664  
C   -2.1472035   -0.0018726   -6.8180830  
C   -3.4083987    0.0298619   -7.5398273  
O   -3.4769071    0.0203204   -8.7619222  
C   -4.7337456    0.0784006   -6.7146574  
O   -5.8016849    0.1057179   -7.3113317  
C   -4.6502000    0.0895224   -5.2563204  
H   -3.6627025    0.0860106   -2.4160198  
H   -1.2268911   -0.0354669   -7.3844805  
H   -0.1798273   -0.0440274   -4.7924527  
C   -6.1271366    0.8575509   -3.3619087  
C   -5.9036945    0.1350198   -4.4897819  
C   -7.1268335   -0.5730820   -4.7853477  
C   -8.0880822   -0.2011688   -3.7296623  
N   -7.4201134    0.6679722   -2.8982170  
C   -9.3624623   -0.6614229   -3.6533321  
C   -9.8176437   -1.5848824   -4.6792792  
O  -10.9474973   -2.0553897   -4.6981471  
C   -8.8164243   -1.9926518   -5.8067057  
O   -9.1882331   -2.7697045   -6.6757322  
C   -7.4685402   -1.4300784   -5.7828098  
H  -10.0515262   -0.3759648   -2.8706355  
H   -6.7814561   -1.7172982   -6.5671215  
H   -5.4559541    1.5123996   -2.8303289  
H   -7.8121980    1.0997982   -2.0816121  
C    0.8681109    0.7263879    2.2709268  
C    0.6127770    0.5096195    3.5869401  
C   -0.4920590   -0.4175482    3.6542670  
C   -0.8620974   -0.7254003    2.2596025  
N    0.0000000    0.0000000    1.4700000  
C   -1.8641242   -1.5660088    1.8976294  
C   -2.6293522   -2.2103885    2.9520183  
O   -3.5512764   -2.9839180    2.7283916  
C   -2.2549728   -1.8987399    4.4361073  
O   -2.8923672   -2.4351063    5.3323774  
C   -1.1543735   -0.9755647    4.7012123  
H    1.1382914    0.9492124    4.4159191  
H   -2.1192137   -1.7782617    0.8686553  
H   -0.9013378   -0.7652422    5.7314848  
H    1.6172880    1.3558399    1.8188057  
