58

C    0.0562974    0.2038165   -8.8869372  
C    1.0745890   -0.4540759   -9.4987655  
C    1.0455225   -0.0730995  -10.8911909  
C   -0.0812353    0.8674409  -11.0414964  
N   -0.6397333    0.9925440   -9.7903693  
C   -0.4408011    1.4560268  -12.2102490  
C    0.3334940    1.1420618  -13.3995484  
O    0.0888687    1.6207689  -14.4992283  
C    1.5309165    0.1483274  -13.2636220  
O    2.1898922   -0.1238361  -14.2580768  
C    1.8216022   -0.4218772  -11.9505262  
H    1.7669482   -1.1293409   -9.0283730  
H   -1.2707139    2.1432681  -12.2988733  
H    2.6524740   -1.1089248  -11.8648471  
H   -1.4298647    1.5696479   -9.5674538  
C    1.7371420   -2.0043749   -5.5274506  
C    0.9346265   -1.6238671   -4.5062936  
C   -0.0220099   -0.7047839   -5.1034811  
C    0.3601279   -0.6444240   -6.5306852  
N    1.3906154   -1.4042326   -6.7851963  
C   -0.3537176    0.1694996   -7.4756927  
C   -1.4019189    0.8900579   -7.0159054  
O   -2.1569104    1.6919661   -7.7859522  
C   -1.8124079    0.8499980   -5.5813134  
O   -2.7762301    1.5318137   -5.2328955  
C   -1.0641734    0.0073898   -4.6315339  
H    0.9854830   -1.9292388   -3.4751598  
H   -2.8200953    2.0664814   -7.1784361  
H    2.5747581   -2.6829132   -5.4964945  
C    1.1319248    0.0015675   -0.8009270  
C    0.7969916    0.0034959   -2.1169404  
C   -0.6453336    0.0035703   -2.1842672  
C   -1.1266831    0.0015415   -0.7896027  
N    0.0000000    0.0000000    0.0000000  
C   -2.4346129    0.0013924   -0.4276297  
C   -3.4350110    0.0031352   -1.4820184  
O   -4.6384610    0.0030897   -1.2583919  
C   -2.9478958    0.0050460   -2.9661075  
O   -3.7809377    0.0062160   -3.8623775  
C   -1.5113821    0.0053068   -3.2312125  
H    1.4821240    0.0045436   -2.9459192  
H   -2.7664565    0.0000185    0.6013447  
H    2.1104318    0.0009428   -0.3488058  
C    2.3971438    2.0127888    3.1728260  
C    1.9431056    1.6308205    1.9564670  
C    0.8496017    0.7127664    2.2356185  
C    0.7794028    0.6545384    3.7115134  
N    1.6840587    1.4146091    4.2663826  
C   -0.1885723   -0.1578550    4.3957118  
C   -1.0476298   -0.8789867    3.6398520  
O   -2.0015663   -1.6796266    4.1448486  
C   -1.0022026   -0.8410666    2.1483229  
O   -1.8147390   -1.5232959    1.5241687  
C    0.0000000    0.0000000    1.4700000  
H    2.3054237    1.9346118    0.9892483  
H   -0.2170646   -0.1815267    5.4753125  
H   -2.4487139   -2.0549881    3.3649027  
H    3.2048689    2.6911772    3.3971983  
