58

C    3.4058350    0.7068930   -8.0018734  
C    4.4862643    0.0034850   -7.5753000  
C    4.9815947   -0.7373732   -8.7113518  
C    4.0948359   -0.4055222   -9.8428653  
N    3.1605082    0.4740587   -9.3466193  
C    4.2301964   -0.9041774  -11.0977459  
C    5.3219963   -1.8296440  -11.3507689  
O    5.5277453   -2.3332358  -12.4472932  
C    6.2732156   -2.1953760  -10.1670347  
O    7.1957479   -2.9737234  -10.3679559  
C    6.0263870   -1.5933497   -8.8591772  
H    3.5688323   -0.6477258  -11.9136744  
H    6.6896771   -1.8516038   -8.0448827  
H    2.7680592    1.3756095   -7.4469413  
H    2.4163723    0.8852516   -9.8797520  
C    2.4521485    0.0014838   -3.7217479  
C    3.4891879    0.0014496   -2.8521911  
C    4.6797445    0.0022555   -3.6882979  
C    4.1623483    0.0025994   -5.0735361  
N    2.8572360    0.0022305   -5.0994557  
C    5.0381738    0.0034465   -6.2128407  
C    6.3703214    0.0043170   -5.9789268  
O    7.3023601    0.0051588   -6.9470923  
C    6.9233380    0.0043694   -4.5924444  
O    8.1464877    0.0050629   -4.4541510  
C    6.0043360    0.0034466   -3.4403333  
H    3.4509659    0.0010307   -1.7762664  
H    8.1530739    0.0056733   -6.4722887  
H    6.4446278    0.0036317   -2.4522171  
C    0.0000000    0.0000000    0.0000000  
C    1.0662924   -0.0000102   -0.8334267  
C    0.4961874    0.0000064   -2.1718888  
C   -0.9663853   -0.0000849   -1.9540250  
N   -1.2632772   -0.0000084   -0.6828660  
C   -1.8985357   -0.0000515   -3.0477261  
C   -1.3925767    0.0004566   -4.3020548  
O   -2.1456375    0.0005411   -5.4151316  
C    0.0786242    0.0009324   -4.5545000  
O    0.4683770    0.0012590   -5.7221099  
C    1.0143173    0.0008443   -3.4159029  
H    2.1107200    0.0000632   -0.5721862  
H   -2.9622180   -0.0003269   -2.8593382  
H   -1.5042262    0.0009694   -6.1484423  
C    3.3321173   -0.0004715    2.8079335  
C    2.6974184   -0.0000116    4.0032312  
C    1.2800439    0.0002118    3.6752840  
C    1.2395035   -0.0000644    2.1971295  
N    2.4394063   -0.0005460    1.6831036  
C    0.0000000    0.0000000    1.4700000  
C   -1.1468701   -0.0000635    2.1869543  
O   -2.3742202   -0.0000073    1.6395491  
C   -1.1388768   -0.0001607    3.6796354  
O   -2.2206231   -0.0000905    4.2670412  
C    0.1454524   -0.0001816    4.4024240  
H    3.1367986    0.0000651    4.9860947  
H   -2.9844344   -0.0001026    2.3990168  
H    0.1083576   -0.0003682    5.4835595  
H    4.3940039   -0.0007619    2.6198634  
