58

C   -3.2573665   -0.0002836   -1.5109386  
C   -2.5379465   -0.0002775   -0.3591966  
C   -1.1435037   -0.0002352   -0.7338501  
C   -1.1092601   -0.0001878   -2.2088478  
N   -2.4227552   -0.0006191   -2.6182611  
C    0.0265540    0.0002570   -2.9515662  
C    1.3003046    0.0004937   -2.2514972  
O    2.3786792    0.0008335   -2.8306420  
C    1.2877729    0.0001963   -0.6895602  
O    2.3539955    0.0000853   -0.0892027  
C    0.0000000    0.0000000    0.0000000  
H   -2.9384088   -0.0004824    0.6389232  
H    0.0296304    0.0004136   -4.0327228  
H   -2.7280484    0.0008586   -3.5742115  
C   -6.6174605   -0.0028031    1.3537068  
C   -5.3857490   -0.0023010    0.7819015  
C   -5.5854749   -0.0013085   -0.6481138  
C   -7.0449748   -0.0012439   -0.8641003  
N   -7.6133362   -0.0025734    0.3888377  
C   -7.6418659   -0.0000270   -2.0828801  
C   -6.7899758    0.0010821   -3.2605116  
O   -7.2316297    0.0021555   -4.4021077  
C   -5.2415211    0.0007827   -3.0553444  
O   -4.5141873    0.0014019   -4.0393394  
C   -4.7161327   -0.0002898   -1.6923267  
H   -4.4446709   -0.0027752    1.3024643  
H   -8.7143810    0.0001273   -2.2193395  
H   -8.5996523   -0.0013082    0.5738412  
C   -4.1526269   -0.0050994    4.9879780  
C   -5.1348728   -0.0059163    5.9256706  
C   -6.3930897   -0.0053756    5.2173446  
C   -6.0609724   -0.0041973    3.7798164  
N   -4.6870012   -0.0036852    3.7084542  
C   -6.9774636   -0.0038056    2.7789426  
C   -8.3849106   -0.0043713    3.1417482  
O   -9.2862624   -0.0040210    2.3135779  
C   -8.7595949   -0.0053672    4.6581309  
O   -9.9412858   -0.0055434    4.9757276  
C   -7.6827140   -0.0059932    5.6451359  
H   -4.9940775   -0.0066148    6.9918740  
H   -7.9505648   -0.0068870    6.6929809  
H   -3.0833372   -0.0051946    5.1240270  
H   -4.1544704   -0.0044327    2.8578911  
C    2.5128556    2.1077716    2.9199648  
C    1.9592212    1.6432552    4.0696553  
C    0.8915788    0.7479214    3.6910360  
C    0.8684491    0.7287414    2.2159470  
N    1.8754542    1.5738793    1.8102719  
C    0.0000000    0.0000000    1.4700000  
C   -0.9772830   -0.8200135    2.1664417  
O   -1.8021297   -1.5120829    1.5842315  
C   -0.9711318   -0.8147624    3.7284083  
O   -1.7894187   -1.5009653    4.3257297  
C    0.0140216    0.0115358    4.4216297  
H    2.2638494    1.8988021    5.0689105  
H    0.0117648    0.0094386    5.5031631  
H    3.3327358    2.7953732    2.7900019  
H    2.1123206    1.7707734    0.8551938  
