60

C    1.1188649    0.0008221   -0.8003802  
C    0.0000000    0.0000000    0.0000000  
C   -1.1323859    0.0008896   -0.8673533  
C   -0.6382652    0.0019677   -2.1969281  
N    0.7324026    0.0038479   -2.1202233  
C   -1.4770899    0.0027312   -3.3154813  
C   -2.8395462    0.0020934   -3.0876865  
O   -3.7039184    0.0024415   -4.1440362  
C   -3.3517863    0.0013921   -1.7684342  
O   -4.7300485    0.0012355   -1.7073142  
C   -2.5248541    0.0009117   -0.6644823  
H    1.3576328   -0.0056170   -2.9057035  
H   -4.5940013    0.0021811   -3.7685148  
H   -4.9934594    0.0007251   -0.7819936  
H   -2.9462582    0.0005599    0.3339643  
H    2.1619894    0.0009359   -0.5342059  
C    0.0908008   -0.6992464   -5.1618156  
C   -0.9736275    0.0040455   -4.6965765  
C   -1.5084774    0.7463560   -5.8136025  
C   -0.6623457    0.4154826   -6.9760886  
N    0.2885861   -0.4649760   -6.5141241  
C   -0.8417373    0.9156024   -8.2248497  
C   -1.9414381    1.8417252   -8.4381333  
O   -2.1855815    2.3466256   -9.5261459  
C   -2.8501332    2.2064419   -7.2211451  
O   -3.7788887    2.9853289   -7.3885002  
C   -2.5575116    1.6028535   -5.9234911  
H   -3.1915414    1.8604119   -5.0859984  
H    0.7475173   -1.3688065   -4.6304947  
H    1.0132794   -0.8758185   -7.0736555  
C    0.8945131   -2.9141062   -9.3677696  
C    1.5749403   -2.5939769  -10.4929871  
C    1.3429083   -1.1699122  -10.6792688  
C    0.4778545   -0.7816777   -9.5445710  
N    0.2117200   -1.7999146   -8.7723309  
C    0.0176259    0.5678670   -9.3656721  
C    0.4043360    1.4878296  -10.2786118  
O    0.0495252    2.7833150  -10.2354076  
C    1.2772634    1.1271549  -11.4344970  
O    1.5899751    2.0158666  -12.2267244  
C    1.7361885   -0.2639571  -11.5961151  
H    2.1619017   -3.2439130  -11.1191939  
H    0.4763099    3.1833939  -11.0144743  
H    2.3673221   -0.4844260  -12.4465823  
H    0.8148696   -3.8783704   -8.8915083  
C    0.8400945    0.7047457    2.2710304  
C    0.0000000    0.0000000    1.4700000  
C   -0.8844236   -0.7423113    2.3369512  
C   -0.4878984   -0.4098547    3.7186280  
N    0.5629682    0.4714286    3.6095011  
C   -1.0836927   -0.9095027    4.8308716  
C   -2.1891196   -1.8367527    4.6554461  
O   -2.7906899   -2.3413415    5.5944904  
C   -2.6257283   -2.2031529    3.2011665  
O   -3.5549479   -2.9829990    3.0410059  
C   -1.9068976   -1.5999348    2.0816745  
H   -0.7774656   -0.6525820    5.8354244  
H   -2.2155208   -1.8586617    1.0779135  
H    1.6384792    1.3747609    1.9961646  
H    1.0518368    0.8833920    4.3830260  
