58

C    7.7614509   -1.0599469   -4.0805014  
C    6.9410535    0.0185219   -4.1695466  
C    7.7740905    1.1568454   -4.4779365  
C    9.1569684    0.6495081   -4.5618880  
N    9.0808960   -0.7010532   -4.3107159  
C   10.2421462    1.4168474   -4.8362672  
C   10.0342667    2.8372395   -5.0638804  
O   10.9474492    3.6118066   -5.3177415  
C    8.5781605    3.3962248   -4.9796550  
O    8.3908515    4.5904913   -5.1691346  
C    7.4895303    2.4704712   -4.6768108  
H   11.2481080    1.0248133   -4.8933599  
H    6.4842637    2.8654298   -4.6204885  
H    7.5131817   -2.0866793   -3.8658564  
H    9.8631070   -1.3295827   -4.2987045  
C    4.3630981   -2.0949037   -1.3110654  
C    3.1522514   -1.6320804   -1.7156885  
C    3.3924175   -0.7354493   -2.8216759  
C    4.8529074   -0.7137077   -3.0297340  
N    5.3832069   -1.5581154   -2.0817639  
C    5.4827050    0.0162381   -3.9848456  
C    4.6677391    0.8352837   -4.8666221  
O    5.1406430    1.5283993   -5.7578308  
C    3.1189447    0.8277106   -4.6641774  
O    2.4225435    1.5135518   -5.4003220  
C    2.5562217   -0.0001543   -3.6003001  
H    2.1995749   -1.8892847   -1.2880586  
H    4.5960548   -2.7827973   -0.5145584  
H    6.3605504   -1.7557299   -1.9686510  
C    0.0000000    0.0000000    0.0000000  
C    1.0541688   -0.0001719   -0.8560391  
C    0.5103141   -0.0000449   -2.1935955  
C   -0.9576367    0.0002461   -2.0455733  
N   -1.2018459   -0.0001392   -0.6915970  
C   -1.8348306    0.0008319   -3.0810611  
C   -1.2972842    0.0009739   -4.4314605  
O   -2.0050664    0.0014267   -5.4301321  
C    0.2542628    0.0004190   -4.6117571  
O    0.7184677    0.0002263   -5.7439119  
C    1.0974556    0.0000880   -3.4189127  
H    2.0940752   -0.0005479   -0.5817978  
H   -2.9081050    0.0011669   -2.9507065  
H   -2.1128195    0.0014911   -0.2706793  
C    1.1319247   -0.0015655    2.2709268  
C    0.7969915   -0.0034943    3.5869401  
C   -0.6453339   -0.0035710    3.6542670  
C   -1.1266833   -0.0015433    2.2596025  
N    0.0000000    0.0000000    1.4700000  
C   -2.4346130   -0.0013964    1.8976294  
C   -3.4350110   -0.0031408    2.9520183  
O   -4.6384611   -0.0030974    2.7283916  
C   -2.9478959   -0.0050506    4.4361073  
O   -3.7809380   -0.0062218    5.3323774  
C   -1.5113823   -0.0053090    4.7012123  
H    1.4821238   -0.0045407    4.4159191  
H   -2.7664565   -0.0000232    0.8686553  
H   -1.1823530   -0.0068408    5.7314848  
H    2.1104316   -0.0009391    1.8188057  
