58

C   -3.2572830   -0.0232444   -1.5109398  
C   -2.5378817   -0.0181672   -0.3591974  
C   -1.1434731   -0.0082956   -0.7338502  
C   -1.1092305   -0.0080067   -2.2088479  
N   -2.4226898   -0.0176966   -2.6182622  
C    0.0265527    0.0004444   -2.9515660  
C    1.3002704    0.0096596   -2.2514971  
O    2.3786151    0.0176009   -2.8306408  
C    1.2877401    0.0092738   -0.6895599  
O    2.3539370    0.0166785   -0.0892023  
C    0.0000000    0.0000000    0.0000000  
H   -2.9383324   -0.0211950    0.6389222  
H    0.0296280    0.0006228   -4.0327229  
H   -2.7279857   -0.0183709   -3.5742125  
C   -5.6461989   -0.0410305   -0.7029989  
C   -4.7160130   -0.0335333   -1.6923281  
C   -5.4338487   -0.0379004   -2.9451366  
C   -6.8687767   -0.0486041   -2.6021261  
N   -6.9297056   -0.0504169   -1.2276537  
C   -7.8765537   -0.0549280   -3.5109994  
C   -7.5244508   -0.0511510   -4.9211571  
O   -8.3594182   -0.0563226   -5.8162015  
C   -6.0109935   -0.0400922   -5.3073318  
O   -5.7023816   -0.0371357   -6.4913966  
C   -5.0158695   -0.0337218   -4.2379678  
H   -3.9701151   -0.0258690   -4.5137579  
H   -5.5020423   -0.0407051    0.3652274  
H   -7.7761899   -0.0555106   -0.6886865  
C  -10.0831661    2.0342915   -0.3409265  
C  -11.3319945    1.5610974   -0.5870770  
C  -11.2285636    0.6675092   -1.7165185  
C   -9.8069108    0.6588102   -2.1110032  
N   -9.1663680    1.5077320   -1.2381197  
C   -9.2989802   -0.0653933   -3.1401974  
C  -10.2135612   -0.8912345   -3.9109524  
O   -9.8533305   -1.5798929   -4.8566187  
C  -11.7234638   -0.8970980   -3.5109950  
O  -12.5029779   -1.5882815   -4.1527760  
C  -12.1516313   -0.0748585   -2.3820815  
H  -12.2238886    1.8098013   -0.0400078  
H  -13.1987171   -0.0846574   -2.1114541  
H   -9.7554925    2.7235478    0.4202868  
H   -8.1838517    1.7116365   -1.2496478  
C    0.8400945    0.7047457    2.2710304  
C    0.0000000    0.0000000    1.4700000  
C   -0.8844236   -0.7423113    2.3369512  
C   -0.4878984   -0.4098547    3.7186280  
N    0.5629682    0.4714286    3.6095011  
C   -1.0836927   -0.9095027    4.8308716  
C   -2.1891196   -1.8367527    4.6554461  
O   -2.7906899   -2.3413415    5.5944904  
C   -2.6257283   -2.2031529    3.2011665  
O   -3.5549479   -2.9829990    3.0410059  
C   -1.9068976   -1.5999348    2.0816745  
H   -0.7774656   -0.6525820    5.8354244  
H   -2.2155208   -1.8586617    1.0779135  
H    1.6384792    1.3747609    1.9961646  
H    1.0518368    0.8833920    4.3830260  
