58

C   -4.7677699    3.7030027    1.7206051  
C   -3.9252190    3.0721390    0.8625877  
C   -2.5859657    3.4898357    1.2042985  
C   -2.7182913    4.4224231    2.3398871  
N   -4.0657559    4.5089688    2.6039696  
C   -1.6767185    5.0376683    2.9549507  
C   -0.3358836    4.7631874    2.4657088  
O    0.6672137    5.2680877    2.9527141  
C   -0.1722668    3.7789177    1.2639408  
O    0.9517048    3.5403654    0.8431787  
C   -1.3703584    3.1771013    0.6840734  
H   -1.7955218    5.7182770    3.7865561  
H   -1.2484528    2.4965347   -0.1476064  
H   -5.8424902    3.6471091    1.7817779  
H   -4.4758484    5.0695361    3.3282871  
C   -4.3137501    2.1424312   -0.2077332  
C   -5.5591253    1.7353211   -0.5466753  
C   -5.3648110    0.8246403   -1.6644421  
C   -3.9011721    0.7979210   -1.8733217  
N   -3.2797693    1.5684038   -1.0223199  
C   -3.2941076    0.0012878   -2.9038237  
C   -4.1120064   -0.7354732   -3.6896735  
O   -3.6822294   -1.5242481   -4.6892573  
C   -5.5930505   -0.7299489   -3.5035602  
O   -6.2763269   -1.4248017   -4.2555802  
C   -6.1916589    0.0955191   -2.4395140  
H   -6.4941462    2.0180132   -0.0940194  
H   -4.4926441   -1.9161859   -5.0617693  
H   -7.2683271    0.0718760   -2.3372581  
C    0.0000000    0.0000000    0.0000000  
C    1.0541688   -0.0001723   -0.8560392  
C    0.5103136   -0.0000455   -2.1935956  
C   -0.9576373    0.0002461   -2.0455730  
N   -1.2018460   -0.0001389   -0.6915968  
C   -1.8348314    0.0008319   -3.0810607  
C   -1.2972851    0.0009739   -4.4314603  
O   -2.0050676    0.0014268   -5.4301316  
C    0.2542619    0.0004184   -4.6117572  
O    0.7184666    0.0002257   -5.7439122  
C    1.0974551    0.0000873   -3.4189129  
H    2.0940752   -0.0005484   -0.5817983  
H    2.1707276   -0.0000912   -3.5523673  
H   -2.1128194    0.0014915   -0.2706789  
C    1.1319247   -0.0015655    2.2709268  
C    0.7969915   -0.0034943    3.5869401  
C   -0.6453339   -0.0035710    3.6542670  
C   -1.1266833   -0.0015433    2.2596025  
N    0.0000000    0.0000000    1.4700000  
C   -2.4346130   -0.0013964    1.8976294  
C   -3.4350110   -0.0031408    2.9520183  
O   -4.6384611   -0.0030974    2.7283916  
C   -2.9478959   -0.0050506    4.4361073  
O   -3.7809380   -0.0062218    5.3323774  
C   -1.5113823   -0.0053090    4.7012123  
H    1.4821238   -0.0045407    4.4159191  
H   -2.7664565   -0.0000232    0.8686553  
H   -1.1823530   -0.0068408    5.7314848  
H    2.1104316   -0.0009391    1.8188057  
