58

C    7.2838517    0.0047281   -5.5651687  
C    6.5644775    0.0050569   -6.7169389  
C    7.5129049    0.0063330   -7.8056628  
C    8.8534045    0.0066943   -7.1893421  
N    8.6450748    0.0060794   -5.8293839  
C   10.0191244    0.0074358   -7.8841817  
C    9.9488246    0.0081359   -9.3359377  
O   10.9423530    0.0088901  -10.0509222  
C    8.5397247    0.0080213  -10.0099106  
O    8.4679856    0.0089128  -11.2314323  
C    7.3551093    0.0069118   -9.1551952  
H    5.4918517    0.0046545   -6.7949549  
H   10.9920329    0.0075595   -7.4126340  
H    6.3832073    0.0066342   -9.6296748  
H    9.3701878    0.0045795   -5.1356560  
C    6.8068807    0.0035020   -4.1747020  
C    5.5278576    0.0022331   -3.7323476  
C    5.6328267    0.0014348   -2.2813202  
C    7.0869585    0.0022983   -2.0128351  
N    7.7802397    0.0035920   -3.1188859  
C    7.6138019    0.0019123   -0.6758530  
C    6.7282253    0.0011069    0.3464425  
O    7.0793819    0.0006613    1.6436435  
C    5.2547117    0.0005945    0.1078687  
O    4.5071913   -0.0002588    1.0858429  
C    4.7390840    0.0009613   -1.2727298  
H    4.6247027    0.0019722   -4.3183400  
H    8.6810612    0.0023565   -0.5089147  
H    6.2347362    0.0001389    2.1291602  
C    3.2798077    0.0005856   -1.4499661  
C    2.5571132    0.0005565   -2.5996564  
C    1.1637425    0.0001547   -2.2210366  
C    1.1336959   -0.0000200   -0.7459475  
N    2.4483509   -0.0001429   -0.3402730  
C    0.0000000    0.0000000    0.0000000  
C   -1.2757370   -0.0000187   -0.6964411  
O   -2.3524597   -0.0000640   -0.1142306  
C   -1.2676502   -0.0000874   -2.2584078  
O   -2.3355774   -0.0004102   -2.8557287  
C    0.0181551    0.0001758   -2.9516297  
H    2.9547342    0.0006074   -3.5989118  
H    0.0150776    0.0003317   -4.0331632  
H    2.7563626    0.0012823    0.6148051  
C    2.4951002    2.0940188    2.9809380  
C    1.9440701    1.6314916    1.8291961  
C    0.8759964    0.7350050    2.2038498  
C    0.8497377    0.7130254    3.6788474  
N    1.8560616    1.5571714    4.0882609  
C   -0.0205033   -0.0168748    4.4215661  
C   -0.9962600   -0.8356168    3.7214979  
O   -1.8224391   -1.5286685    4.3006425  
C   -0.9864710   -0.8277881    2.1595606  
O   -1.8030528   -1.5133726    1.5592035  
C    0.0000000    0.0000000    1.4700000  
H    2.2509283    1.8888011    0.8310761  
H   -0.0229599   -0.0187323    5.5027230  
H    3.3143982    2.7817323    3.1139444  
H    2.0889452    1.7545833    5.0442112  
