60

C   -3.2281081   -0.7046809   -1.5420433  
C   -2.5251954   -0.5506548   -0.3695858  
C   -1.1763091   -0.2567381   -0.7283589  
C   -1.1158374   -0.2441583   -2.1454375  
N   -2.3783057   -0.5217566   -2.6077468  
C    0.0641991    0.0131117   -2.8497917  
C    1.2038869    0.2625203   -2.1101398  
O    2.3832031    0.5200361   -2.7472515  
C    1.1637253    0.2539932   -0.6955266  
O    2.3810491    0.5199206   -0.1032859  
C    0.0000000    0.0000000    0.0000000  
H   -2.9340959   -0.6403224    0.6222582  
H    0.1169266    0.0240010   -3.9297469  
H    3.0416804    0.6639377   -2.0551777  
H    2.2665810    0.4951161    0.8516411  
H   -4.2680974   -0.9319632   -1.7024295  
C   -2.7684305   -0.5923366   -4.0232751  
C   -3.9912508   -0.8585030   -4.5384887  
C   -3.8109278   -0.8018641   -5.9809782  
C   -2.3792432   -0.4811025   -6.1653009  
N   -1.7629840   -0.3571738   -5.0212489  
C   -1.7938675   -0.3359382   -7.4696586  
C   -2.6019231   -0.5039728   -8.5411744  
O   -2.1899086   -0.3977738   -9.8159321  
C   -4.0508067   -0.8286000   -8.3878311  
O   -4.7267278   -0.9676464   -9.4071529  
C   -4.6276071   -0.9723067   -7.0392856  
H   -4.9030001   -1.0675550   -4.0054906  
H   -2.9869466   -0.5694439  -10.3492352  
H   -5.6811747   -1.2079954   -6.9708994  
C   -0.3662115   -0.0162544   -7.6128395  
C    0.5679397    0.1808228   -6.6471289  
C    1.8139387    0.4661110   -7.3186439  
C    1.5270588    0.4187744   -8.7651050  
N    0.1883690    0.1213797   -8.8762626  
C    2.4471048    0.6353151   -9.7389273  
C    3.8109609    0.9347780   -9.3354997  
O    4.7117904    1.1449634  -10.1371408  
C    4.1373898    0.9897545   -7.8089911  
O    5.2822126    1.2406576   -7.4572983  
C    3.0611503    0.7388842   -6.8536771  
H    0.4030232    0.1317468   -5.5855226  
H    2.2158374    0.5960122  -10.7943322  
H    3.2953942    0.7790142   -5.7985734  
H   -0.3095569    0.0218576   -9.7418332  
C    0.0000000    0.0000000    1.4700000  
C    1.0541688    0.0001722    2.3260392  
C    0.5103138    0.0000454    3.6635956  
C   -0.9576371   -0.0002459    3.5155732  
N   -1.2018458    0.0001392    2.1615969  
C   -1.8348311   -0.0008317    4.5510609  
C   -1.2972847   -0.0009736    5.9014604  
O   -2.0050672   -0.0014265    6.9001319  
C    0.2542623   -0.0004184    6.0817573  
O    0.7184670   -0.0002256    7.2139121  
C    1.0974552   -0.0000873    4.8889129  
H    2.0940752    0.0005483    2.0517982  
H   -2.9081052   -0.0011668    4.4207061  
H    2.1707277    0.0000911    5.0223670  
H   -2.1128194   -0.0014912    1.7406791  
