60

C    1.1243415    0.0100053   -0.7919006  
C    0.7474076    0.0234629   -2.1148549  
C   -0.6787379    0.0234402   -2.1414703  
C   -1.1201745    0.0098455   -0.7935549  
N    0.0000000    0.0000000    0.0000000  
C   -2.4730814    0.0063409   -0.4408250  
C   -3.3971956    0.0170567   -1.4675066  
O   -4.7313516    0.0145687   -1.1793477  
C   -2.9763648    0.0303141   -2.8186328  
O   -4.0166474    0.0394625   -3.7247629  
C   -1.6418562    0.0335056   -3.1673486  
H    1.4178715    0.0311137   -2.9571210  
H   -2.8160164   -0.0041451    0.5845958  
H   -5.1938818    0.0230239   -2.0274389  
H   -3.6464675    0.0481844   -4.6127350  
H    2.1062469    0.0053068   -0.3505407  
C   -0.2201812   -0.6516331   -5.1344351  
C   -1.2456329    0.0471566   -4.5828770  
C   -1.8642147    0.7990800   -5.6490865  
C   -1.1096938    0.4787544   -6.8758219  
N   -0.1264587   -0.4053975   -6.4958035  
C   -1.3840266    0.9897831   -8.1027271  
C   -2.4965360    1.9173553   -8.2230101  
O   -2.8231187    2.4317261   -9.2846443  
C   -3.3092523    2.2710212   -6.9368462  
O   -4.2478484    3.0510203   -7.0257244  
C   -2.9183109    1.6561379   -5.6707753  
H   -3.4862636    1.9060881   -4.7849544  
H    0.4750809   -1.3256101   -4.6608795  
H    0.5531280   -0.8110403   -7.1127824  
C    0.4376308   -2.7206913   -9.7695768  
C   -0.2290420   -1.8761016   -8.9487264  
C   -0.1564871   -0.5798281   -9.6051642  
C    0.6108061   -0.8317666  -10.8438615  
N    0.9617099   -2.0849536  -10.9457375  
C    0.9036285    0.2151775  -11.7836750  
C    0.4501918    1.4572652  -11.4991624  
O    0.6501884    2.5278976  -12.2864292  
C   -0.3272530    1.7432342  -10.2574044  
O   -0.7085333    2.8973397  -10.0627611  
C   -0.6146594    0.6524099   -9.3090243  
H   -0.7106518   -2.1045489   -8.0133443  
H    1.4665990    0.0026572  -12.6807873  
H    0.2118804    3.2631274  -11.8211588  
H    0.6092274   -3.7772108   -9.6380707  
C    2.5128556    2.1077716    2.9199648  
C    1.9592212    1.6432552    4.0696553  
C    0.8915788    0.7479214    3.6910360  
C    0.8684491    0.7287414    2.2159470  
N    1.8754542    1.5738793    1.8102719  
C    0.0000000    0.0000000    1.4700000  
C   -0.9772830   -0.8200135    2.1664417  
O   -1.8021297   -1.5120829    1.5842315  
C   -0.9711318   -0.8147624    3.7284083  
O   -1.7894187   -1.5009653    4.3257297  
C    0.0140216    0.0115358    4.4216297  
H    2.2638494    1.8988021    5.0689105  
H    0.0117648    0.0094386    5.5031631  
H    3.3327358    2.7953732    2.7900019  
H    2.1123206    1.7707734    0.8551938  
