64

C    2.3128796   -2.1207451   -5.9853291  
C    1.8202490   -1.6594122   -4.7865988  
C    0.7463178   -0.7716432   -5.0917841  
C    0.6288901   -0.7306956   -6.5047457  
N    1.5962668   -1.5596063   -7.0163180  
C   -0.3301659    0.0460747   -7.1617305  
C   -1.1864717    0.7949190   -6.3780528  
O   -2.1419344    1.5709315   -6.9678911  
C   -1.0847733    0.7675649   -4.9667678  
O   -2.0088871    1.5678195   -4.3272760  
C   -0.1387079    0.0017019   -4.3179684  
H    2.1902180   -1.9286751   -3.8121171  
H   -0.4247432    0.0817400   -8.2382921  
H   -2.6233439    2.0035648   -6.2507168  
H   -1.8718317    1.4918812   -3.3780374  
H    3.1196528   -2.8045578   -6.1865156  
C    2.6094868   -5.2880102   -9.2662173  
C    2.3097216   -4.3831175   -8.2743629  
C    2.1328426   -3.1164611   -8.9059445  
C    2.3385648   -3.3119909  -10.2956831  
N    2.6279661   -4.6412663  -10.4797783  
C    2.2430698   -2.2742130  -11.2277168  
C    1.9339751   -1.0161901  -10.7481153  
O    1.8279796    0.0329935  -11.6147136  
C    1.7255109   -0.8010650   -9.3649742  
O    1.4259066    0.5070261   -9.0448515  
C    1.8198238   -1.8243393   -8.4448970  
H    2.2296039   -4.6080640   -7.2246133  
H    2.8109814   -5.0781877  -11.3649820  
H    2.3988540   -2.4166730  -12.2882064  
H    1.6093316    0.8075120  -11.0803181  
H    1.3001860    0.5660287   -8.0928448  
H    2.8129838   -6.3433112   -9.2038496  
C    3.3041273    0.0001178   -1.5420428  
C    2.5845373   -0.0004780   -0.3695851  
C    1.2040007   -0.0000007   -0.7283589  
C    1.1422374    0.0006038   -2.1454372  
N    2.4348641    0.0026111   -2.6077464  
C   -0.0655179    0.0008799   -2.8497918  
C   -1.2321766    0.0002325   -2.1101402  
O   -2.4392814    0.0001148   -2.7472522  
C   -1.1911209   -0.0000007   -0.6955266  
O   -2.4371528   -0.0002320   -0.1032862  
C    0.0000000    0.0000000    0.0000000  
H    3.0031533   -0.0000660    0.6222584  
H    2.7054631   -0.0071097   -3.5745261  
H   -3.1132988   -0.0000648   -2.0551787  
H   -2.3200282   -0.0004072    0.8516409  
H    4.3686625    0.0004073   -1.7024290  
C    2.5128556    2.1077716    2.9199648  
C    1.9592212    1.6432552    4.0696553  
C    0.8915788    0.7479214    3.6910360  
C    0.8684491    0.7287414    2.2159470  
N    1.8754542    1.5738793    1.8102719  
C    0.0000000    0.0000000    1.4700000  
C   -0.9772830   -0.8200135    2.1664417  
O   -1.8021297   -1.5120829    1.5842315  
C   -0.9711318   -0.8147624    3.7284083  
O   -1.7894187   -1.5009653    4.3257297  
C    0.0140216    0.0115358    4.4216297  
H    2.2638494    1.8988021    5.0689105  
H    0.0117648    0.0094386    5.5031631  
H    3.3327358    2.7953732    2.7900019  
H    2.1123206    1.7707734    0.8551938  
