58

C    1.0965521    0.0001356   -0.8010302  
C    0.0000000    0.0000000    0.0000000  
C   -1.1546560    0.0001467   -0.8669510  
C   -0.6372006    0.0003515   -2.2486281  
N    0.7342880    0.0007335   -2.1395007  
C   -1.4147728    0.0001348   -3.3608716  
C   -2.8576040   -0.0001053   -3.1854462  
O   -3.6427765   -0.0002499   -4.1244912  
C   -3.4275834   -0.0000730   -1.7311671  
O   -4.6406818    0.0000327   -1.5710068  
C   -2.4891864   -0.0001095   -0.6116748  
H   -1.0150434    0.0001608   -4.3654244  
H   -2.8919115   -0.0002922    0.3920854  
H    2.1388274    0.0000661   -0.5261636  
C    2.8307257   -0.6880607   -3.3923502  
C    1.6707653   -0.0012348   -3.2725965  
C    1.5453254    0.7428534   -4.5164204  
C    2.7497158    0.3772354   -5.2925334  
N    3.5069284   -0.4613286   -4.6387523  
C    3.0021459    0.9119173   -6.6022969  
C    2.0925382    1.7724233   -7.1136459  
O    2.2005243    2.3472960   -8.3235639  
C    0.8669372    2.1606445   -6.3551297  
O    0.0821165    2.9489995   -6.8821727  
C    0.6306007    1.5985956   -5.0134255  
H    1.4056028    2.9046132   -8.4051099  
H   -0.2691091    1.9048120   -4.4967206  
H    3.2814308   -1.3598180   -2.6792018  
C    5.1120738   -2.9395494   -7.0614698  
C    4.2402908   -1.9590141   -6.7112980  
C    4.6949063   -0.7448232   -7.3468296  
C    5.9117137   -1.1009163   -8.1013941  
N    6.1107410   -2.4452369   -7.8867323  
C    6.6416839   -0.2272031   -8.8399561  
C    6.1995174    1.1562599   -8.8952105  
O    6.7889666    2.0189820   -9.5328311  
C    4.9136188    1.5557362   -8.1035727  
O    4.5318632    2.7176398   -8.1423435  
C    4.2112725    0.5249103   -7.3433362  
H    3.3773520   -2.0732221   -6.0797075  
H    7.5312095   -0.5089769   -9.3860871  
H    5.1091192   -3.9816366   -6.7859060  
H    6.8641497   -2.9846478   -8.2720365  
C    0.8681109    0.7263879    2.2709268  
C    0.6127770    0.5096195    3.5869401  
C   -0.4920590   -0.4175482    3.6542670  
C   -0.8620974   -0.7254003    2.2596025  
N    0.0000000    0.0000000    1.4700000  
C   -1.8641242   -1.5660088    1.8976294  
C   -2.6293522   -2.2103885    2.9520183  
O   -3.5512764   -2.9839180    2.7283916  
C   -2.2549728   -1.8987399    4.4361073  
O   -2.8923672   -2.4351063    5.3323774  
C   -1.1543735   -0.9755647    4.7012123  
H    1.1382914    0.9492124    4.4159191  
H   -2.1192137   -1.7782617    0.8686553  
H   -0.9013378   -0.7652422    5.7314848  
H    1.6172880    1.3558399    1.8188057  
