62

C    2.3136490   -2.1180454   -5.9171367  
C    1.6624058   -1.6181603   -7.0209775  
C    0.6419643   -0.7441454   -6.5420236  
C    0.7194931   -0.7504920   -5.1257342  
N    1.7437763   -1.5963719   -4.7793976  
C   -0.1387076    0.0017013   -4.3179688  
C   -1.0923522    0.7746125   -4.9514892  
O   -1.9557343    1.5288496   -4.2107393  
C   -1.1856781    0.7938835   -6.3634862  
O   -2.1870605    1.6126752   -6.8432323  
C   -0.3395494    0.0518690   -7.1609868  
H    1.8935983   -1.8552478   -8.0453475  
H    2.0414326   -1.7936228   -3.8410620  
H   -2.5301596    1.9837411   -4.8403221  
H   -2.1819304    1.5683225   -7.8042792  
H   -0.4351235    0.0866792   -8.2399362  
C    3.3041274    0.0001172   -1.5420427  
C    2.5845373   -0.0004783   -0.3695849  
C    1.2040007   -0.0000010   -0.7283594  
C    1.1422375    0.0006035   -2.1454372  
N    2.4348642    0.0026105   -2.6077466  
C   -0.0655178    0.0008795   -2.8497920  
C   -1.2321766    0.0002324   -2.1101404  
O   -2.4392813    0.0001144   -2.7472526  
C   -1.1911206   -0.0000009   -0.6955271  
O   -2.4371529   -0.0002318   -0.1032865  
C    0.0000000    0.0000000    0.0000000  
H    3.0031533   -0.0000662    0.6222585  
H    2.7054633   -0.0071104   -3.5745263  
H   -3.1132989   -0.0000648   -2.0551791  
H   -2.3200283   -0.0004072    0.8516406  
H    4.3686628    0.0004068   -1.7024291  
C    4.6869363   -4.2285339   -8.9846721  
C    3.7846536   -3.4469239   -8.3373346  
C    4.0336409   -3.5992350   -6.9232481  
C    5.1630599   -4.5403760   -6.7989232  
N    5.5124581   -4.8847401   -8.0843119  
C    5.7014375   -4.9439560   -5.6203747  
C    5.1302673   -4.4163438   -4.3923991  
O    5.5447980   -4.7189863   -3.2811509  
C    3.9334699   -3.4184340   -4.5003686  
O    3.4441635   -2.9678435   -3.4733299  
C    3.4401446   -3.0581696   -5.8272795  
H    3.0305940   -2.8338033   -8.7978688  
H    6.5299706   -5.6350872   -5.5512223  
H    4.8181208   -4.3805390  -10.0437166  
H    6.2543248   -5.5140811   -8.3305036  
C    2.5528530    2.1414826    2.8079335  
C    2.0663498    1.7338582    4.0032312  
C    0.9804344    0.8229586    3.6752840  
C    0.9495562    0.7966882    2.1971295  
N    1.8690446    1.5676019    1.6831036  
C    0.0000000    0.0000000    1.4700000  
C   -0.8785127   -0.7372425    2.1869543  
O   -1.8187535   -1.5261249    1.6395491  
C   -0.8723269   -0.7321790    3.6796354  
O   -1.7010379   -1.4274584    4.2670412  
C    0.1115397    0.0933559    4.4024240  
H    2.4028853    2.0163452    4.9860947  
H   -2.2861435   -1.9184361    2.3990168  
H    0.0832434    0.0693689    5.4835595  
H    3.3664920    2.8238276    2.6198634  
