64

C   -4.5382360    2.1274892   -0.3187876  
C   -3.4269602    1.6643337   -0.9843851  
C   -3.8900483    0.7769752   -2.0006254  
C   -5.3047950    0.7381445   -1.9062262  
N   -5.6653099    1.5678669   -0.8736536  
C   -6.0984770   -0.0376818   -2.7564914  
C   -5.4522278   -0.7877416   -3.7197929  
O   -6.1789762   -1.5629108   -4.5765089  
C   -4.0415022   -0.7625028   -3.8294926  
O   -3.5480072   -1.5637590   -4.8383502  
C   -3.2578655    0.0024282   -2.9908505  
H   -2.4078383    1.9321496   -0.7637973  
H   -7.1771659   -0.0717345   -2.6896157  
H   -5.5421678   -1.9966428   -5.1592753  
H   -2.5888325   -1.4892402   -4.8442641  
H   -4.6159715    2.8116402    0.5087712  
C   -7.5248368    3.0587576   -0.0370868  
C   -8.8494148    2.9334199    0.3125545  
C   -9.2037610    1.5655113    0.1179651  
C   -8.0448088    0.8986178   -0.3553298  
N   -7.0442479    1.8347555   -0.4398304  
C   -8.0272926   -0.4669663   -0.6547659  
C   -9.2010344   -1.1722343   -0.4728148  
O   -9.2394970   -2.5082504   -0.7495729  
C  -10.3678453   -0.5245236   -0.0018157  
O  -11.4557375   -1.3631819    0.1265889  
C  -10.3859253    0.8226851    0.2935283  
H   -9.4826824    3.7301582    0.6635150  
H   -7.1473052   -0.9811216   -1.0159686  
H  -10.1396910   -2.8011869   -0.5569471  
H  -12.2009539   -0.8474011    0.4494282  
H  -11.2947907    1.2912987    0.6524762  
H   -6.8852568    3.9247107   -0.0324105  
C    0.0000000    0.0000000    0.0000000  
C    1.0521666   -0.0011982   -0.8862343  
C    0.4917215   -0.0011996   -2.1979132  
C   -0.9187429    0.0003215   -2.0478682  
N   -1.1833171   -0.0009323   -0.7007913  
C   -1.7951703    0.0010483   -3.1372089  
C   -1.2375841    0.0005313   -4.4010422  
O   -2.0474218    0.0015510   -5.4997578  
C    0.1673576   -0.0013585   -4.5711963  
O    0.5673520   -0.0020735   -5.8915554  
C    1.0325768   -0.0023493   -3.4969892  
H    2.0953056   -0.0030808   -0.6200564  
H   -2.0989778    0.0102529   -0.2891822  
H   -1.4634888    0.0006601   -6.2693595  
H    1.5290707   -0.0033271   -5.9180047  
H    2.1042146   -0.0039770   -3.6584456  
C    1.0965515   -0.0001358    2.2710304  
C    0.0000000    0.0000000    1.4700000  
C   -1.1546562   -0.0001469    2.3369512  
C   -0.6372014   -0.0003519    3.7186280  
N    0.7342871   -0.0007337    3.6095011  
C   -1.4147739   -0.0001353    4.8308716  
C   -2.8576048    0.0001048    4.6554461  
O   -3.6427778    0.0002493    5.5944904  
C   -3.4275839    0.0000726    3.2011665  
O   -4.6406829   -0.0000333    3.0410059  
C   -2.4891866    0.0001091    2.0816745  
H   -1.0150448   -0.0001615    5.8354244  
H   -2.8919121    0.0002919    1.0779135  
H    2.1388271   -0.0000662    1.9961646  
H    1.3735872    0.0006099    4.3830260  
