60

C    3.3003547    0.0005275   -1.4738980  
C    2.5232816    0.0003495   -2.6090742  
C    1.1623206   -0.0001320   -2.1820096  
C    1.1711889    0.0000583   -0.7636136  
N    2.4852300   -0.0014920   -0.3662353  
C    0.0000000    0.0000000    0.0000000  
C   -1.2020382    0.0000519   -0.6806479  
O   -2.3759247    0.0003494    0.0157745  
C   -1.2314650   -0.0005113   -2.0955508  
O   -2.5054383   -0.0008037   -2.6250181  
C   -0.0764510   -0.0007273   -2.8495192  
H    2.8919962   -0.0005621   -3.6205295  
H    2.8036265    0.0088181    0.5858667  
H   -3.0835641    0.0000347   -0.6418820  
H   -2.4360047   -0.0011529   -3.5845921  
C    6.5323613    0.0028960   -4.4466863  
C    7.6043852    0.0022107   -3.6131162  
C    7.0889175    0.0013270   -2.2643656  
C    5.6181663    0.0015259   -2.3813331  
N    5.3453991    0.0028887   -3.7298455  
C    4.7630506    0.0004754   -1.3275394  
C    5.3290149   -0.0007199    0.0111982  
O    4.6424952   -0.0016577    1.0246036  
C    6.8840255   -0.0006990    0.1586662  
O    7.3720522   -0.0013930    1.2807582  
C    7.7018226    0.0002119   -1.0517303  
H    8.6382635    0.0024950   -3.9092720  
H    8.7776753    0.0000148   -0.9409875  
H    6.5095816    0.0036227   -5.5243553  
H    4.4257333    0.0017844   -4.1314186  
C   -0.1496409   -0.0015614   -4.3176961  
C    0.8605992   -0.0020607   -5.2251594  
C    0.2508230   -0.0027747   -6.5339786  
C   -1.2079374   -0.0026205   -6.3130523  
N   -1.3844299   -0.0022740   -4.9485963  
C   -2.1355994   -0.0027543   -7.3035806  
C   -1.6659548   -0.0032977   -8.6790687  
O   -2.4225823   -0.0035181   -9.6412628  
C   -0.1253088   -0.0037216   -8.9363927  
O    0.2819513   -0.0044870  -10.0902551  
C    0.7762289   -0.0032489   -7.7870091  
H    1.9128700   -0.0021246   -5.0030339  
H   -3.2010522   -0.0025068   -7.1199508  
H    1.8415257   -0.0033414   -7.9737350  
H   -2.2733171   -0.0005419   -4.4828448  
C    0.0000000    0.0000000    1.4700000  
C    1.0541688    0.0001722    2.3260392  
C    0.5103138    0.0000454    3.6635956  
C   -0.9576371   -0.0002459    3.5155732  
N   -1.2018458    0.0001392    2.1615969  
C   -1.8348311   -0.0008317    4.5510609  
C   -1.2972847   -0.0009736    5.9014604  
O   -2.0050672   -0.0014265    6.9001319  
C    0.2542623   -0.0004184    6.0817573  
O    0.7184670   -0.0002256    7.2139121  
C    1.0974552   -0.0000873    4.8889129  
H    2.0940752    0.0005483    2.0517982  
H   -2.9081052   -0.0011668    4.4207061  
H    2.1707277    0.0000911    5.0223670  
H   -2.1128194   -0.0014912    1.7406791  
