58

C   -9.0870905    3.2549078   -1.1571605  
C  -10.2267640    2.5177834   -1.1139334  
C   -9.8583287    1.1548436   -1.4164010  
C   -8.4001286    1.1583743   -1.6409680  
N   -7.9935761    2.4615112   -1.4693906  
C   -7.6673854    0.0591955   -1.9517685  
C   -8.3612631   -1.2121293   -2.0734290  
O   -7.7901702   -2.2588885   -2.3499209  
C   -9.9054838   -1.2391802   -1.8400697  
O  -10.5005437   -2.3036810   -1.9400835  
C  -10.5854219    0.0108526   -1.5099873  
H  -11.2130104    2.8867480   -0.8953099  
H  -11.6546739   -0.0164539   -1.3497381  
H   -8.9540861    4.3110239   -0.9874015  
H   -7.0478327    2.7858536   -1.5555178  
C   -4.2186865    2.1401318   -0.0437260  
C   -5.4804250    1.7323141   -0.3144295  
C   -5.3466897    0.8217462   -1.4411418  
C   -3.8965666    0.7958597   -1.7293371  
N   -3.2302259    1.5666944   -0.9133753  
C   -3.3460097   -0.0004262   -2.7913647  
C   -4.2050302   -0.7376508   -3.5315799  
O   -3.8298203   -1.5261790   -4.5530896  
C   -5.6737596   -0.7329691   -3.2651708  
O   -6.3965398   -1.4282088   -3.9789289  
C   -6.2140638    0.0921566   -2.1701080  
H   -6.3895961    2.0144736    0.1884319  
H   -4.6590779   -1.9185769   -4.8809753  
H   -3.8917480    2.8223391    0.7248296  
C    0.0000000    0.0000000    0.0000000  
C    1.0662919   -0.0000103   -0.8334272  
C    0.4961868    0.0000066   -2.1718889  
C   -0.9663860   -0.0000849   -1.9540248  
N   -1.2632775   -0.0000084   -0.6828659  
C   -1.8985364   -0.0000515   -3.0477258  
C   -1.3925778    0.0004567   -4.3020543  
O   -2.1456385    0.0005412   -5.4151314  
C    0.0786229    0.0009326   -4.5544999  
O    0.4683756    0.0012594   -5.7221104  
C    1.0143162    0.0008443   -3.4159034  
H    2.1107195    0.0000631   -0.5721869  
H   -1.5042277    0.0009692   -6.1484420  
H    2.0724151    0.0013151   -3.6409746  
C    0.0000000    0.0000000    1.4700000  
C    1.0662921    0.0000102    2.3034270  
C    0.4961870   -0.0000064    3.6418889  
C   -0.9663858    0.0000850    3.4240247  
N   -1.2632773    0.0000084    2.1528658  
C   -1.8985362    0.0000517    4.5177257  
C   -1.3925775   -0.0004564    5.7720543  
O   -2.1456383   -0.0005410    6.8851312  
C    0.0786232   -0.0009323    6.0245000  
O    0.4683759   -0.0012588    7.1921102  
C    1.0143166   -0.0008442    4.8859032  
H    2.1107198   -0.0000632    2.0421868  
H   -2.9622183    0.0003270    4.3293377  
H   -1.5042274   -0.0009692    7.6184419  
H    2.0724152   -0.0013148    5.1109744  
