64

C    0.6781145   -0.7162599   -5.1604645  
C   -0.1387079    0.0017019   -4.3179684  
C   -1.0478130    0.7305978   -5.1406703  
C   -0.7352232    0.4146204   -6.4876569  
N    0.3186252   -0.4648430   -6.4638853  
C   -1.4322859    0.9549030   -7.5725470  
C   -2.4638924    1.8298711   -7.2925530  
O   -3.1776732    2.3862181   -8.3143196  
C   -2.7906191    2.1577872   -5.9551904  
O   -3.8423100    3.0433748   -5.8410699  
C   -2.1032015    1.6253726   -4.8844344  
H   -1.1988695    0.7182162   -8.6014779  
H   -3.8402269    2.9578224   -7.9049826  
H   -3.9981261    3.2117475   -4.9067382  
H   -2.3761700    1.8953599   -3.8709883  
H    1.4896294   -1.3866873   -4.9347903  
C    1.8601550   -4.5775772   -7.2998066  
C    1.3010495   -3.4718316   -6.7021481  
C    1.3553196   -2.4115236   -7.6547248  
C    1.9628403   -2.9341439   -8.8250715  
N    2.2586861   -4.2511588   -8.5749430  
C    2.1786915   -2.1655018   -9.9728464  
C    1.7736037   -0.8453079   -9.9386445  
O    1.9601319   -0.0499716  -11.0321066  
C    1.1659661   -0.3054994   -8.7801107  
O    0.8190575    1.0241592   -8.9026106  
C    0.9529565   -1.0631269   -7.6473466  
H    0.9040406   -3.4337983   -5.7021831  
H    2.6869209   -4.8836510   -9.2265176  
H    2.6413172   -2.5578397  -10.8679727  
H    1.6120291    0.8205531  -10.7991343  
H    0.4153987    1.3104301   -8.0775573  
H    2.0074874   -5.5728807   -6.9168925  
C    3.3041273    0.0001178   -1.5420428  
C    2.5845373   -0.0004780   -0.3695851  
C    1.2040007   -0.0000007   -0.7283589  
C    1.1422374    0.0006038   -2.1454372  
N    2.4348641    0.0026111   -2.6077464  
C   -0.0655179    0.0008799   -2.8497918  
C   -1.2321766    0.0002325   -2.1101402  
O   -2.4392814    0.0001148   -2.7472522  
C   -1.1911209   -0.0000007   -0.6955266  
O   -2.4371528   -0.0002320   -0.1032862  
C    0.0000000    0.0000000    0.0000000  
H    3.0031533   -0.0000660    0.6222584  
H    2.7054631   -0.0071097   -3.5745261  
H   -3.1132988   -0.0000648   -2.0551787  
H   -2.3200282   -0.0004072    0.8516409  
H    4.3686625    0.0004073   -1.7024290  
C    0.0000000    0.0000000    1.4700000  
C    1.0541688    0.0001722    2.3260392  
C    0.5103138    0.0000454    3.6635956  
C   -0.9576371   -0.0002459    3.5155732  
N   -1.2018458    0.0001392    2.1615969  
C   -1.8348311   -0.0008317    4.5510609  
C   -1.2972847   -0.0009736    5.9014604  
O   -2.0050672   -0.0014265    6.9001319  
C    0.2542623   -0.0004184    6.0817573  
O    0.7184670   -0.0002256    7.2139121  
C    1.0974552   -0.0000873    4.8889129  
H    2.0940752    0.0005483    2.0517982  
H   -2.9081052   -0.0011668    4.4207061  
H    2.1707277    0.0000911    5.0223670  
H   -2.1128194   -0.0014912    1.7406791  
