62

C    0.0000000    0.0000000    0.0000000  
C    1.0521666   -0.0011919   -0.8862347  
C    0.4917214   -0.0011970   -2.1979137  
C   -0.9187430    0.0003150   -2.0478685  
N   -1.1833169   -0.0009400   -0.7007914  
C   -1.7951704    0.0010362   -3.1372093  
C   -1.2375839    0.0005226   -4.4010426  
O   -2.0474219    0.0015368   -5.4997582  
C    0.1673578   -0.0013584   -4.5711968  
O    0.5673517   -0.0020713   -5.8915553  
C    1.0325771   -0.0023435   -3.4969896  
H    2.0953056   -0.0030677   -0.6200564  
H   -2.0989775    0.0102397   -0.2891824  
H   -1.4634892    0.0006500   -6.2693593  
H    1.5290702   -0.0033188   -5.9180049  
H    2.1042143   -0.0039648   -3.6584464  
C   -3.9705525    0.7070975   -2.0745739  
C   -3.2578656    0.0024070   -2.9908506  
C   -4.2093235   -0.7382521   -3.7851983  
C   -5.5443152   -0.4048853   -3.2527939  
N   -5.3302022    0.4752933   -2.2172597  
C   -6.7108617   -0.9029277   -3.7353163  
C   -6.6473155   -1.8292862   -4.8535100  
O   -7.6421039   -2.3324251   -5.3590286  
C   -5.2441074   -2.1966257   -5.4330563  
O   -5.1780557   -2.9757341   -6.3742720  
C   -4.0579927   -1.5951374   -4.8287417  
H   -3.0902117   -1.8545058   -5.2359909  
H   -3.6168779    1.3760943   -1.3069498  
H   -6.0507890    0.8875112   -1.6534528  
C   -8.3718067    2.9319482   -2.2882948  
C   -9.6190785    2.4645931   -1.9442612  
C   -9.6393769    1.0707308   -2.2464794  
C   -8.3656898    0.7412077   -2.7766317  
N   -7.6211822    1.8945281   -2.7899643  
C   -8.0281028   -0.5527294   -3.1847368  
C   -8.9937871   -1.5319142   -3.0550160  
O   -8.7170905   -2.8124789   -3.4379086  
C  -10.2705532   -1.2226677   -2.5286583  
O  -11.1221739   -2.3060999   -2.4633746  
C  -10.6043751    0.0536701   -2.1261040  
H  -10.4165934    3.0558292   -1.5278445  
H   -6.6703691    1.9679179   -3.1038906  
H   -9.5159592   -3.3276382   -3.2656174  
H  -11.9615947   -2.0115018   -2.0970581  
H  -11.5904595    0.2604208   -1.7268908  
H   -7.9587129    3.9235166   -2.2168501  
C    1.0965515   -0.0001358    2.2710304  
C    0.0000000    0.0000000    1.4700000  
C   -1.1546562   -0.0001469    2.3369512  
C   -0.6372014   -0.0003519    3.7186280  
N    0.7342871   -0.0007337    3.6095011  
C   -1.4147739   -0.0001353    4.8308716  
C   -2.8576048    0.0001048    4.6554461  
O   -3.6427778    0.0002493    5.5944904  
C   -3.4275839    0.0000726    3.2011665  
O   -4.6406829   -0.0000333    3.0410059  
C   -2.4891866    0.0001091    2.0816745  
H   -1.0150448   -0.0001615    5.8354244  
H   -2.8919121    0.0002919    1.0779135  
H    2.1388271   -0.0000662    1.9961646  
H    1.3735872    0.0006099    4.3830260  
