58

C   -1.1313486    0.0361426   -0.8009269  
C   -0.7966658    0.0230574   -2.1169401  
C    0.6448567   -0.0250666   -2.1842672  
C    1.1260065   -0.0390749   -0.7896029  
N    0.0000000    0.0000000    0.0000000  
C    2.4332152   -0.0824983   -0.4276294  
C    3.4330001   -0.1175673   -1.4820183  
O    4.6357835   -0.1576137   -1.2583919  
C    2.9460913   -0.1032490   -2.9661078  
O    3.7786321   -0.1321703   -3.8623777  
C    1.5103665   -0.0556537   -3.2312127  
H   -1.4814523    0.0448349   -2.9459193  
H    2.7649204   -0.0921803    0.6013445  
H   -2.1092919    0.0693649   -0.3488058  
C    1.0633367   -0.0428368   -4.6315339  
C   -0.2053118   -0.0021952   -5.1010638  
C   -0.0695520   -0.0083808   -6.5495224  
C    1.3891995   -0.0559537   -6.7869351  
N    2.0584250   -0.0764032   -5.6663519  
C    1.9440894   -0.0756186   -8.1123771  
C    1.0809129   -0.0493584   -9.1533250  
O    1.4593998   -0.0633017  -10.4427414  
C   -0.3965820   -0.0015983   -8.9462287  
O   -1.1227433    0.0204512   -9.9399207  
C   -0.9411905    0.0178408   -7.5769411  
H   -1.1202560    0.0281344   -4.5344661  
H    3.0141045   -0.1102692   -8.2565174  
H    0.6257063   -0.0372660  -10.9461594  
C   -3.5280692    2.2137661   -4.7895928  
C   -4.7413528    1.7871773   -5.2255277  
C   -4.4995366    0.8819603   -6.3241373  
C   -3.0354191    0.8156477   -6.4937051  
N   -2.5048576    1.6457092   -5.5332927  
C   -2.4031587    0.0648588   -7.4308646  
C   -3.2191409   -0.7308404   -8.3328465  
O   -2.7442166   -1.4398112   -9.2104043  
C   -4.7717940   -0.6756426   -8.1715184  
O   -5.4691171   -1.3410335   -8.9253461  
C   -5.3368989    0.1707734   -7.1236216  
H   -5.6967021    2.0740499   -4.8235012  
H   -6.4128144    0.2032739   -7.0183897  
H   -3.2953478    2.8955006   -3.9877398  
H   -1.5251617    1.8115620   -5.3928088  
C    0.8681109    0.7263879    2.2709268  
C    0.6127770    0.5096195    3.5869401  
C   -0.4920590   -0.4175482    3.6542670  
C   -0.8620974   -0.7254003    2.2596025  
N    0.0000000    0.0000000    1.4700000  
C   -1.8641242   -1.5660088    1.8976294  
C   -2.6293522   -2.2103885    2.9520183  
O   -3.5512764   -2.9839180    2.7283916  
C   -2.2549728   -1.8987399    4.4361073  
O   -2.8923672   -2.4351063    5.3323774  
C   -1.1543735   -0.9755647    4.7012123  
H    1.1382914    0.9492124    4.4159191  
H   -2.1192137   -1.7782617    0.8686553  
H   -0.9013378   -0.7652422    5.7314848  
H    1.6172880    1.3558399    1.8188057  
