60

C    1.1188649    0.0008221   -0.8003804  
C    0.0000000    0.0000000    0.0000000  
C   -1.1323857    0.0008896   -0.8673533  
C   -0.6382653    0.0019679   -2.1969282  
N    0.7324024    0.0038481   -2.1202234  
C   -1.4770903    0.0027316   -3.3154811  
C   -2.8395464    0.0020941   -3.0876863  
O   -3.7039188    0.0024421   -4.1440360  
C   -3.3517863    0.0013927   -1.7684336  
O   -4.7300487    0.0012365   -1.7073135  
C   -2.5248538    0.0009121   -0.6644827  
H    1.3576323   -0.0056167   -2.9057037  
H   -4.5940020    0.0021826   -3.7685144  
H   -4.9934599    0.0007260   -0.7819922  
H   -2.9462576    0.0005599    0.3339650  
H    2.1619893    0.0009354   -0.5342059  
C    1.8906719   -2.0861103   -5.2626200  
C    0.9779278   -1.6251677   -4.3690289  
C    0.1016446   -0.7294209   -5.0863858  
C    0.5821206   -0.7061488   -6.4811591  
N    1.6688588   -1.5489159   -6.5215724  
C    0.0179729    0.0235399   -7.4766474  
C   -1.1395617    0.8406737   -7.1527018  
O   -1.7182887    1.5334119   -7.9794364  
C   -1.6653046    0.8314581   -5.6818808  
O   -2.6389745    1.5156840   -5.3971660  
C   -0.9736282    0.0040461   -4.6965765  
H    0.9247018   -1.8830608   -3.3263057  
H    0.3859497    0.0263615   -8.4932573  
H    2.7068325   -2.7728804   -5.1073197  
C    3.5765144   -5.1790009   -8.2673608  
C    2.8805229   -4.3704806   -7.4346118  
C    2.9503755   -3.0524001   -8.0463993  
C    3.7483509   -3.2535567   -9.2749576  
N    4.1181228   -4.4981693   -9.4098597  
C    4.0480324   -2.1725048  -10.1730688  
C    3.5718437   -0.9463154   -9.8583657  
O    3.7750183    0.1521967  -10.6053815  
C    2.7631981   -0.7113787   -8.6258647  
O    2.3623161    0.4307642   -8.4022056  
C    2.4693254   -1.8364986   -7.7205088  
H    2.3812968   -4.6357810   -6.5183885  
H    4.6336223   -2.3481362  -11.0636581  
H    3.3166902    0.8660598  -10.1263320  
H    3.7592199   -6.2370448   -8.1666898  
C    2.4951002    2.0940188    2.9809380  
C    1.9440701    1.6314916    1.8291961  
C    0.8759964    0.7350050    2.2038498  
C    0.8497377    0.7130254    3.6788474  
N    1.8560616    1.5571714    4.0882609  
C   -0.0205033   -0.0168748    4.4215661  
C   -0.9962600   -0.8356168    3.7214979  
O   -1.8224391   -1.5286685    4.3006425  
C   -0.9864710   -0.8277881    2.1595606  
O   -1.8030528   -1.5133726    1.5592035  
C    0.0000000    0.0000000    1.4700000  
H    2.2509283    1.8888011    0.8310761  
H   -0.0229599   -0.0187323    5.5027230  
H    3.3143982    2.7817323    3.1139444  
H    2.0889452    1.7545833    5.0442112  
