58

C    3.9404948   -0.7293556   -4.5163115  
C    4.0976527   -0.5146864   -5.8479622  
C    3.0657856    0.4119867   -6.2496620  
C    2.2890370    0.7218361   -5.0341601  
N    2.8699640   -0.0020532   -4.0185825  
C    1.2244920    1.5626418   -4.9954966  
C    0.8163866    2.2051407   -6.2337135  
O   -0.1297731    2.9786848   -6.3023652  
C    1.6244750    1.8913596   -7.5330744  
O    1.2900273    2.4261317   -8.5816083  
C    2.7534400    0.9681704   -7.4493442  
H    0.6684828    1.7763748   -4.0932320  
H    3.3078881    0.7563649   -8.3534737  
H    4.5165357   -1.3578517   -3.8567213  
C    3.2573669   -0.0002920   -1.5109380  
C    2.5379466   -0.0001708   -0.3591961  
C    1.1435042    0.0000330   -0.7338502  
C    1.1092605   -0.0000086   -2.2088474  
N    2.4227561    0.0001905   -2.6182611  
C   -0.0265534   -0.0002528   -2.9515662  
C   -1.3003036   -0.0002642   -2.2514981  
O   -2.3786785   -0.0004138   -2.8306424  
C   -1.2877727    0.0000310   -0.6895608  
O   -2.3539955    0.0003305   -0.0892036  
C    0.0000000    0.0000000    0.0000000  
H    2.9384091   -0.0000368    0.6389240  
H   -0.0296294   -0.0004092   -4.0327231  
H    4.3270392   -0.0004765   -1.6439446  
C    5.7761602   -4.5700036   -5.9906276  
C    6.6614138   -4.4111263   -7.0080553  
C    6.5514728   -3.0414910   -7.4517306  
C    5.5222440   -2.4109253   -6.6032817  
N    5.0916421   -3.3907183   -5.7387143  
C    5.1265464   -1.1170219   -6.7078869  
C    5.7562252   -0.2903340   -7.7240694  
O    5.4687331    0.8867965   -7.8973133  
C    6.8485388   -0.9374213   -8.6339787  
O    7.3854566   -0.2513481   -9.4932125  
C    7.1905731   -2.3422377   -8.4257598  
H    7.3165248   -5.1671662   -7.4028295  
H    7.9480212   -2.7826741   -9.0598041  
H    5.5660893   -5.4494378   -5.4038095  
H    4.3898211   -3.2674838   -5.0320964  
C    0.8175213    0.6860729    2.3021913  
C    0.0000000    0.0000000    1.4700000  
C   -0.8887526   -0.7456559    2.3478473  
C   -0.4549825   -0.3816753    3.7138435  
N    0.5448156    0.4573574    3.6934124  
C   -1.0945674   -0.9182058    4.8835240  
C   -2.1210866   -1.7789155    4.6970523  
O   -2.8083856   -2.3554314    5.6976972  
C   -2.5824069   -2.1655116    3.3310774  
O   -3.5227682   -2.9541547    3.2362962  
C   -1.9100805   -1.6015804    2.1470656  
H   -0.7567140   -0.6349833    5.8697035  
H   -3.4728268   -2.9124471    5.2533954  
H   -2.2742832   -1.9066565    1.1752040  
H    1.6189533    1.3585343    2.0405121  
