58

C    9.8839356    0.7279010   -0.4732438  
C   11.2226101    0.5112935   -0.5447060  
C   11.5561658   -0.4149977    0.5114949  
C   10.2930234   -0.7225112    1.2091327  
N    9.3177130    0.0022291    0.5638345  
C   10.1851490   -1.5623111    2.2697000  
C   11.3938145   -2.2061159    2.7567099  
O   11.4007031   -2.9789054    3.7059468  
C   12.7426546   -1.8948124    2.0331592  
O   13.7668900   -2.4307005    2.4344395  
C   12.7326249   -0.9725211    0.9004062  
H   11.8992259    0.9504419   -1.2560104  
H    9.2488601   -1.7743281    2.7670139  
H   13.6706712   -0.7624325    0.4047710  
H    9.2634355    1.3567717   -1.0908128  
C    5.7851528    0.0009360   -1.9873452  
C    4.7795901    0.0008674   -1.0815733  
C    5.4416652    0.0014223    0.2138632  
C    6.8854798    0.0016738   -0.1054857  
N    7.0929836    0.0014713   -1.3942570  
C    7.8916463    0.0022759    0.9205334  
C    7.4744098    0.0030007    2.2070976  
O    8.3032740    0.0036099    3.2649370  
C    6.0244005    0.0031411    2.5615457  
O    5.7170387    0.0036916    3.7534974  
C    5.0115684    0.0024703    1.4909874  
H    7.7145743    0.0040689    4.0412004  
H    3.9717453    0.0027120    1.7893136  
H    5.7099328    0.0006295   -3.0631309  
C    3.3321168    0.0004716   -1.3379341  
C    2.6974177    0.0000118   -2.5332316  
C    1.2800432   -0.0002116   -2.2052842  
C    1.2395033    0.0000644   -0.7271298  
N    2.4394059    0.0005460   -0.2131041  
C    0.0000000    0.0000000    0.0000000  
C   -1.1468704    0.0000635   -0.7169542  
O   -2.3742206    0.0000074   -0.1695488  
C   -1.1388774    0.0001608   -2.2096352  
O   -2.2206238    0.0000906   -2.7970409  
C    0.1454514    0.0001818   -2.9324241  
H    3.1367978   -0.0000649   -3.5160956  
H   -2.9844350    0.0001027   -0.9290164  
H    0.1083567    0.0003684   -4.0135594  
C    0.8400945    0.7047457    2.2710304  
C    0.0000000    0.0000000    1.4700000  
C   -0.8844236   -0.7423113    2.3369512  
C   -0.4878984   -0.4098547    3.7186280  
N    0.5629682    0.4714286    3.6095011  
C   -1.0836927   -0.9095027    4.8308716  
C   -2.1891196   -1.8367527    4.6554461  
O   -2.7906899   -2.3413415    5.5944904  
C   -2.6257283   -2.2031529    3.2011665  
O   -3.5549479   -2.9829990    3.0410059  
C   -1.9068976   -1.5999348    2.0816745  
H   -0.7774656   -0.6525820    5.8354244  
H   -2.2155208   -1.8586617    1.0779135  
H    1.6384792    1.3747609    1.9961646  
H    1.0518368    0.8833920    4.3830260  
