62

C    3.3003552    0.0005280   -1.4738977  
C    2.5232825    0.0003502   -2.6090739  
C    1.1623213   -0.0001314   -2.1820100  
C    1.1711888    0.0000585   -0.7636135  
N    2.4852303   -0.0014918   -0.3662347  
C    0.0000000    0.0000000    0.0000000  
C   -1.2020377    0.0000522   -0.6806483  
O   -2.3759246    0.0003491    0.0157740  
C   -1.2314651   -0.0005108   -2.0955516  
O   -2.5054381   -0.0008032   -2.6250187  
C   -0.0764503   -0.0007266   -2.8495194  
H    2.8036264    0.0088183    0.5858671  
H   -3.0835633    0.0000347   -0.6418827  
H   -2.4360031   -0.0011520   -3.5845931  
H   -0.1304079   -0.0013415   -3.9319088  
H    4.3715556    0.0004899   -1.3667118  
C    5.9080461   -2.1212781   -4.5066903  
C    5.7372507   -1.6233267   -5.7776506  
C    4.6108310   -0.7493032   -5.7345061  
C    4.1315423   -0.7536520   -4.3995197  
N    4.9405897   -1.5984024   -3.6808707  
C    3.0267451   -0.0008943   -3.9901690  
C    2.3944508    0.7705372   -4.9458227  
O    1.3109381    1.5252438   -4.6002320  
C    2.8575159    0.7878063   -6.2830172  
O    2.1214437    1.6053003   -7.1156310  
C    3.9471990    0.0452343   -6.6876206  
H    6.3485819   -1.8616759   -6.6311481  
H    4.8499648   -1.7941730   -2.7003391  
H    1.0265047    1.9789031   -5.4043193  
H    2.4998705    1.5596287   -7.9989831  
H    4.2786883    0.0784993   -7.7188748  
C    6.9109979   -3.0605609   -3.9844492  
C    7.9305746   -3.6749439   -4.6379561  
C    8.6184525   -4.4948557   -3.6687271  
C    7.9109603   -4.3064554   -2.3878087  
N    6.8865336   -3.4253681   -2.6468930  
C    8.2547826   -4.9123515   -1.2231716  
C    9.3980766   -5.8097594   -1.2317894  
O    9.7868341   -6.4028827   -0.2341051  
C   10.1622764   -6.0239351   -2.5771269  
O   11.1265746   -6.7769361   -2.5965783  
C    9.6968949   -5.3155098   -3.7668349  
H    8.1732157   -3.5660442   -5.6800113  
H    7.7223369   -4.7605589   -0.2945330  
H   10.2313607   -5.4694035   -4.6944051  
H    6.2220971   -3.0993048   -1.9692100  
C    0.8400945    0.7047457    2.2710304  
C    0.0000000    0.0000000    1.4700000  
C   -0.8844236   -0.7423113    2.3369512  
C   -0.4878984   -0.4098547    3.7186280  
N    0.5629682    0.4714286    3.6095011  
C   -1.0836927   -0.9095027    4.8308716  
C   -2.1891196   -1.8367527    4.6554461  
O   -2.7906899   -2.3413415    5.5944904  
C   -2.6257283   -2.2031529    3.2011665  
O   -3.5549479   -2.9829990    3.0410059  
C   -1.9068976   -1.5999348    2.0816745  
H   -0.7774656   -0.6525820    5.8354244  
H   -2.2155208   -1.8586617    1.0779135  
H    1.6384792    1.3747609    1.9961646  
H    1.0518368    0.8833920    4.3830260  
