60

C    3.3003541    0.0005278   -1.4738992  
C    2.5232807    0.0003501   -2.6090758  
C    1.1623196   -0.0001317   -2.1820111  
C    1.1711881    0.0000584   -0.7636150  
N    2.4852298   -0.0014917   -0.3662363  
C    0.0000000    0.0000000    0.0000000  
C   -1.2020384    0.0000521   -0.6806482  
O   -2.3759252    0.0003495    0.0157742  
C   -1.2314661   -0.0005110   -2.0955511  
O   -2.5054392   -0.0008035   -2.6250185  
C   -0.0764520   -0.0007270   -2.8495199  
H    2.8919952   -0.0005616   -3.6205308  
H    2.8036261    0.0088182    0.5858646  
H   -3.0835642    0.0000348   -0.6418824  
H   -2.4360052   -0.0011524   -3.5845926  
H    4.3715545    0.0004897   -1.3667141  
C   -0.1496419   -0.0015608   -4.3176963  
C    0.8738319   -0.0018367   -5.2031795  
C    0.2377931   -0.0026901   -6.5115962  
C   -1.2121183   -0.0029421   -6.2211815  
N   -1.4453517   -0.0022021   -4.9368177  
C   -2.1975670   -0.0037104   -7.2671149  
C   -1.7546879   -0.0038155   -8.5450795  
O   -2.5622338   -0.0045086   -9.6192818  
C   -0.2978811   -0.0031970   -8.8704626  
O    0.0332540   -0.0034571  -10.0560298  
C    0.6933416   -0.0024574   -7.7798652  
H    1.9299717   -0.0014121   -4.9942646  
H   -1.9581294   -0.0043718  -10.3836183  
H    1.7389215   -0.0019088   -8.0573394  
C   -4.2177397    0.7222050   -5.9142243  
C   -5.5574525    0.5048867   -5.8693154  
C   -5.8692971   -0.4227066   -6.9309925  
C   -4.5922831   -0.7302091   -7.6029069  
N   -3.6304810   -0.0042208   -6.9390033  
C   -4.4627464   -1.5710566   -8.6602149  
C   -5.6610670   -2.2160811   -9.1706137  
O   -5.6485355   -2.9898685  -10.1189785  
C   -7.0242818   -1.9048115   -8.4745088  
O   -8.0399850   -2.4417212   -8.8956221  
C   -7.0374270   -0.9813277   -7.3427593  
H   -6.2484050    0.9443830   -5.1721483  
H   -3.5165801   -1.7830450   -9.1384816  
H   -7.9853166   -0.7712709   -6.8662036  
H   -3.6100691    1.3520867   -5.2850379  
C    0.8681109    0.7263879    2.2709268  
C    0.6127770    0.5096195    3.5869401  
C   -0.4920590   -0.4175482    3.6542670  
C   -0.8620974   -0.7254003    2.2596025  
N    0.0000000    0.0000000    1.4700000  
C   -1.8641242   -1.5660088    1.8976294  
C   -2.6293522   -2.2103885    2.9520183  
O   -3.5512764   -2.9839180    2.7283916  
C   -2.2549728   -1.8987399    4.4361073  
O   -2.8923672   -2.4351063    5.3323774  
C   -1.1543735   -0.9755647    4.7012123  
H    1.1382914    0.9492124    4.4159191  
H   -2.1192137   -1.7782617    0.8686553  
H   -0.9013378   -0.7652422    5.7314848  
H    1.6172880    1.3558399    1.8188057  
