62

C    3.3003552    0.0005277   -1.4738975  
C    2.5232823    0.0003499   -2.6090738  
C    1.1623209   -0.0001317   -2.1820098  
C    1.1711889    0.0000585   -0.7636139  
N    2.4852303   -0.0014919   -0.3662348  
C    0.0000000    0.0000000    0.0000000  
C   -1.2020380    0.0000521   -0.6806489  
O   -2.3759250    0.0003494    0.0157737  
C   -1.2314649   -0.0005110   -2.0955512  
O   -2.5054378   -0.0008035   -2.6250191  
C   -0.0764505   -0.0007270   -2.8495197  
H    2.8036265    0.0088180    0.5858674  
H   -3.0835637    0.0000348   -0.6418826  
H   -2.4360035   -0.0011524   -3.5845931  
H   -0.1304079   -0.0013417   -3.9319086  
H    4.3715557    0.0004894   -1.3667119  
C    5.9339406   -2.1239628   -4.5697786  
C    5.0139160   -1.6613190   -3.6576479  
C    4.1430878   -0.7747004   -4.3577668  
C    4.5843202   -0.7357737   -5.7052550  
N    5.6745662   -1.5647286   -5.7991402  
C    3.9561325    0.0394410   -6.6846482  
C    2.8624174    0.7887790   -6.2967603  
O    2.2114302    1.5633307   -7.2128923  
C    2.4073436    0.7634327   -4.9569529  
O    1.3072178    1.5639368   -4.7283487  
C    3.0267451   -0.0008949   -3.9901692  
H    4.9758723   -1.9289913   -2.6155839  
H    6.1946456   -1.7467726   -6.6384015  
H    1.4889968    1.9966214   -6.7400143  
H    1.0643876    1.4893958   -3.8004040  
H    6.7555171   -2.8075029   -4.4403766  
C    4.4067695    0.0858293   -8.0831023  
C    5.4452447   -0.5633182   -8.6698331  
C    5.4549315   -0.1722428  -10.0597253  
C    4.3289188    0.7646935  -10.2358962  
N    3.7338131    0.8782802   -9.0006484  
C    4.0008536    1.3603559  -11.4103172  
C    4.8106923    1.0583549  -12.5788592  
O    4.5959936    1.5441115  -13.6816946  
C    6.0079893    0.0686253  -12.4153943  
O    6.6967227   -0.1934859  -13.3922289  
C    6.2629354   -0.5100027  -11.0985634  
H    6.1266017   -1.2391436   -8.1844191  
H    3.1708729    2.0447805  -11.5180427  
H    7.0939598   -1.1942085  -10.9937523  
H    2.9350374    1.4504468   -8.7966141  
C    0.8681109    0.7263879    2.2709268  
C    0.6127770    0.5096195    3.5869401  
C   -0.4920590   -0.4175482    3.6542670  
C   -0.8620974   -0.7254003    2.2596025  
N    0.0000000    0.0000000    1.4700000  
C   -1.8641242   -1.5660088    1.8976294  
C   -2.6293522   -2.2103885    2.9520183  
O   -3.5512764   -2.9839180    2.7283916  
C   -2.2549728   -1.8987399    4.4361073  
O   -2.8923672   -2.4351063    5.3323774  
C   -1.1543735   -0.9755647    4.7012123  
H    1.1382914    0.9492124    4.4159191  
H   -2.1192137   -1.7782617    0.8686553  
H   -0.9013378   -0.7652422    5.7314848  
H    1.6172880    1.3558399    1.8188057  
