60

C    3.3003542    0.0005278   -1.4738987  
C    2.5232813    0.0003500   -2.6090747  
C    1.1623198   -0.0001315   -2.1820098  
C    1.1711882    0.0000585   -0.7636139  
N    2.4852299   -0.0014917   -0.3662356  
C    0.0000000    0.0000000    0.0000000  
C   -1.2020384    0.0000521   -0.6806476  
O   -2.3759250    0.0003495    0.0157752  
C   -1.2314658   -0.0005109   -2.0955504  
O   -2.5054390   -0.0008033   -2.6250178  
C   -0.0764517   -0.0007269   -2.8495190  
H    2.8919952   -0.0005615   -3.6205299  
H    2.8036264    0.0088181    0.5858664  
H   -3.0835640    0.0000349   -0.6418814  
H   -2.4360049   -0.0011521   -3.5845916  
H    4.3715550    0.0004897   -1.3667131  
C    2.2697430   -2.0933922   -5.9499304  
C    1.7761646   -1.6308841   -4.7724154  
C    0.6896457   -0.7359131   -5.0938791  
C    0.5899536   -0.7148023   -6.5657504  
N    1.5756958   -1.5579527   -7.0243341  
C   -0.3170961    0.0136149   -7.2645882  
C   -1.2578065    0.8315636   -6.5172203  
O   -2.1126588    1.5232787   -7.0548617  
C   -1.1702524    0.8246329   -4.9577036  
O   -1.9567839    1.5095616   -4.3177804  
C   -0.1496416   -0.0015606   -4.3176956  
H    2.1326581   -1.8872530   -3.7906820  
H    3.0822591   -2.7801820   -6.1232168  
H    1.7609408   -1.7556229   -7.9905940  
C   -0.3936250    0.0153025   -8.7325936  
C    0.3689978   -0.6603843   -9.6303298  
C   -0.1170473   -0.3097199  -10.9439616  
C   -1.2333343    0.6324253  -10.7364615  
N   -1.3501115    0.7873023   -9.3743800  
C   -1.9586359    1.1970231  -11.7348965  
C   -1.6171858    0.8536992  -13.1053250  
O   -2.2109177    1.3094288  -14.0738775  
C   -0.4387289   -0.1422612  -13.3484461  
O   -0.1422978   -0.4390235  -14.4979341  
C    0.2688892   -0.6850231  -12.1914940  
H    1.1794105   -1.3283717   -9.3987314  
H   -2.7735649    1.8859290  -11.5610894  
H    1.0837561   -1.3738045  -12.3684014  
H   -2.0247912    1.3727080   -8.9170458  
C    0.0000000    0.0000000    1.4700000  
C    1.0541688    0.0001722    2.3260392  
C    0.5103138    0.0000454    3.6635956  
C   -0.9576371   -0.0002459    3.5155732  
N   -1.2018458    0.0001392    2.1615969  
C   -1.8348311   -0.0008317    4.5510609  
C   -1.2972847   -0.0009736    5.9014604  
O   -2.0050672   -0.0014265    6.9001319  
C    0.2542623   -0.0004184    6.0817573  
O    0.7184670   -0.0002256    7.2139121  
C    1.0974552   -0.0000873    4.8889129  
H    2.0940752    0.0005483    2.0517982  
H   -2.9081052   -0.0011668    4.4207061  
H    2.1707277    0.0000911    5.0223670  
H   -2.1128194   -0.0014912    1.7406791  
