62

C    1.9074108   -2.1157062   -5.2171228  
C    1.7366753   -1.6153229   -6.4871356  
C    0.6103628   -0.7412451   -6.4423316  
C    0.1310741   -0.7480685   -5.1073549  
N    0.9400188   -1.5942802   -4.3903111  
C   -0.9736305    0.0040464   -4.6965761  
C   -1.6058310    0.7773675   -5.6507637  
O   -2.6892514    1.5315493   -5.3037402  
C   -1.1427646    0.7971172   -6.9879235  
O   -1.8787373    1.6162795   -7.8189834  
C   -0.0531729    0.0551810   -7.3939360  
H    0.8493707   -1.7918999   -3.4101531  
H   -2.9736292    1.9867680   -6.1069646  
H   -1.5003168    1.5722378   -8.7024209  
H    0.2783196    0.0903623   -8.4251257  
H    2.6418349   -2.8044007   -4.8359680  
C    1.1188638    0.0008222   -0.8003807  
C    0.0000000    0.0000000    0.0000000  
C   -1.1323863    0.0008897   -0.8673528  
C   -0.6382665    0.0019678   -2.1969280  
N    0.7324013    0.0038482   -2.1202242  
C   -1.4770921    0.0027316   -3.3154799  
C   -2.8395481    0.0020941   -3.0876851  
O   -3.7039209    0.0024421   -4.1440337  
C   -3.3517872    0.0013923   -1.7684324  
O   -4.7300501    0.0012357   -1.7073109  
C   -2.5248545    0.0009118   -0.6644811  
H    1.3576309   -0.0056164   -2.9057046  
H   -4.5940041    0.0021820   -3.7685117  
H   -4.9934604    0.0007252   -0.7819900  
H   -2.9462579    0.0005598    0.3339668  
H    2.1619891    0.0009357   -0.5342068  
C    3.0728963   -3.1956182   -7.9553124  
C    3.8083013   -3.1648181   -9.0964985  
C    3.7886890   -1.8020649   -9.5733153  
C    2.9757707   -1.0359625   -8.6094470  
N    2.5713789   -1.9386678   -7.6531625  
C    2.7176026    0.2928165   -8.7063982  
C    3.2775821    1.0167050   -9.8355324  
O    3.1022498    2.2152866  -10.0114922  
C    4.1414124    0.2254025  -10.8687033  
O    4.6178557    0.8241178  -11.8235865  
C    4.3498301   -1.2048560  -10.6571041  
H    4.3073836   -4.0013164   -9.5523515  
H    2.1188728    0.8358193   -7.9883583  
H    4.9493147   -1.7454252  -11.3769159  
H    2.8549400   -4.0308531   -7.3097374  
C    0.0000000    0.0000000    1.4700000  
C    1.0541688    0.0001722    2.3260392  
C    0.5103138    0.0000454    3.6635956  
C   -0.9576371   -0.0002459    3.5155732  
N   -1.2018458    0.0001392    2.1615969  
C   -1.8348311   -0.0008317    4.5510609  
C   -1.2972847   -0.0009736    5.9014604  
O   -2.0050672   -0.0014265    6.9001319  
C    0.2542623   -0.0004184    6.0817573  
O    0.7184670   -0.0002256    7.2139121  
C    1.0974552   -0.0000873    4.8889129  
H    2.0940752    0.0005483    2.0517982  
H   -2.9081052   -0.0011668    4.4207061  
H    2.1707277    0.0000911    5.0223670  
H   -2.1128194   -0.0014912    1.7406791  
