60

C    0.0000000    0.0000000    0.0000000  
C    1.0521666   -0.0011908   -0.8862345  
C    0.4917224   -0.0011958   -2.1979133  
C   -0.9187422    0.0003157   -2.0478684  
N   -1.1833169   -0.0009403   -0.7007915  
C   -1.7951696    0.0010365   -3.1372093  
C   -1.2375833    0.0005235   -4.4010426  
O   -2.0474210    0.0015378   -5.4997584  
C    0.1673590   -0.0013564   -4.5711967  
O    0.5673531   -0.0020684   -5.8915553  
C    1.0325774   -0.0023415   -3.4969893  
H    2.0953060   -0.0030663   -0.6200562  
H   -2.0989773    0.0102386   -0.2891828  
H   -1.4634876    0.0006514   -6.2693596  
H    1.5290718   -0.0033159   -5.9180047  
H    2.1042148   -0.0039619   -3.6584454  
C   -3.9676849    0.7292831   -2.0471641  
C   -5.3027878    0.5138166   -2.1702462  
C   -5.4806683   -0.4129604   -3.2630766  
C   -4.1300709   -0.7220025   -3.7701961  
N   -3.2578650    0.0024062   -2.9908511  
C   -3.8704658   -1.5626511   -4.8034530  
C   -4.9964202   -2.2058215   -5.4600306  
O   -4.8664343   -2.9792853   -6.3997948  
C   -6.4355617   -1.8929007   -4.9396875  
O   -7.3913520   -2.4282425   -5.4847871  
C   -6.5888872   -0.9698050   -3.8179754  
H   -2.8722056   -1.7757872   -5.1597662  
H   -7.5886456   -0.7585976   -3.4635767  
H   -3.4426178    1.3580914   -1.3465969  
C   -6.0492692    4.5422414   -0.4155375  
C   -5.4660108    3.5267693   -1.0939223  
C   -6.3650213    2.3959094   -0.9223535  
C   -7.4695204    2.9206355   -0.0908927  
N   -7.2899723    4.1782784    0.2092519  
C   -8.5791535    2.0987132    0.3069077  
C   -8.5853138    0.8112245   -0.1074226  
O   -9.5573195   -0.0680890    0.1893156  
C   -7.4854469    0.2522672   -0.9476733  
O   -7.5564336   -0.9284583   -1.2883615  
C   -6.3581619    1.1155199   -1.3425759  
H   -4.5401082    3.5431185   -1.6430242  
H   -9.3724624    2.5083658    0.9149833  
H   -9.2830312   -0.8964519   -0.2439666  
H   -5.6943487    5.5540007   -0.3000065  
C    1.0965515   -0.0001358    2.2710304  
C    0.0000000    0.0000000    1.4700000  
C   -1.1546562   -0.0001469    2.3369512  
C   -0.6372014   -0.0003519    3.7186280  
N    0.7342871   -0.0007337    3.6095011  
C   -1.4147739   -0.0001353    4.8308716  
C   -2.8576048    0.0001048    4.6554461  
O   -3.6427778    0.0002493    5.5944904  
C   -3.4275839    0.0000726    3.2011665  
O   -4.6406829   -0.0000333    3.0410059  
C   -2.4891866    0.0001091    2.0816745  
H   -1.0150448   -0.0001615    5.8354244  
H   -2.8919121    0.0002919    1.0779135  
H    2.1388271   -0.0000662    1.9961646  
H    1.3735872    0.0006099    4.3830260  
