58

C   -4.2402413    2.1074677   -4.3160674  
C   -5.4799362    1.6430198   -4.6185900  
C   -5.3316867    0.7481925   -5.7420409  
C   -3.8936892    0.7292350   -6.0715769  
N   -3.2874208    1.5740051   -5.1706379  
C   -3.3447152    0.0009687   -7.0765452  
C   -4.2292044   -0.8187317   -7.8879060  
O   -3.8313143   -1.5103678   -8.8161423  
C   -5.7557104   -0.8137084   -7.5569068  
O   -6.5101749   -1.4996509   -8.2333139  
C   -6.2288365    0.0120731   -6.4487151  
H   -6.3939573    1.8982935   -4.1126122  
H   -7.2871712    0.0098209   -6.2259019  
H   -3.9425759    2.7947409   -3.5408639  
H   -2.3039716    1.7709366   -5.1375792  
C    0.0950448    0.0004350   -4.4015596  
C    1.1321307    0.0004159   -5.2710609  
C    0.5164640    0.0007452   -6.5891858  
C   -0.9377780    0.0008253   -6.3212970  
N   -1.1909058    0.0007250   -5.0407053  
C   -1.9068841    0.0011806   -7.3823905  
C   -1.4442349    0.0018328   -8.6533312  
O   -2.2350210    0.0022170   -9.7399306  
C    0.0174441    0.0021418   -8.9560775  
O    0.3669293    0.0026143  -10.1363659  
C    0.9916305    0.0017233   -7.8502354  
H    2.1849022    0.0002949   -5.0457884  
H   -1.6191332    0.0026797  -10.4948035  
H    2.0413894    0.0020816   -8.1114570  
C    3.3321173    0.0004714   -1.3379336  
C    2.6974184    0.0000115   -2.5332313  
C    1.2800437   -0.0002119   -2.2052840  
C    1.2395034    0.0000643   -0.7271298  
N    2.4394063    0.0005459   -0.2131037  
C    0.0000000    0.0000000    0.0000000  
C   -1.1468702    0.0000634   -0.7169544  
O   -2.3742202    0.0000072   -0.1695489  
C   -1.1388770    0.0001606   -2.2096356  
O   -2.2206231    0.0000903   -2.7970412  
C    0.1454523    0.0001814   -2.9324241  
H    3.1367986   -0.0000653   -3.5160949  
H   -2.9844345    0.0001025   -0.9290168  
H    4.3940040    0.0007618   -1.1498638  
C    2.5128556    2.1077716    2.9199648  
C    1.9592212    1.6432552    4.0696553  
C    0.8915788    0.7479214    3.6910360  
C    0.8684491    0.7287414    2.2159470  
N    1.8754542    1.5738793    1.8102719  
C    0.0000000    0.0000000    1.4700000  
C   -0.9772830   -0.8200135    2.1664417  
O   -1.8021297   -1.5120829    1.5842315  
C   -0.9711318   -0.8147624    3.7284083  
O   -1.7894187   -1.5009653    4.3257297  
C    0.0140216    0.0115358    4.4216297  
H    2.2638494    1.8988021    5.0689105  
H    0.0117648    0.0094386    5.5031631  
H    3.3327358    2.7953732    2.7900019  
H    2.1123206    1.7707734    0.8551938  
