62

C   -2.7135148    1.8786119   -1.4738977  
C   -2.0745838    1.4363340   -2.6090739  
C   -0.9554665    0.6618714   -2.1820099  
C   -0.9628650    0.6667644   -0.7636138  
N   -2.0422526    1.4161839   -0.3662350  
C    0.0000000    0.0000000    0.0000000  
C    0.9881625   -0.6844192   -0.6806482  
O    1.9530430   -1.3530118    0.0157739  
C    1.0126753   -0.7007104   -2.0955512  
O    2.0601717   -1.4258022   -2.6250186  
C    0.0632633   -0.0429294   -2.8495194  
H   -2.3098751    1.5889858    0.5858674  
H    2.5349703   -1.7556451   -0.6418822  
H    2.0032883   -1.3859836   -3.5845927  
H    0.1079718   -0.0731451   -3.9319087  
H   -3.5941241    2.4885275   -1.3667125  
C   -3.6522820    5.0738313   -4.5522449  
C   -3.1652080    4.1738900   -3.6595304  
C   -2.9538814    2.9397365   -4.3785862  
C   -3.3606539    3.1962877   -5.7734008  
N   -3.7743501    4.5078665   -5.8122142  
C   -3.3111267    2.2767771   -6.7702719  
C   -2.8249385    0.9455300   -6.4478778  
O   -2.7425728    0.0478363   -7.2759253  
C   -2.3890325    0.6515352   -4.9770424  
O   -1.9783124   -0.4657139   -4.6936260  
C   -2.4877705    1.7240018   -3.9901692  
H   -2.9757692    4.3539953   -2.6163196  
H   -3.6141734    2.4855125   -7.7868855  
H   -4.1109842    4.9816177   -6.6303122  
C   -3.5895426    7.6250625   -0.9402980  
C   -4.0796139    8.7697369   -1.5251222  
C   -4.3098287    8.4689606   -2.9003078  
C   -3.9390076    7.1141830   -3.0977798  
N   -3.5043296    6.6321951   -1.8880856  
C   -4.0344704    6.4771204   -4.3386777  
C   -4.5132784    7.2211662   -5.3994869  
O   -4.6272197    6.6483559   -6.6331479  
C   -4.8880052    8.5743291   -5.2224391  
O   -5.3452472    9.1797979   -6.3746899  
C   -4.7938399    9.2035317   -3.9986074  
H   -4.2491612    9.7066270   -1.0226443  
H   -3.1864636    5.6953597   -1.7169656  
H   -4.9755794    7.3317730   -7.2203897  
H   -5.5769708   10.0904788   -6.1683667  
H   -5.0882266   10.2412109   -3.8935462  
H   -3.2926928    7.4387155    0.0775990  
C    2.4951002    2.0940188    2.9809380  
C    1.9440701    1.6314916    1.8291961  
C    0.8759964    0.7350050    2.2038498  
C    0.8497377    0.7130254    3.6788474  
N    1.8560616    1.5571714    4.0882609  
C   -0.0205033   -0.0168748    4.4215661  
C   -0.9962600   -0.8356168    3.7214979  
O   -1.8224391   -1.5286685    4.3006425  
C   -0.9864710   -0.8277881    2.1595606  
O   -1.8030528   -1.5133726    1.5592035  
C    0.0000000    0.0000000    1.4700000  
H    2.2509283    1.8888011    0.8310761  
H   -0.0229599   -0.0187323    5.5027230  
H    3.3143982    2.7817323    3.1139444  
H    2.0889452    1.7545833    5.0442112  
