58

C   -0.6791287    0.5315762   -9.1753422  
C    0.3249771   -0.3113467   -9.5293577  
C    0.3588582   -0.3431033  -10.9725067  
C   -0.7155015    0.5568895  -11.4335447  
N   -1.3068589    1.0549499  -10.2955104  
C   -1.0086030    0.8002145  -12.7360760  
C   -0.2129619    0.1308647  -13.7516852  
O   -0.3988577    0.2843855  -14.9517573  
C    0.9298171   -0.8268237  -13.2861815  
O    1.6061538   -1.3961728  -14.1321544  
C    1.1504468   -1.0087398  -11.8536725  
H    0.9683594   -0.8496050   -8.8563420  
H   -1.8008942    1.4641313  -13.0529357  
H    1.9437983   -1.6733480  -11.5396463  
H   -2.0747181    1.7008810  -10.2809337  
C    0.7844857   -0.6865736   -5.2559753  
C   -0.0307352   -0.0004646   -4.4215603  
C   -0.9220586    0.7449735   -5.2969831  
C   -0.4921389    0.3808400   -6.6641554  
N    0.5077998   -0.4580872   -6.6464478  
C   -1.1351041    0.9171360   -7.8320886  
C   -2.1611774    1.7777673   -7.6428216  
O   -2.8513798    2.3540681   -8.6415896  
C   -2.6186493    2.1645133   -6.2755956  
O   -3.5588180    2.9530732   -6.1782525  
C   -1.9428993    1.6008221   -5.0934199  
H   -3.5146114    2.9110797   -8.1954798  
H   -2.3043670    1.9060012   -4.1205698  
H    1.5867283   -1.3589151   -4.9964802  
C    3.2573670   -0.0002920   -1.5109380  
C    2.5379468   -0.0001709   -0.3591961  
C    1.1435043    0.0000332   -0.7338500  
C    1.1092609   -0.0000082   -2.2088477  
N    2.4227562    0.0001909   -2.6182613  
C   -0.0265532   -0.0002522   -2.9515663  
C   -1.3003035   -0.0002639   -2.2514981  
O   -2.3786784   -0.0004131   -2.8306429  
C   -1.2877725    0.0000312   -0.6895608  
O   -2.3539958    0.0003307   -0.0892036  
C    0.0000000    0.0000000    0.0000000  
H    2.9384091   -0.0000369    0.6389239  
H    4.3270394   -0.0004765   -1.6439446  
H    2.7280494   -0.0013406   -3.5742113  
C    2.4951002    2.0940188    2.9809380  
C    1.9440701    1.6314916    1.8291961  
C    0.8759964    0.7350050    2.2038498  
C    0.8497377    0.7130254    3.6788474  
N    1.8560616    1.5571714    4.0882609  
C   -0.0205033   -0.0168748    4.4215661  
C   -0.9962600   -0.8356168    3.7214979  
O   -1.8224391   -1.5286685    4.3006425  
C   -0.9864710   -0.8277881    2.1595606  
O   -1.8030528   -1.5133726    1.5592035  
C    0.0000000    0.0000000    1.4700000  
H    2.2509283    1.8888011    0.8310761  
H   -0.0229599   -0.0187323    5.5027230  
H    3.3143982    2.7817323    3.1139444  
H    2.0889452    1.7545833    5.0442112  
