60

C    1.1243404    0.0100102   -0.7919008  
C    0.7474062    0.0234664   -2.1148548  
C   -0.6787397    0.0234382   -2.1414696  
C   -1.1201750    0.0098415   -0.7935544  
N    0.0000000    0.0000000    0.0000000  
C   -2.4730824    0.0063316   -0.4408228  
C   -3.3971968    0.0170440   -1.4675051  
O   -4.7313529    0.0145507   -1.1793449  
C   -2.9763668    0.0303033   -2.8186311  
O   -4.0166497    0.0394476   -3.7247605  
C   -1.6418585    0.0335001   -3.1673474  
H   -2.8160164   -0.0041558    0.5845979  
H   -5.1938827    0.0230039   -2.0274362  
H   -3.6464700    0.0481712   -4.6127325  
H   -1.3497497    0.0435655   -4.2109228  
H    2.1062463    0.0053155   -0.3505418  
C    4.5318044   -2.0779042   -2.8537116  
C    4.8146796   -1.6020512   -4.0937200  
C    3.7436260   -0.7033090   -4.4541943  
C    2.8068744   -0.6944835   -3.3143654  
N    3.3420462   -1.5482590   -2.3775902  
C    1.6628930    0.0339167   -3.2649307  
C    1.3320574    0.8644651   -4.4109116  
O    0.3241595    1.5571084   -4.4627602  
C    2.3096316    0.8702832   -5.6291564  
O    2.0414545    1.5654080   -6.5997972  
C    3.5120792    0.0432844   -5.5655548  
H    5.6753183   -1.8522348   -4.6881295  
H    5.0922892   -2.7711139   -2.2477362  
H    2.9325526   -1.7532965   -1.4846616  
C    5.9117866   -3.0135879   -7.7476128  
C    5.0753767   -2.4396109   -6.8517618  
C    5.0530498   -1.0296072   -7.2093804  
C    5.9568745   -0.9264203   -8.3751581  
N    6.4631645   -2.0862272   -8.6953256  
C    6.2084708    0.3254742   -9.0343589  
C    5.5851675    1.4242687   -8.5511635  
O    5.7279824    2.6564952   -9.0681378  
C    4.6669518    1.3524514   -7.3764789  
O    4.1338610    2.3926785   -6.9905227  
C    4.4251627    0.0566028   -6.7175104  
H    4.5396413   -2.9144220   -6.0476368  
H    6.8738350    0.3717387   -9.8841007  
H    5.1634686    3.2249305   -8.5137383  
H    6.1955936   -4.0513955   -7.8209742  
C    0.8681109    0.7263879    2.2709268  
C    0.6127770    0.5096195    3.5869401  
C   -0.4920590   -0.4175482    3.6542670  
C   -0.8620974   -0.7254003    2.2596025  
N    0.0000000    0.0000000    1.4700000  
C   -1.8641242   -1.5660088    1.8976294  
C   -2.6293522   -2.2103885    2.9520183  
O   -3.5512764   -2.9839180    2.7283916  
C   -2.2549728   -1.8987399    4.4361073  
O   -2.8923672   -2.4351063    5.3323774  
C   -1.1543735   -0.9755647    4.7012123  
H    1.1382914    0.9492124    4.4159191  
H   -2.1192137   -1.7782617    0.8686553  
H   -0.9013378   -0.7652422    5.7314848  
H    1.6172880    1.3558399    1.8188057  
