58

C    9.2370985    0.0033959   -3.2067365  
C    9.9448201    0.0046196   -4.3657028  
C   11.3429822    0.0070078   -4.0051846  
C   11.3921572    0.0070465   -2.5306092  
N   10.0828742    0.0052021   -2.1079197  
C   12.5354303    0.0085893   -1.7994271  
C   13.8020275    0.0105539   -2.5123541  
O   14.8862069    0.0120990   -1.9441563  
C   13.7736831    0.0108013   -4.0740847  
O   14.8337733    0.0127549   -4.6852047  
C   12.4789975    0.0087469   -4.7505732  
H    9.5342750    0.0041104   -5.3597174  
H   12.5494518    0.0084574   -0.7183565  
H   12.4680494    0.0087274   -5.8320556  
H    9.7872773    0.0032110   -1.1489275  
C    6.8354432    0.0008785   -4.0255230  
C    5.5758875    0.0005992   -3.5179857  
C    5.7016160    0.0007904   -2.0795742  
C    7.1480384    0.0012361   -1.7886232  
N    7.7802450    0.0008699   -3.0105905  
C    7.6812949    0.0019200   -0.5406883  
C    6.7698186    0.0020120    0.5914541  
O    7.1520251    0.0025450    1.7543037  
C    5.2340027    0.0012938    0.3067210  
O    4.4569015    0.0010578    1.2519061  
C    4.7795901    0.0008674   -1.0815733  
H    4.6629015    0.0001117   -4.0863788  
H    8.7453472    0.0023679   -0.3491112  
H    7.1529568    0.0008728   -5.0556080  
C    3.3321168    0.0004716   -1.3379341  
C    2.6974177    0.0000118   -2.5332316  
C    1.2800432   -0.0002116   -2.2052842  
C    1.2395033    0.0000644   -0.7271298  
N    2.4394059    0.0005460   -0.2131041  
C    0.0000000    0.0000000    0.0000000  
C   -1.1468704    0.0000635   -0.7169542  
O   -2.3742206    0.0000074   -0.1695488  
C   -1.1388774    0.0001608   -2.2096352  
O   -2.2206238    0.0000906   -2.7970409  
C    0.1454514    0.0001818   -2.9324241  
H    3.1367978   -0.0000649   -3.5160956  
H   -2.9844350    0.0001027   -0.9290164  
H    0.1083567    0.0003684   -4.0135594  
C    2.4951002    2.0940188    2.9809380  
C    1.9440701    1.6314916    1.8291961  
C    0.8759964    0.7350050    2.2038498  
C    0.8497377    0.7130254    3.6788474  
N    1.8560616    1.5571714    4.0882609  
C   -0.0205033   -0.0168748    4.4215661  
C   -0.9962600   -0.8356168    3.7214979  
O   -1.8224391   -1.5286685    4.3006425  
C   -0.9864710   -0.8277881    2.1595606  
O   -1.8030528   -1.5133726    1.5592035  
C    0.0000000    0.0000000    1.4700000  
H    2.2509283    1.8888011    0.8310761  
H   -0.0229599   -0.0187323    5.5027230  
H    3.3143982    2.7817323    3.1139444  
H    2.0889452    1.7545833    5.0442112  
