60

C    3.2573672   -0.0002920   -1.5109380  
C    2.5379470   -0.0001710   -0.3591959  
C    1.1435044    0.0000331   -0.7338498  
C    1.1092609   -0.0000083   -2.2088475  
N    2.4227564    0.0001909   -2.6182609  
C   -0.0265532   -0.0002524   -2.9515660  
C   -1.3003037   -0.0002640   -2.2514978  
O   -2.3786783   -0.0004133   -2.8306423  
C   -1.2877723    0.0000311   -0.6895608  
O   -2.3539957    0.0003306   -0.0892035  
C    0.0000000    0.0000000    0.0000000  
H    2.9384091   -0.0000368    0.6389235  
H    2.7280494   -0.0013407   -3.5742112  
C    5.6506114    0.0009427   -0.6678802  
C    6.9152391    0.0026292   -1.1626405  
C    6.8040788    0.0026208   -2.6022513  
C    5.3606770    0.0008072   -2.9078302  
N    4.7161333   -0.0005436   -1.6923256  
C    4.8400806    0.0006555   -4.1610997  
C    5.7629700    0.0021685   -5.2839569  
O    5.3925554    0.0021018   -6.4506157  
C    7.2958242    0.0038490   -4.9836903  
O    8.0824545    0.0048244   -5.9209602  
C    7.7361592    0.0041354   -3.5908670  
H    7.8224240    0.0035686   -0.5850346  
H    3.7780229   -0.0005585   -4.3634388  
H    8.7991586    0.0055076   -3.3914806  
H    5.3226860    0.0004435    0.3589375  
C    2.4602722   -2.0944457   -5.9392884  
C    1.9124733   -1.6318086   -4.7860502  
C    0.8432456   -0.7354859   -5.1577931  
C    0.8127885   -0.7137220   -6.6327131  
N    1.8180306   -1.5578237   -7.0448665  
C   -0.0596371    0.0159817   -7.3730582  
C   -1.0334826    0.8347246   -6.6703351  
O   -1.8613773    1.5276079   -7.2472267  
C   -1.0192493    0.8271225   -5.1084308  
O   -1.8341903    1.5127099   -4.5058519  
C   -0.0307352   -0.0004647   -4.4215603  
H    2.2221964   -1.8889425   -3.7887703  
H   -0.0651697    0.0176827   -8.4542048  
H    3.2792594   -2.7820944   -6.0745257  
H    2.0482140   -1.7553499   -8.0014469  
C    0.0000000    0.0000000    1.4700000  
C    1.0521667    0.0011902    2.3562342  
C    0.4917218    0.0011957    3.6679131  
C   -0.9187428   -0.0003148    3.5178682  
N   -1.1833171    0.0009411    2.1707914  
C   -1.7951701   -0.0010350    4.6072090  
C   -1.2375837   -0.0005224    5.8710424  
O   -2.0474215   -0.0015360    6.9697579  
C    0.1673580    0.0013566    6.0411963  
O    0.5673524    0.0020687    7.3615553  
C    1.0325770    0.0023412    4.9669890  
H    2.0953057    0.0030649    2.0900562  
H   -2.0989778   -0.0102372    1.7591824  
H   -2.8710934   -0.0020419    4.4995513  
H   -1.4634884   -0.0006497    7.7393593  
H    1.5290710    0.0033153    7.3880045  
H    2.1042148    0.0039609    5.1284455  
