58

C   -0.2491242   -0.7087435   -9.5647494  
C   -0.6344189    0.5338004   -9.1752518  
C   -0.5093038    1.3940770  -10.3281211  
C   -0.0160258    0.5447741  -11.4290986  
N    0.1214555   -0.7181607  -10.9009087  
C    0.2318410    0.9855804  -12.6884457  
C   -0.0026647    2.3902913  -12.9788428  
O    0.1905982    2.8836526  -14.0822665  
C   -0.5247875    3.3081329  -11.8278607  
O   -0.7255938    4.4925652  -12.0603636  
C   -0.7550926    2.7177140  -10.5117230  
H    0.5932960    0.3459235  -13.4816036  
H   -1.1168230    3.3599526   -9.7202653  
H   -0.2045186   -1.6183075   -8.9880397  
H    0.4398227   -1.5231896  -11.4084690  
C    0.8291950   -0.6854812   -5.2562361  
C    0.0139741    0.0003876   -4.4216236  
C   -0.8773488    0.7460784   -5.2968311  
C   -0.4474293    0.3823395   -6.6641086  
N    0.5525090   -0.4565932   -6.6466432  
C   -1.0903942    0.9189728   -7.8318869  
C   -2.1164671    1.7795496   -7.6423720  
O   -2.8066693    2.3561391   -8.6409740  
C   -2.5739390    2.1659013   -6.2750339  
O   -3.5141075    2.9544337   -6.1774642  
C   -1.8981891    1.6018687   -5.0930214  
H   -3.4699006    2.9130223   -8.1947035  
H   -2.2596569    1.9067674   -4.1200833  
H    1.6314369   -1.3578977   -4.9969352  
C    3.2798085    0.0005853   -1.4499648  
C    2.5571144    0.0005562   -2.5996554  
C    1.1637436    0.0001546   -2.2210360  
C    1.1336965   -0.0000201   -0.7459470  
N    2.4483513   -0.0001430   -0.3402717  
C    0.0000000    0.0000000    0.0000000  
C   -1.2757367   -0.0000188   -0.6964414  
O   -2.3524597   -0.0000640   -0.1142313  
C   -1.2676494   -0.0000875   -2.2584081  
O   -2.3355762   -0.0004102   -2.8557294  
C    0.0181562    0.0001757   -2.9516296  
H    2.9547357    0.0006072   -3.5989105  
H    4.3498550    0.0008609   -1.3200021  
H    2.7563627    0.0012824    0.6148063  
C    0.8175213    0.6860729    2.3021913  
C    0.0000000    0.0000000    1.4700000  
C   -0.8887526   -0.7456559    2.3478473  
C   -0.4549825   -0.3816753    3.7138435  
N    0.5448156    0.4573574    3.6934124  
C   -1.0945674   -0.9182058    4.8835240  
C   -2.1210866   -1.7789155    4.6970523  
O   -2.8083856   -2.3554314    5.6976972  
C   -2.5824069   -2.1655116    3.3310774  
O   -3.5227682   -2.9541547    3.2362962  
C   -1.9100805   -1.6015804    2.1470656  
H   -0.7567140   -0.6349833    5.8697035  
H   -3.4728268   -2.9124471    5.2533954  
H   -2.2742832   -1.9066565    1.1752040  
H    1.6189533    1.3585343    2.0405121  
