62

C    3.3003553    0.0005277   -1.4738968  
C    2.5232827    0.0003497   -2.6090736  
C    1.1623211   -0.0001319   -2.1820093  
C    1.1711889    0.0000584   -0.7636135  
N    2.4852304   -0.0014918   -0.3662348  
C    0.0000000    0.0000000    0.0000000  
C   -1.2020378    0.0000520   -0.6806487  
O   -2.3759249    0.0003495    0.0157736  
C   -1.2314646   -0.0005113   -2.0955514  
O   -2.5054378   -0.0008038   -2.6250193  
C   -0.0764502   -0.0007273   -2.8495195  
H    2.8036265    0.0088181    0.5858676  
H   -3.0835636    0.0000347   -0.6418829  
H   -2.4360030   -0.0011526   -3.5845935  
H   -0.1304075   -0.0013421   -3.9319085  
H    4.3715559    0.0004894   -1.3667115  
C    5.8843143   -2.1416056   -4.3706043  
C    5.8364464   -1.7353566   -5.6606622  
C    4.7035133   -0.8249896   -5.7254229  
C    4.1682361   -0.7974904   -4.3472697  
N    4.8563813   -1.5672827   -3.5486049  
C    3.0267454   -0.0008952   -3.9901685  
C    2.4466128    0.7350847   -4.9654196  
O    1.3754315    1.5237290   -4.7739746  
C    2.9636573    0.7287617   -6.3657000  
O    2.3859623    1.4229253   -7.2021365  
C    4.1359085   -0.0966510   -6.7069413  
H    6.4893670   -2.0184248   -6.4685249  
H    1.1962591    1.9150482   -5.6479990  
H    6.5846128   -2.8231841   -3.9145273  
C    5.6397662   -3.2828088   -9.3800836  
C    5.8664988   -2.4936749  -10.4838619  
C    5.4961141   -1.1630833  -10.1275744  
C    5.0471853   -1.2020036   -8.7826305  
N    5.1456695   -2.5043277   -8.3596998  
C    4.6029359   -0.0653283   -8.1004275  
C    4.6123298    1.1325104   -8.7883751  
O    4.1892949    2.2733358   -8.1698502  
C    5.0562624    1.1915302  -10.1308575  
O    5.0049222    2.4569029  -10.6781599  
C    5.4944075    0.0705239  -10.8045781  
H    6.2504588   -2.8352562  -11.4298483  
H    4.9075983   -2.8362566   -7.4425698  
H    4.2761408    2.9839176   -8.8185387  
H    5.3214102    2.4089349  -11.5854291  
H    5.8284278    0.1465982  -11.8327418  
H    5.7900570   -4.3396244   -9.2403979  
C    0.8681109    0.7263879    2.2709268  
C    0.6127770    0.5096195    3.5869401  
C   -0.4920590   -0.4175482    3.6542670  
C   -0.8620974   -0.7254003    2.2596025  
N    0.0000000    0.0000000    1.4700000  
C   -1.8641242   -1.5660088    1.8976294  
C   -2.6293522   -2.2103885    2.9520183  
O   -3.5512764   -2.9839180    2.7283916  
C   -2.2549728   -1.8987399    4.4361073  
O   -2.8923672   -2.4351063    5.3323774  
C   -1.1543735   -0.9755647    4.7012123  
H    1.1382914    0.9492124    4.4159191  
H   -2.1192137   -1.7782617    0.8686553  
H   -0.9013378   -0.7652422    5.7314848  
H    1.6172880    1.3558399    1.8188057  
