62

C   -3.3001091   -0.0403324   -1.4738970  
C   -2.5230953   -0.0307824   -2.6090734  
C   -1.1622390   -0.0138866   -2.1820093  
C   -1.1711032   -0.0141838   -0.7636133  
N   -2.4850675   -0.0284820   -0.3662345  
C    0.0000000    0.0000000    0.0000000  
C    1.2019506    0.0144456   -0.6806484  
O    2.3757556    0.0283061    0.0157735  
C    1.2313682    0.0153636   -2.0955516  
O    2.5052460    0.0310211   -2.6250189  
C    0.0764354    0.0016492   -2.8495196  
H   -2.8917941   -0.0343178   -3.6205288  
H   -2.8033159   -0.0426314    0.5858677  
H    3.0833394    0.0371555   -0.6418829  
H    2.4358119    0.0305327   -3.5845934  
H    0.1303822    0.0029149   -3.9319086  
C   -5.6722887   -0.0680841   -2.3740952  
C   -6.9483496   -0.0812676   -1.9098002  
C   -6.8717568   -0.0792640   -0.4679385  
C   -5.4361809   -0.0636918   -0.1278382  
N   -4.7626992   -0.0579216   -1.3275378  
C   -4.9458278   -0.0570295    1.1375529  
C   -5.8953346   -0.0660063    2.2379579  
O   -5.5530333   -0.0610940    3.4131630  
C   -7.4204573   -0.0827774    1.9010238  
O   -8.2292956   -0.0907522    2.8191619  
C   -7.8272321   -0.0884126    0.4980432  
H   -7.8413663   -0.0914385   -2.5089923  
H   -3.8889896   -0.0454619    1.3652995  
H   -5.3198482   -0.0651545   -3.3927545  
C   -9.8620107   -0.8298314   -0.8120949  
C   -9.2650392   -0.1039336    0.1924769  
C  -10.3013076    0.6143464    0.8594261  
C  -11.5195856    0.2840129    0.2124291  
N  -11.2167382   -0.5934183   -0.7990131  
C  -12.7528250    0.8111391    0.6074554  
C  -12.7563229    1.6874680    1.6752626  
O  -13.9330153    2.2313284    2.1026079  
C  -11.5511027    2.0296104    2.3334427  
O  -11.7201882    2.9146929    3.3781354  
C  -10.3340834    1.5101797    1.9441070  
H  -11.8823896   -1.0102366   -1.4244336  
H  -13.6848652    0.5634768    0.1184083  
H  -13.7135407    2.8063419    2.8472255  
H  -10.8589333    3.0931260    3.7680138  
H   -9.4275167    1.7909049    2.4673740  
H   -9.4284496   -1.4964031   -1.5378128  
C    2.5128556    2.1077716    2.9199648  
C    1.9592212    1.6432552    4.0696553  
C    0.8915788    0.7479214    3.6910360  
C    0.8684491    0.7287414    2.2159470  
N    1.8754542    1.5738793    1.8102719  
C    0.0000000    0.0000000    1.4700000  
C   -0.9772830   -0.8200135    2.1664417  
O   -1.8021297   -1.5120829    1.5842315  
C   -0.9711318   -0.8147624    3.7284083  
O   -1.7894187   -1.5009653    4.3257297  
C    0.0140216    0.0115358    4.4216297  
H    2.2638494    1.8988021    5.0689105  
H    0.0117648    0.0094386    5.5031631  
H    3.3327358    2.7953732    2.7900019  
H    2.1123206    1.7707734    0.8551938  
