60

C    0.5438764   -0.7269789   -5.2249517  
C    0.2435449   -0.5104541   -6.5314703  
C   -0.8630385    0.4166032   -6.5610253  
C   -1.1850645    0.7246559   -5.1545426  
N   -0.2963289   -0.0005348   -4.3948470  
C   -2.1741700    1.5652353   -4.7585602  
C   -2.9751652    2.2093694   -5.7861948  
O   -3.8889529    2.9828540   -5.5312132  
C   -2.6518670    1.8975060   -7.2821978  
O   -3.3196710    2.4336645   -8.1561721  
C   -1.5609170    0.9743850   -7.5847347  
H    0.7403659   -0.9501387   -7.3779103  
H   -2.3938454    1.7776376   -3.7214791  
H   -1.3433394    0.7639124   -8.6230439  
H    1.3081767   -1.3562881   -4.7986825  
C    3.1301148   -0.0010315   -1.7028253  
C    2.5367766   -0.0002767   -0.4864666  
C    1.1089903    0.0001025   -0.7656183  
C    1.0177867   -0.0004153   -2.2415131  
N    2.1993574   -0.0011616   -2.7963821  
C   -0.2459218   -0.0002884   -2.9257117  
C   -1.3675324   -0.0000610   -2.1698519  
O   -2.6129318    0.0000862   -2.6748483  
C   -1.3083588    0.0000908   -0.6783229  
O   -2.3693264    0.0004202   -0.0541688  
C    0.0000000    0.0000000    0.0000000  
H    3.0096015   -0.0001006    0.4807520  
H   -3.1967441    0.0002093   -1.8949029  
C    6.8847531   -0.0023788    0.6986597  
C    5.5715638   -0.0012906    0.3713792  
C    5.5475441   -0.0015355   -1.0832421  
C    6.9721653   -0.0027421   -1.4795212  
N    7.7607274   -0.0033215   -0.4392522  
C    7.3784663   -0.0033623   -2.8579280  
C    6.4057878   -0.0031913   -3.7977314  
O    6.6406177   -0.0037051   -5.1209456  
C    4.9592100   -0.0023551   -3.4295283  
O    4.1279719   -0.0021192   -4.3374180  
C    4.5679459   -0.0016858   -2.0086704  
H    4.7238863   -0.0005185    1.0350946  
H    8.4267351   -0.0040367   -3.1187792  
H    5.7562729   -0.0034397   -5.5297086  
H    7.3236776   -0.0025892    1.6837078  
C    0.8676693    0.7151171    2.2619005  
C    0.5875920    0.4624972    3.5848544  
C   -0.5048400   -0.4542819    3.6114698  
C   -0.8517165   -0.7276451    2.2635546  
N    0.0000000    0.0000000    1.4700000  
C   -1.8902865   -1.5946756    1.9108239  
C   -2.5912627   -2.1969500    2.9375057  
O   -3.6148162   -3.0527051    2.6493466  
C   -2.2603868   -1.9365747    4.2886322  
O   -3.0513550   -2.6123276    5.1947621  
C   -1.2361111   -1.0811317    4.6373480  
H    1.1060808    0.8876438    4.4271209  
H   -2.1597133   -1.8070987    0.8854031  
H   -3.9636755   -3.3565188    3.4974381  
H   -2.7621927   -2.3810384    6.0827341  
H   -1.0058879   -0.9010589    5.6809233  
H    1.6167816    1.3499334    1.8205408  
