58

C    3.9404946   -0.7293549   -4.5163119  
C    4.0976525   -0.5146855   -5.8479626  
C    3.0657855    0.4119876   -6.2496624  
C    2.2890365    0.7218372   -5.0341600  
N    2.8699638   -0.0020525   -4.0185828  
C    1.2244920    1.5626425   -4.9954967  
C    0.8163860    2.2051420   -6.2337132  
O   -0.1297734    2.9786859   -6.3023647  
C    1.6244746    1.8913611   -7.5330745  
O    1.2900269    2.4261332   -8.5816085  
C    2.7534399    0.9681715   -7.4493443  
H    4.8503965   -0.9553573   -6.4770881  
H    0.6684827    1.7763755   -4.0932316  
H    4.5165360   -1.3578515   -3.8567220  
C    3.2573670   -0.0002920   -1.5109384  
C    2.5379466   -0.0001708   -0.3591964  
C    1.1435042    0.0000333   -0.7338500  
C    1.1092606   -0.0000082   -2.2088477  
N    2.4227559    0.0001910   -2.6182614  
C   -0.0265533   -0.0002524   -2.9515665  
C   -1.3003040   -0.0002640   -2.2514980  
O   -2.3786785   -0.0004135   -2.8306426  
C   -1.2877727    0.0000313   -0.6895608  
O   -2.3539959    0.0003306   -0.0892036  
C    0.0000000    0.0000000    0.0000000  
H    2.9384090   -0.0000368    0.6389239  
H   -0.0296293   -0.0004086   -4.0327231  
H    4.3270391   -0.0004761   -1.6439451  
C    4.4734462   -2.7566004   -9.0149077  
C    5.0137599   -2.2869954  -10.1688606  
C    4.7247531   -0.8734066  -10.2243323  
C    3.9663636   -0.5556775   -8.9993082  
N    3.8475126   -1.7401000   -8.3094480  
C    3.5070317    0.6802910   -8.6782152  
C    3.7774637    1.7703294   -9.6008300  
O    3.4058823    2.9194476   -9.4014449  
C    4.5786924    1.4566502  -10.9044572  
O    4.8121539    2.3662631  -11.6889071  
C    5.0215602    0.0848320  -11.1407503  
H    5.5530554   -2.8649305  -10.8980840  
H    5.5759302   -0.1239842  -12.0456225  
H    4.4796782   -3.7597860   -8.6206112  
H    3.3800180   -1.8488916   -7.4281646  
C    2.5128556    2.1077716    2.9199648  
C    1.9592212    1.6432552    4.0696553  
C    0.8915788    0.7479214    3.6910360  
C    0.8684491    0.7287414    2.2159470  
N    1.8754542    1.5738793    1.8102719  
C    0.0000000    0.0000000    1.4700000  
C   -0.9772830   -0.8200135    2.1664417  
O   -1.8021297   -1.5120829    1.5842315  
C   -0.9711318   -0.8147624    3.7284083  
O   -1.7894187   -1.5009653    4.3257297  
C    0.0140216    0.0115358    4.4216297  
H    2.2638494    1.8988021    5.0689105  
H    0.0117648    0.0094386    5.5031631  
H    3.3327358    2.7953732    2.7900019  
H    2.1123206    1.7707734    0.8551938  
