60

C    3.3041269    0.0001181   -1.5420435  
C    2.5845374   -0.0004780   -0.3695858  
C    1.2040005   -0.0000006   -0.7283589  
C    1.1422371    0.0006039   -2.1454373  
N    2.4348634    0.0026113   -2.6077468  
C   -0.0655187    0.0008799   -2.8497917  
C   -1.2321773    0.0002325   -2.1101393  
O   -2.4392817    0.0001147   -2.7472515  
C   -1.1911209   -0.0000006   -0.6955265  
O   -2.4371526   -0.0002320   -0.1032855  
C    0.0000000    0.0000000    0.0000000  
H    3.0031535   -0.0000658    0.6222581  
H   -0.1193554    0.0014847   -3.9297468  
H   -3.1132989   -0.0000648   -2.0551776  
H   -2.3200276   -0.0004072    0.8516410  
H    4.3686618    0.0004076   -1.7024298  
C    3.8860202   -0.7395022   -4.5524255  
C    3.9939094   -0.5373176   -5.8909157  
C    2.9441496    0.3812284   -6.2638940  
C    2.2105941    0.6999149   -5.0240854  
N    2.8310656   -0.0116215   -4.0232754  
C    1.1445011    1.5368001   -4.9549938  
C    0.6890259    2.1654510   -6.1837637  
O   -0.2623541    2.9344952   -6.2255529  
C    1.4508803    1.8421335   -7.5084708  
O    1.0763526    2.3652242   -8.5493196  
C    2.5861423    0.9243305   -7.4567932  
H    4.7252832   -0.9811462   -6.5426234  
H    0.6206113    1.7571758   -4.0352746  
H    4.4883012   -1.3591726   -3.9080993  
C    3.7724503   -0.5853303   -9.0919085  
C    3.2959769    0.6273878   -8.7093348  
C    3.6204403    1.5589154   -9.7637614  
C    4.3300634    0.7839262  -10.7994336  
N    4.3897077   -0.5083887  -10.3311875  
C    4.8034529    1.3044334  -11.9598989  
C    4.6007010    2.7226315  -12.2051348  
O    4.9898980    3.2854243  -13.2200696  
C    3.8519362    3.5626741  -11.1218590  
O    3.6756194    4.7576829  -11.3171176  
C    3.3879609    2.8894450   -9.9113462  
H    5.3211997    0.7184166  -12.7065126  
H    2.8702148    3.4781422   -9.1662965  
H    3.7247826   -1.5287386   -8.5726800  
H    4.8142669   -1.2776187  -10.8160402  
C    0.8681109    0.7263879    2.2709268  
C    0.6127770    0.5096195    3.5869401  
C   -0.4920590   -0.4175482    3.6542670  
C   -0.8620974   -0.7254003    2.2596025  
N    0.0000000    0.0000000    1.4700000  
C   -1.8641242   -1.5660088    1.8976294  
C   -2.6293522   -2.2103885    2.9520183  
O   -3.5512764   -2.9839180    2.7283916  
C   -2.2549728   -1.8987399    4.4361073  
O   -2.8923672   -2.4351063    5.3323774  
C   -1.1543735   -0.9755647    4.7012123  
H    1.1382914    0.9492124    4.4159191  
H   -2.1192137   -1.7782617    0.8686553  
H   -0.9013378   -0.7652422    5.7314848  
H    1.6172880    1.3558399    1.8188057  
