60

C    1.1243417    0.0099321   -0.7919012  
C    0.7474087    0.0234143   -2.1148546  
C   -0.6787370    0.0234851   -2.1414702  
C   -1.1201741    0.0099191   -0.7935548  
N    0.0000000    0.0000000    0.0000000  
C   -2.4730811    0.0065030   -0.4408244  
C   -3.3971946    0.0172796   -1.4675061  
O   -4.7313510    0.0148789   -1.1793468  
C   -2.9763635    0.0305094   -2.8186326  
O   -4.0166456    0.0397262   -3.7247623  
C   -1.6418545    0.0336135   -3.1673482  
H    1.4178729    0.0310212   -2.9571211  
H   -2.8160170   -0.0039605    0.5845960  
H   -5.1938807    0.0233640   -2.0274383  
H   -3.6464653    0.0484238   -4.6127344  
H    2.1062469    0.0051692   -0.3505411  
C    1.5647051   -2.0539353   -5.3222156  
C    1.3415240   -1.5772550   -6.5740306  
C    0.2114874   -0.6825236   -6.4885403  
C   -0.2083787   -0.6769531   -5.0741600  
N    0.6518740   -1.5285930   -4.4202760  
C   -1.2456306    0.0472387   -4.5828770  
C   -1.9988922    0.8763687   -5.5089849  
O   -2.9500277    1.5652873   -5.1639738  
C   -1.5719569    0.8855785   -7.0114651  
O   -2.1988453    1.5795461   -7.8005664  
C   -0.4365472    0.0630232   -7.4214651  
H    1.9041759   -1.8243693   -7.4566241  
H   -0.1472037    0.0751514   -8.4635095  
H    0.6225102   -1.7349847   -3.4386513  
C    4.7182184   -4.0819815   -7.5425492  
C    5.3286454   -4.8045823   -6.5746619  
C    4.5936625   -4.4973776   -5.3573182  
C    3.5445173   -3.5471884   -5.7851255  
N    3.6124946   -3.2999582   -7.0650651  
C    2.5935108   -2.9963395   -4.8592540  
C    2.6861367   -3.3777035   -3.5649139  
O    1.8652437   -2.9429103   -2.5937650  
C    3.7336071   -4.3352682   -3.1022743  
O    3.7588801   -4.6379250   -1.9093867  
C    4.6975929   -4.8863622   -4.0712699  
H    6.1733014   -5.4646332   -6.6744811  
H    2.1790381   -3.3882010   -1.7860509  
H    5.4408970   -5.5770784   -3.6962490  
H    4.9652071   -4.0341477   -8.5912057  
C    0.8400945    0.7047457    2.2710304  
C    0.0000000    0.0000000    1.4700000  
C   -0.8844236   -0.7423113    2.3369512  
C   -0.4878984   -0.4098547    3.7186280  
N    0.5629682    0.4714286    3.6095011  
C   -1.0836927   -0.9095027    4.8308716  
C   -2.1891196   -1.8367527    4.6554461  
O   -2.7906899   -2.3413415    5.5944904  
C   -2.6257283   -2.2031529    3.2011665  
O   -3.5549479   -2.9829990    3.0410059  
C   -1.9068976   -1.5999348    2.0816745  
H   -0.7774656   -0.6525820    5.8354244  
H   -2.2155208   -1.8586617    1.0779135  
H    1.6384792    1.3747609    1.9961646  
H    1.0518368    0.8833920    4.3830260  
