58

C    0.2012327   -1.0854485   -9.6474804  
C    0.0123499   -0.0076589   -8.8432614  
C   -0.1946919    1.1308554   -9.7068325  
C   -0.1103707    0.6243701  -11.0899997  
N    0.1315586   -0.7259297  -10.9848775  
C   -0.2527142    1.3921175  -12.1999584  
C   -0.5056375    2.8120811  -12.0203245  
O   -0.6483914    3.5869626  -12.9570635  
C   -0.5985976    3.3701638  -10.5644034  
O   -0.8108843    4.5640638  -10.4007048  
C   -0.4282055    2.4440354   -9.4476647  
H   -0.1873971    1.0007080  -13.2056626  
H   -0.4942069    2.8383686   -8.4427420  
H    0.3856815   -2.1120844   -9.3756596  
H    0.2387669   -1.3539028  -11.7602510  
C    2.5229105   -2.1069160   -5.8790356  
C    1.9659599   -1.6422908   -7.0270794  
C    0.8993073   -0.7471216   -6.6452951  
C    0.8803723   -0.7281568   -5.1701434  
N    1.8886140   -1.5732492   -4.7674571  
C    0.0139741    0.0003876   -4.4216236  
C   -0.9653705    0.8204009   -5.1151637  
O   -1.7886285    1.5123014   -4.5305090  
C   -0.9636626    0.8153757   -6.6771421  
O   -1.7837158    1.5015804   -7.2720336  
C    0.0195995   -0.0107212   -7.3732829  
H    2.2677703   -1.8976623   -8.0272341  
H    3.3432281   -2.7944520   -5.7515055  
H    2.1282171   -1.7702570   -3.8130851  
C    3.2798085    0.0005853   -1.4499648  
C    2.5571144    0.0005562   -2.5996554  
C    1.1637436    0.0001546   -2.2210360  
C    1.1336965   -0.0000201   -0.7459470  
N    2.4483513   -0.0001430   -0.3402717  
C    0.0000000    0.0000000    0.0000000  
C   -1.2757367   -0.0000188   -0.6964414  
O   -2.3524597   -0.0000640   -0.1142313  
C   -1.2676494   -0.0000875   -2.2584081  
O   -2.3355762   -0.0004102   -2.8557294  
C    0.0181562    0.0001757   -2.9516296  
H    2.9547357    0.0006072   -3.5989105  
H    4.3498550    0.0008609   -1.3200021  
H    2.7563627    0.0012824    0.6148063  
C    0.8400945    0.7047457    2.2710304  
C    0.0000000    0.0000000    1.4700000  
C   -0.8844236   -0.7423113    2.3369512  
C   -0.4878984   -0.4098547    3.7186280  
N    0.5629682    0.4714286    3.6095011  
C   -1.0836927   -0.9095027    4.8308716  
C   -2.1891196   -1.8367527    4.6554461  
O   -2.7906899   -2.3413415    5.5944904  
C   -2.6257283   -2.2031529    3.2011665  
O   -3.5549479   -2.9829990    3.0410059  
C   -1.9068976   -1.5999348    2.0816745  
H   -0.7774656   -0.6525820    5.8354244  
H   -2.2155208   -1.8586617    1.0779135  
H    1.6384792    1.3747609    1.9961646  
H    1.0518368    0.8833920    4.3830260  
