58

C    4.4374809   -3.7066868   -6.6088763  
C    5.4030005   -4.5034181   -6.0825051  
C    5.3106825   -4.3841235   -4.6465099  
C    4.2042828   -3.4458780   -4.3775009  
N    3.7172817   -3.0714990   -5.6085825  
C    3.7992393   -3.0698130   -3.1380582  
C    4.4998861   -3.6261018   -1.9925574  
O    4.2102985   -3.3494034   -0.8358905  
C    5.6748903   -4.6214981   -2.2540061  
O    6.2723905   -5.0960727   -1.2974326  
C    6.0190372   -4.9507831   -3.6349432  
H    6.1004197   -5.1057903   -6.6369129  
H    2.9851823   -2.3802913   -2.9626119  
H    6.8336985   -5.6409312   -3.8074108  
H    4.1916152   -3.5299531   -7.6433832  
C    2.6001984   -2.1411815   -5.8266050  
C    2.0730541   -1.7332812   -7.0044489  
C    0.9991584   -0.8222828   -6.6393046  
C    1.0189896   -0.7962633   -5.1609565  
N    1.9554489   -1.5673972   -4.6788923  
C    0.0950446    0.0004351   -4.4015596  
C   -0.8074268    0.7379271   -5.0878437  
O   -1.7282262    1.5268496   -4.5083866  
C   -0.8524310    0.7331204   -6.5798599  
O   -1.7006936    1.4286195   -7.1383864  
C    0.1059489   -0.0924302   -7.3360995  
H    2.3756463   -2.0156467   -7.9983221  
H   -2.2213259    1.9193587   -5.2513147  
H    0.0405998   -0.0682527   -8.4156246  
C    3.3321173    0.0004713   -1.3379338  
C    2.6974181    0.0000116   -2.5332314  
C    1.2800438   -0.0002119   -2.2052841  
C    1.2395034    0.0000643   -0.7271299  
N    2.4394062    0.0005460   -0.2131038  
C    0.0000000    0.0000000    0.0000000  
C   -1.1468702    0.0000634   -0.7169543  
O   -2.3742203    0.0000074   -0.1695487  
C   -1.1388770    0.0001607   -2.2096355  
O   -2.2206234    0.0000905   -2.7970411  
C    0.1454522    0.0001815   -2.9324241  
H    3.1367984   -0.0000653   -3.5160950  
H   -2.9844346    0.0001026   -0.9290167  
H    4.3940038    0.0007618   -1.1498640  
C    0.0000000    0.0000000    1.4700000  
C    1.0541688    0.0001722    2.3260392  
C    0.5103138    0.0000454    3.6635956  
C   -0.9576371   -0.0002459    3.5155732  
N   -1.2018458    0.0001392    2.1615969  
C   -1.8348311   -0.0008317    4.5510609  
C   -1.2972847   -0.0009736    5.9014604  
O   -2.0050672   -0.0014265    6.9001319  
C    0.2542623   -0.0004184    6.0817573  
O    0.7184670   -0.0002256    7.2139121  
C    1.0974552   -0.0000873    4.8889129  
H    2.0940752    0.0005483    2.0517982  
H   -2.9081052   -0.0011668    4.4207061  
H    2.1707277    0.0000911    5.0223670  
H   -2.1128194   -0.0014912    1.7406791  
