58

C    9.1545642   -0.0050513    0.7740117  
C    9.8622865   -0.0066924   -0.3849539  
C   11.2604496   -0.0080614   -0.0244355  
C   11.3096244   -0.0071056    1.4501393  
N   10.0003434   -0.0048860    1.8728282  
C   12.4528991   -0.0083218    2.1813222  
C   13.7194945   -0.0105069    1.4683952  
O   14.8036765   -0.0116683    2.0365940  
C   13.6911503   -0.0112990   -0.0933349  
O   14.7512414   -0.0128290   -0.7044549  
C   12.3964658   -0.0101202   -0.7698233  
H    9.4517403   -0.0067358   -1.3789683  
H   12.4669196   -0.0077180    3.2623922  
H   12.3855149   -0.0108845   -1.8513056  
H    9.7047410   -0.0053397    2.8318210  
C    5.7656462   -0.0007213   -2.0564738  
C    7.0030823   -0.0022250   -1.4971663  
C    6.8178430   -0.0019791   -0.0652020  
C    5.3606050   -0.0002253    0.1655478  
N    4.7795901    0.0008674   -1.0815733  
C    4.7760820    0.0001002    1.3903079  
C    5.6398486   -0.0011490    2.5592563  
O    5.2097735   -0.0009116    3.7052650  
C    7.1861463   -0.0027618    2.3384243  
O    7.9234036   -0.0035159    3.3150061  
C    7.6977101   -0.0032521    0.9701573  
H    7.9388418   -0.0031927   -2.0272292  
H    3.7050038    0.0012664    1.5376178  
H    5.4911002   -0.0004233   -3.0988343  
C    3.3321168    0.0004716   -1.3379341  
C    2.6974177    0.0000118   -2.5332316  
C    1.2800432   -0.0002116   -2.2052842  
C    1.2395033    0.0000644   -0.7271298  
N    2.4394059    0.0005460   -0.2131041  
C    0.0000000    0.0000000    0.0000000  
C   -1.1468704    0.0000635   -0.7169542  
O   -2.3742206    0.0000074   -0.1695488  
C   -1.1388774    0.0001608   -2.2096352  
O   -2.2206238    0.0000906   -2.7970409  
C    0.1454514    0.0001818   -2.9324241  
H    3.1367978   -0.0000649   -3.5160956  
H   -2.9844350    0.0001027   -0.9290164  
H    0.1083567    0.0003684   -4.0135594  
C    2.5528530    2.1414826    2.8079335  
C    2.0663498    1.7338582    4.0032312  
C    0.9804344    0.8229586    3.6752840  
C    0.9495562    0.7966882    2.1971295  
N    1.8690446    1.5676019    1.6831036  
C    0.0000000    0.0000000    1.4700000  
C   -0.8785127   -0.7372425    2.1869543  
O   -1.8187535   -1.5261249    1.6395491  
C   -0.8723269   -0.7321790    3.6796354  
O   -1.7010379   -1.4274584    4.2670412  
C    0.1115397    0.0933559    4.4024240  
H    2.4028853    2.0163452    4.9860947  
H   -2.2861435   -1.9184361    2.3990168  
H    0.0832434    0.0693689    5.4835595  
H    3.3664920    2.8238276    2.6198634  
