58

C   -3.2798079   -0.0008362   -1.4499656  
C   -2.5571137   -0.0007518   -2.5996561  
C   -1.1637432   -0.0002436   -2.2210362  
C   -1.1336960   -0.0000666   -0.7459473  
N   -2.4483509   -0.0000442   -0.3402726  
C    0.0000000    0.0000000    0.0000000  
C    1.2757371    0.0001161   -0.6964413  
O    2.3524599    0.0002437   -0.1142313  
C    1.2676493    0.0001842   -2.2584079  
O    2.3355775    0.0005887   -2.8557294  
C   -0.0181553   -0.0001772   -2.9516296  
H   -2.9547342   -0.0008331   -3.5989109  
H   -0.0150772   -0.0003329   -4.0331630  
H   -2.7563624   -0.0014930    0.6148055  
C   -4.7390838   -0.0013234   -1.2727290  
C   -5.6949928   -0.0019857   -2.2307568  
C   -6.9549536   -0.0022117   -1.5034336  
C   -6.5623376   -0.0017154   -0.0777982  
N   -5.2646564   -0.0011128    0.0636650  
C   -7.5356715   -0.0017160    0.9794186  
C   -8.8418531   -0.0018020    0.6283840  
O   -9.8560145   -0.0018208    1.5101538  
C   -9.2698387   -0.0019283   -0.8016470  
O  -10.4759229   -0.0021261   -1.0477790  
C   -8.2523633   -0.0019688   -1.8677941  
H   -5.5615839   -0.0021938   -3.2990633  
H  -10.6613098   -0.0018617    0.9618366  
H   -8.6033667   -0.0019457   -2.8910370  
C   -4.2802019    2.1065854    3.0386226  
C   -4.4741668    1.6422213    4.2998991  
C   -5.6057580    0.7467917    4.2494669  
C   -6.0583754    0.7273896    2.8453473  
N   -5.2136703    1.5725033    2.1633322  
C   -7.1066604   -0.0014955    2.3854234  
C   -7.8380816   -0.8214402    3.3368696  
O   -8.7968791   -1.5136271    3.0208240  
C   -7.3763475   -0.8159545    4.8290414  
O   -7.9846320   -1.5020978    5.6392625  
C   -6.2318339    0.0104836    5.2044629  
H   -3.8911939    1.8979292    5.1667147  
H   -5.9183526    0.0085486    6.2395715  
H   -3.5339973    2.7941974    2.6749487  
H   -5.2658647    1.7692629    1.1806782  
C    2.4951002    2.0940188    2.9809380  
C    1.9440701    1.6314916    1.8291961  
C    0.8759964    0.7350050    2.2038498  
C    0.8497377    0.7130254    3.6788474  
N    1.8560616    1.5571714    4.0882609  
C   -0.0205033   -0.0168748    4.4215661  
C   -0.9962600   -0.8356168    3.7214979  
O   -1.8224391   -1.5286685    4.3006425  
C   -0.9864710   -0.8277881    2.1595606  
O   -1.8030528   -1.5133726    1.5592035  
C    0.0000000    0.0000000    1.4700000  
H    2.2509283    1.8888011    0.8310761  
H   -0.0229599   -0.0187323    5.5027230  
H    3.3143982    2.7817323    3.1139444  
H    2.0889452    1.7545833    5.0442112  
