58

C    3.5234935   -4.3191710   -1.8654364  
C    2.8198995   -3.4992653   -2.6881053  
C    3.4606468   -3.5494784   -3.9810701  
C    4.6033852   -4.4724870   -3.8432547  
N    4.5862000   -4.9042598   -2.5370511  
C    5.4614797   -4.7888488   -4.8458982  
C    5.2452465   -4.1794395   -6.1475893  
O    5.9631036   -4.4004973   -7.1140852  
C    4.0412993   -3.1986815   -6.3162043  
O    3.8494456   -2.6793014   -7.4073950  
C    3.1854957   -2.9361432   -5.1618532  
H    1.9512877   -2.9247062   -2.4197613  
H    6.2934524   -5.4684259   -4.7238079  
H    3.3552032   -4.5450361   -0.8249780  
H    5.2431290   -5.5471171   -2.1342801  
C    2.0552331   -2.0117600   -5.3319182  
C    1.1441930   -1.6301402   -4.4067419  
C    0.2595430   -0.7123102   -5.1078000  
C    0.7977765   -0.6538175   -6.4838332  
N    1.8503505   -1.4135520   -6.6212381  
C    0.1930648    0.1584612   -7.5034472  
C   -0.8998972    0.8792300   -7.1639455  
O   -1.5649246    1.6797247   -8.0142327  
C   -1.4671321    0.8410357   -5.7837477  
O   -2.4638599    1.5229391   -5.5455002  
C   -0.8287665    0.0000939   -4.7555305  
H    1.0803195   -1.9340247   -3.3758927  
H    0.6076492    0.1823324   -8.5006729  
H   -2.2915643    2.0548234   -7.4846588  
C    1.0672569   -0.0000698   -0.8321910  
C    0.0000000    0.0000000    0.0000000  
C   -1.1601223   -0.0000736   -0.8778472  
C   -0.5938729   -0.0000768   -2.2438435  
N    0.7113367   -0.0001553   -2.2234123  
C   -1.4286985   -0.0001877   -3.4135239  
C   -2.7683113   -0.0006798   -3.2270524  
O   -3.6653902   -0.0008302   -4.2276970  
C   -3.3702024   -0.0010610   -1.8610774  
O   -4.5974910   -0.0013779   -1.7662963  
C   -2.4926825   -0.0008943   -0.6770658  
H   -4.5324245   -0.0012258   -3.7833954  
H   -2.9677772   -0.0012974    0.2947961  
H    2.1134391   -0.0000547   -0.5705119  
C    0.0000000    0.0000000    1.4700000  
C    1.0662921    0.0000102    2.3034270  
C    0.4961870   -0.0000064    3.6418889  
C   -0.9663858    0.0000850    3.4240247  
N   -1.2632773    0.0000084    2.1528658  
C   -1.8985362    0.0000517    4.5177257  
C   -1.3925775   -0.0004564    5.7720543  
O   -2.1456383   -0.0005410    6.8851312  
C    0.0786232   -0.0009323    6.0245000  
O    0.4683759   -0.0012588    7.1921102  
C    1.0143166   -0.0008442    4.8859032  
H    2.1107198   -0.0000632    2.0421868  
H   -2.9622183    0.0003270    4.3293377  
H   -1.5042274   -0.0009692    7.6184419  
H    2.0724152   -0.0013148    5.1109744  
