58

C   -6.7218109    2.1175765    0.3721797  
C   -6.8925975    2.9601219    1.4233811  
C   -8.3069794    2.9917130    1.7121095  
C   -8.9508122    2.0920349    0.7359695  
N   -7.9353566    1.5942962   -0.0476104  
C  -10.2846427    1.8486703    0.6778954  
C  -11.1434641    2.5176425    1.6409326  
O  -12.3574860    2.3640566    1.6702734  
C  -10.4831299    3.4749934    2.6836417  
O  -11.1960981    4.0440234    3.4992039  
C   -9.0341942    3.6569876    2.6473658  
H   -6.1163780    3.4982340    1.9377074  
H  -10.7366708    1.1849882   -0.0460565  
H   -8.5847670    4.3213607    3.3728635  
H   -8.0568576    0.9486264   -0.8061589  
C   -4.2186860    2.1401322   -0.0437259  
C   -5.4804245    1.7323143   -0.3144294  
C   -5.3466892    0.8217466   -1.4411418  
C   -3.8965662    0.7958598   -1.7293371  
N   -3.2302256    1.5666944   -0.9133754  
C   -3.3460097   -0.0004262   -2.7913647  
C   -4.2050299   -0.7376506   -3.5315798  
O   -3.8298208   -1.5261789   -4.5530897  
C   -5.6737591   -0.7329690   -3.2651707  
O   -6.3965397   -1.4282085   -3.9789286  
C   -6.2140638    0.0921571   -2.1701078  
H   -4.6590779   -1.9185769   -4.8809753  
H   -7.2835615    0.0679009   -2.0094319  
H   -3.8917471    2.8223391    0.7248295  
C    0.0000000    0.0000000    0.0000000  
C    1.0662919   -0.0000103   -0.8334272  
C    0.4961868    0.0000066   -2.1718889  
C   -0.9663860   -0.0000849   -1.9540248  
N   -1.2632775   -0.0000084   -0.6828659  
C   -1.8985364   -0.0000515   -3.0477258  
C   -1.3925778    0.0004567   -4.3020543  
O   -2.1456385    0.0005412   -5.4151314  
C    0.0786229    0.0009326   -4.5544999  
O    0.4683756    0.0012594   -5.7221104  
C    1.0143162    0.0008443   -3.4159034  
H    2.1107195    0.0000631   -0.5721869  
H   -1.5042277    0.0009692   -6.1484420  
H    2.0724151    0.0013151   -3.6409746  
C    1.0672568    0.0000697    2.3021913  
C    0.0000000    0.0000000    1.4700000  
C   -1.1601224    0.0000736    2.3478473  
C   -0.5938729    0.0000769    3.7138435  
N    0.7113367    0.0001554    3.6934124  
C   -1.4286986    0.0001879    4.8835240  
C   -2.7683114    0.0006799    4.6970523  
O   -3.6653903    0.0008304    5.6976972  
C   -3.3702025    0.0010610    3.3310774  
O   -4.5974910    0.0013779    3.2362962  
C   -2.4926826    0.0008943    2.1470656  
H   -0.9878360   -0.0000190    5.8697035  
H   -4.5324246    0.0012261    5.2533954  
H   -2.9677772    0.0012974    1.1752040  
H    2.1134392    0.0000545    2.0405121  
