58

C   -2.9481722   -0.0008213   -8.5573797  
C   -3.9995227   -0.0012618   -7.6978817  
C   -5.1996326   -0.0018655   -8.5007341  
C   -4.7581096   -0.0017690   -9.9085154  
N   -3.3827153   -0.0007268   -9.8741610  
C   -5.5950378   -0.0026240  -10.9768105  
C   -7.0261882   -0.0034857  -10.7231533  
O   -7.8612835   -0.0042286  -11.6180915  
C   -7.5162091   -0.0033511   -9.2400194  
O   -8.7187983   -0.0037647   -9.0141013  
C   -6.5182992   -0.0026731   -8.1732350  
H   -3.9410168   -0.0009914   -6.6240149  
H   -5.2505494   -0.0026657  -12.0016225  
H   -6.8658227   -0.0027896   -7.1490519  
H   -2.7864426   -0.0019699  -10.6813185  
C   -0.8712823    0.0001712   -4.7267111  
C    0.4275910    0.0003833   -5.1068518  
C    0.3927412    0.0003245   -6.5612538  
C   -1.0467464   -0.0000493   -6.8995721  
N   -1.7925765   -0.0000599   -5.8282521  
C   -1.5084814   -0.0001661   -8.2604129  
C   -0.5746209    0.0004685   -9.2387989  
O   -0.8627925    0.0004375  -10.5514293  
C    0.8856685    0.0012293   -8.9294212  
O    1.6794953    0.0016581   -9.8701972  
C    1.3340966    0.0012908   -7.5255564  
H    1.3014265    0.0006484   -4.4779743  
H    0.0042906    0.0010051  -10.9956357  
H    2.4004346    0.0019674   -7.3434770  
C    1.0965515    0.0001358   -0.8010304  
C    0.0000000    0.0000000    0.0000000  
C   -1.1546562    0.0001470   -0.8669514  
C   -0.6372012    0.0003520   -2.2486282  
N    0.7342873    0.0007338   -2.1395014  
C   -1.4147737    0.0001354   -3.3608717  
C   -2.8576047   -0.0001047   -3.1854463  
O   -3.6427778   -0.0002491   -4.1244908  
C   -3.4275837   -0.0000725   -1.7311667  
O   -4.6406828    0.0000333   -1.5710061  
C   -2.4891866   -0.0001090   -0.6116745  
H   -2.8919121   -0.0002919    0.3920865  
H    2.1388272    0.0000662   -0.5261647  
H    1.3735873   -0.0006098   -2.9130261  
C    2.4951002    2.0940188    2.9809380  
C    1.9440701    1.6314916    1.8291961  
C    0.8759964    0.7350050    2.2038498  
C    0.8497377    0.7130254    3.6788474  
N    1.8560616    1.5571714    4.0882609  
C   -0.0205033   -0.0168748    4.4215661  
C   -0.9962600   -0.8356168    3.7214979  
O   -1.8224391   -1.5286685    4.3006425  
C   -0.9864710   -0.8277881    2.1595606  
O   -1.8030528   -1.5133726    1.5592035  
C    0.0000000    0.0000000    1.4700000  
H    2.2509283    1.8888011    0.8310761  
H   -0.0229599   -0.0187323    5.5027230  
H    3.3143982    2.7817323    3.1139444  
H    2.0889452    1.7545833    5.0442112  
