58

C    6.7743880   -1.9912967   -6.7716436  
C    7.8475440   -2.8233540   -6.7812257  
C    8.3734471   -2.8166535   -8.1259248  
C    7.5125541   -1.9059353   -8.9045426  
N    6.5624899   -1.4390130   -8.0257645  
C    7.6803154   -1.6283654  -10.2223125  
C    8.7821834   -2.2695416  -10.9203947  
O    9.0165344   -2.0843489  -12.1074420  
C    9.7064215   -3.2379758  -10.1155823  
O   10.6371350   -3.7838370  -10.6927026  
C    9.4254714   -3.4576999   -8.6990224  
H    8.2272845   -3.3785992   -5.9421110  
H    7.0375297   -0.9571551  -10.7747735  
H   10.0702306   -4.1295253   -8.1488770  
H    5.8294487   -0.7945745   -8.2589964  
C    5.9718893   -2.1066114   -4.3836101  
C    5.8824617   -1.6421429   -5.6565381  
C    4.7503164   -0.7470245   -5.6994995  
C    4.1834494   -0.7279189   -4.3374841  
N    4.9692736   -1.5728897   -3.5882214  
C    3.1006054    0.0006263   -3.9654951  
C    2.4499045    0.8204921   -4.9739315  
O    1.4681173    1.5123811   -4.7379557  
C    3.0331141    0.8153164   -6.4229469  
O    2.4935220    1.5013960   -7.2804990  
C    4.2049177   -0.0107665   -6.7027952  
H    4.6026869   -0.0086184   -7.7085282  
H    6.6857548   -2.7940671   -3.9597122  
H    4.8362804   -1.7697855   -2.6132382  
C    3.2798083    0.0005857   -1.4499652  
C    2.5571142    0.0005565   -2.5996556  
C    1.1637432    0.0001548   -2.2210361  
C    1.1336964   -0.0000200   -0.7459473  
N    2.4483512   -0.0001428   -0.3402723  
C    0.0000000    0.0000000    0.0000000  
C   -1.2757368   -0.0000186   -0.6964415  
O   -2.3524598   -0.0000639   -0.1142311  
C   -1.2676497   -0.0000872   -2.2584083  
O   -2.3355766   -0.0004101   -2.8557295  
C    0.0181558    0.0001758   -2.9516296  
H    0.0150788    0.0003319   -4.0331631  
H    4.3498547    0.0008612   -1.3200026  
H    2.7563626    0.0012823    0.6148059  
C    0.0000000    0.0000000    1.4700000  
C    1.0662921    0.0000102    2.3034270  
C    0.4961870   -0.0000064    3.6418889  
C   -0.9663858    0.0000850    3.4240247  
N   -1.2632773    0.0000084    2.1528658  
C   -1.8985362    0.0000517    4.5177257  
C   -1.3925775   -0.0004564    5.7720543  
O   -2.1456383   -0.0005410    6.8851312  
C    0.0786232   -0.0009323    6.0245000  
O    0.4683759   -0.0012588    7.1921102  
C    1.0143166   -0.0008442    4.8859032  
H    2.1107198   -0.0000632    2.0421868  
H   -2.9622183    0.0003270    4.3293377  
H   -1.5042274   -0.0009692    7.6184419  
H    2.0724152   -0.0013148    5.1109744  
