62

C    3.3003537    0.0005280   -1.4739005  
C    2.5232797    0.0003504   -2.6090757  
C    1.1623187   -0.0001314   -2.1820106  
C    1.1711877    0.0000587   -0.7636145  
N    2.4852297   -0.0014918   -0.3662365  
C    0.0000000    0.0000000    0.0000000  
C   -1.2020391    0.0000523   -0.6806467  
O   -2.3759253    0.0003494    0.0157759  
C   -1.2314671   -0.0005108   -2.0955501  
O   -2.5054405   -0.0008032   -2.6250164  
C   -0.0764533   -0.0007266   -2.8495190  
H    2.8919932   -0.0005611   -3.6205313  
H    2.8036265    0.0088180    0.5858650  
H   -3.0835645    0.0000350   -0.6418796  
H   -2.4360066   -0.0011520   -3.5845904  
H    4.3715539    0.0004899   -1.3667151  
C    2.2697402   -2.0933920   -5.9499317  
C    1.7761623   -1.6308840   -4.7724167  
C    0.6896433   -0.7359130   -5.0938795  
C    0.5899503   -0.7148020   -6.5657511  
N    1.5756926   -1.5579525   -7.0243352  
C   -0.3170997    0.0136154   -7.2645881  
C   -1.2578099    0.8315640   -6.5172193  
O   -2.1126625    1.5232792   -7.0548608  
C   -1.1702549    0.8246330   -4.9577028  
O   -1.9567862    1.5095619   -4.3177794  
C   -0.1496439   -0.0015603   -4.3176956  
H    2.1326561   -1.8872528   -3.7906831  
H   -0.3733858    0.0148564   -8.3442826  
H    1.7609369   -1.7556224   -7.9905952  
C    4.9637283   -4.2286949   -3.1675249  
C    5.7075571   -4.8908892   -4.1165686  
C    5.1896334   -4.5119374   -5.3904403  
C    4.1218605   -3.6087602   -5.1536747  
N    4.0102797   -3.4602808   -3.7934831  
C    3.3778086   -3.0300013   -6.1862512  
C    3.7180594   -3.3689381   -7.4814457  
O    3.0244961   -2.8325052   -8.5274976  
C    4.7800039   -4.2685562   -7.7379189  
O    4.9957316   -4.5057652   -9.0797599  
C    5.5142832   -4.8401052   -6.7197383  
H    6.5224149   -5.5650838   -3.9154182  
H    3.3449909   -2.8708283   -3.3266662  
H    3.4182734   -3.1960235   -9.3312755  
H    5.7288074   -5.1228946   -9.1655168  
H    6.3220219   -5.5259691   -6.9469527  
H    5.0369422   -4.2448214   -2.0935887  
C    0.0000000    0.0000000    1.4700000  
C    1.0541688    0.0001722    2.3260392  
C    0.5103138    0.0000454    3.6635956  
C   -0.9576371   -0.0002459    3.5155732  
N   -1.2018458    0.0001392    2.1615969  
C   -1.8348311   -0.0008317    4.5510609  
C   -1.2972847   -0.0009736    5.9014604  
O   -2.0050672   -0.0014265    6.9001319  
C    0.2542623   -0.0004184    6.0817573  
O    0.7184670   -0.0002256    7.2139121  
C    1.0974552   -0.0000873    4.8889129  
H    2.0940752    0.0005483    2.0517982  
H   -2.9081052   -0.0011668    4.4207061  
H    2.1707277    0.0000911    5.0223670  
H   -2.1128194   -0.0014912    1.7406791  
