58

C   -3.1006046    0.0019949   -3.9654949  
C   -4.3965740    0.0020822   -4.3711283  
C   -4.3857790    0.0024708   -5.8149838  
C   -2.9671161    0.0025745   -6.2201834  
N   -2.2396171    0.0026729   -5.0524355  
C   -2.5349202    0.0025227   -7.5066166  
C   -3.5336494    0.0025798   -8.5625877  
O   -3.2452490    0.0026010   -9.7521785  
C   -5.0419174    0.0027238   -8.1564681  
O   -5.8918119    0.0030794   -9.0367746  
C   -5.3843434    0.0024893   -6.7363993  
H   -5.2614021    0.0020780   -3.7318435  
H   -1.4895005    0.0024705   -7.7823110  
H   -1.2375699    0.0012004   -4.9981502  
C   -3.2798076    0.0021870   -1.4499654  
C   -2.5571136    0.0016052   -2.5996555  
C   -1.1637428    0.0008290   -2.2210361  
C   -1.1336958    0.0009784   -0.7459474  
N   -2.4483501    0.0022126   -0.3402719  
C    0.0000000    0.0000000    0.0000000  
C    1.2757363   -0.0010598   -0.6964412  
O    2.3524590   -0.0019247   -0.1142307  
C    1.2676495   -0.0009843   -2.2584080  
O    2.3355762   -0.0015643   -2.8557290  
C   -0.0181557   -0.0001607   -2.9516294  
H   -0.0150787   -0.0003191   -4.0331627  
H   -4.3498537    0.0028161   -1.3200026  
H   -2.7563628    0.0010479    0.6148061  
C   -7.5761645    2.1097129   -3.5679821  
C   -8.8282993    1.6451454   -3.8137669  
C   -8.7311739    0.7499617   -4.9425047  
C   -7.3096179    0.7309256   -5.3369750  
N   -6.6631029    1.5759950   -4.4647564  
C   -6.8068082    0.0023483   -6.3655965  
C   -7.7271915   -0.8176278   -7.1357069  
O   -7.3718270   -1.5095533   -8.0808289  
C   -9.2370972   -0.8125271   -6.7357531  
O  -10.0214681   -1.4987000   -7.3769940  
C   -9.6594547    0.0135996   -5.6074883  
H   -9.7184170    1.9005639   -3.2668984  
H  -10.7065836    0.0113990   -5.3368587  
H   -7.2436373    2.7972395   -2.8073093  
H   -5.6791732    1.7729555   -4.4764393  
C    2.3971438    2.0127888    3.1728260  
C    1.9431056    1.6308205    1.9564670  
C    0.8496017    0.7127664    2.2356185  
C    0.7794028    0.6545384    3.7115134  
N    1.6840587    1.4146091    4.2663826  
C   -0.1885723   -0.1578550    4.3957118  
C   -1.0476298   -0.8789867    3.6398520  
O   -2.0015663   -1.6796266    4.1448486  
C   -1.0022026   -0.8410666    2.1483229  
O   -1.8147390   -1.5232959    1.5241687  
C    0.0000000    0.0000000    1.4700000  
H    2.3054237    1.9346118    0.9892483  
H   -0.2170646   -0.1815267    5.4753125  
H   -2.4487139   -2.0549881    3.3649027  
H    3.2048689    2.6911772    3.3971983  
