58

C    4.4329269   -2.1037421   -6.1159217  
C    5.4146963   -1.6391406   -6.9309982  
C    4.7890687   -0.7445016   -7.8760099  
C    3.3520391   -0.7258222   -7.5422651  
N    3.2019164   -1.5705573   -6.4667304  
C    2.4181296    0.0022091   -8.2052051  
C    2.8576023    0.8219321   -9.3220993  
O    2.0931299    1.5133688   -9.9822492  
C    4.3748332    0.8172013   -9.6933048  
O    4.7565730    1.5031654  -10.6319146  
C    5.2858024   -0.0083421   -8.9043405  
H    6.4580558   -1.8941941   -6.8765692  
H    6.3347835   -0.0058882   -9.1676955  
H    4.5051008   -2.7909496   -5.2886213  
H    2.3323882   -1.7676411   -6.0061590  
C    0.0950448    0.0004350   -4.4015596  
C    1.1321311    0.0004157   -5.2710605  
C    0.5164646    0.0007446   -6.5891853  
C   -0.9377772    0.0008248   -6.3212971  
N   -1.1909055    0.0007248   -5.0407053  
C   -1.9068834    0.0011798   -7.3823910  
C   -1.4442339    0.0018320   -8.6533312  
O   -2.2350200    0.0022163   -9.7399307  
C    0.0174454    0.0021409   -8.9560776  
O    0.3669305    0.0026129  -10.1363659  
C    0.9916315    0.0017226   -7.8502354  
H    2.1849027    0.0002948   -5.0457879  
H   -2.9634801    0.0010242   -7.1576394  
H   -1.6191318    0.0026787  -10.4948045  
C    3.3321173    0.0004714   -1.3379336  
C    2.6974184    0.0000115   -2.5332313  
C    1.2800437   -0.0002119   -2.2052840  
C    1.2395034    0.0000643   -0.7271298  
N    2.4394063    0.0005459   -0.2131037  
C    0.0000000    0.0000000    0.0000000  
C   -1.1468702    0.0000634   -0.7169544  
O   -2.3742202    0.0000072   -0.1695489  
C   -1.1388770    0.0001606   -2.2096356  
O   -2.2206231    0.0000903   -2.7970412  
C    0.1454523    0.0001814   -2.9324241  
H    3.1367986   -0.0000653   -3.5160949  
H   -2.9844345    0.0001025   -0.9290168  
H    4.3940040    0.0007618   -1.1498638  
C    0.0000000    0.0000000    1.4700000  
C    1.0662921    0.0000102    2.3034270  
C    0.4961870   -0.0000064    3.6418889  
C   -0.9663858    0.0000850    3.4240247  
N   -1.2632773    0.0000084    2.1528658  
C   -1.8985362    0.0000517    4.5177257  
C   -1.3925775   -0.0004564    5.7720543  
O   -2.1456383   -0.0005410    6.8851312  
C    0.0786232   -0.0009323    6.0245000  
O    0.4683759   -0.0012588    7.1921102  
C    1.0143166   -0.0008442    4.8859032  
H    2.1107198   -0.0000632    2.0421868  
H   -2.9622183    0.0003270    4.3293377  
H   -1.5042274   -0.0009692    7.6184419  
H    2.0724152   -0.0013148    5.1109744  
