58

C    1.0965514    0.0001358   -0.8010306  
C    0.0000000    0.0000000    0.0000000  
C   -1.1546563    0.0001469   -0.8669509  
C   -0.6372022    0.0003521   -2.2486280  
N    0.7342868    0.0007339   -2.1395012  
C   -1.4147750    0.0001354   -3.3608711  
C   -2.8576060   -0.0001044   -3.1854453  
O   -3.6427790   -0.0002492   -4.1244898  
C   -3.4275848   -0.0000724   -1.7311655  
O   -4.6406836    0.0000336   -1.5710048  
C   -2.4891872   -0.0001088   -0.6116739  
H   -1.0150456    0.0001618   -4.3654240  
H   -2.8919117   -0.0002917    0.3920867  
H    2.1388271    0.0000661   -0.5261648  
C    4.4892970   -2.1441339   -2.6751667  
C    4.8760700   -1.7381811   -3.9069086  
C    3.8307835   -0.8270017   -4.3469398  
C    2.8653297   -0.7987567   -3.2272588  
N    3.2460493   -1.5688475   -2.2444047  
C    1.6707635   -0.0012343   -3.2725975  
C    1.4508812    0.7349196   -4.3857298  
O    0.3779849    1.5243969   -4.5636594  
C    2.4065718    0.7278584   -5.5323626  
O    2.1425163    1.4222296   -6.5138631  
C    3.6247981   -0.0984999   -5.4617876  
H    0.5018301    1.9156225   -5.4472639  
H    4.2917519   -0.0759645   -6.3131955  
H    4.9961447   -2.8261076   -2.0110957  
C    6.9843829   -5.5904578   -4.3667014  
C    6.1130512   -4.6095990   -4.0163157  
C    6.5680430   -3.3955458   -4.6518404  
C    7.7845816   -3.7520730   -5.4066353  
N    7.9831087   -5.0964877   -5.1920991  
C    8.5147750   -2.8786004   -6.1452601  
C    8.0731512   -1.4949573   -6.2003451  
O    8.6628378   -0.6324270   -6.8380065  
C    6.7875463   -1.0950222   -5.4084630  
O    6.4062478    0.0670362   -5.4470897  
C    6.0849166   -2.1256196   -4.6481784  
H    5.2501731   -4.7235058   -3.3845871  
H    9.4040957   -3.1606914   -6.6915610  
H    6.9810597   -6.6325629   -4.0912090  
H    8.7362370   -5.6361727   -5.5775676  
C    0.8681109    0.7263879    2.2709268  
C    0.6127770    0.5096195    3.5869401  
C   -0.4920590   -0.4175482    3.6542670  
C   -0.8620974   -0.7254003    2.2596025  
N    0.0000000    0.0000000    1.4700000  
C   -1.8641242   -1.5660088    1.8976294  
C   -2.6293522   -2.2103885    2.9520183  
O   -3.5512764   -2.9839180    2.7283916  
C   -2.2549728   -1.8987399    4.4361073  
O   -2.8923672   -2.4351063    5.3323774  
C   -1.1543735   -0.9755647    4.7012123  
H    1.1382914    0.9492124    4.4159191  
H   -2.1192137   -1.7782617    0.8686553  
H   -0.9013378   -0.7652422    5.7314848  
H    1.6172880    1.3558399    1.8188057  
