60

C    0.0000000    0.0000000    0.0000000  
C   -1.0390147   -0.1658433   -0.8862349  
C   -0.4856762   -0.0768739   -2.1979136  
C    0.9071445    0.1455283   -2.0478681  
N    1.1681643    0.1887663   -0.7007909  
C    1.7725738    0.2839392   -3.1372085  
C    1.2219763    0.1959356   -4.4010421  
O    2.0217073    0.3234872   -5.4997575  
C   -0.1654501   -0.0252260   -4.5711965  
O   -0.5604855   -0.0880169   -5.8915553  
C   -1.0198557   -0.1615970   -3.4969897  
H   -2.0692252   -0.3295775   -0.6200569  
H    2.0739892    0.3230793   -0.2891817  
H    1.4450377    0.2316700   -6.2693589  
H   -1.5102079   -0.2394472   -5.9180050  
H   -2.0781624   -0.3301068   -3.6584465  
C    4.7272234   -1.3784698   -0.3461907  
C    5.8379856   -0.7305210   -0.7825901  
C    5.4296301    0.1109514   -1.8825927  
C    3.9795101   -0.1013769   -2.0524723  
N    3.6152868   -1.0154848   -1.0908915  
C    3.2169408    0.5147724   -2.9908496  
C    3.8679032    1.4492619   -3.8939074  
O    3.2677163    2.0542236   -4.7725981  
C    5.4028569    1.6892544   -3.7322716  
O    5.9619144    2.4735413   -4.4869964  
C    6.1175431    0.9666530   -2.6830224  
H    6.8301977   -0.8307500   -0.3799947  
H    7.1801082    1.1385921   -2.5775863  
H    2.6846499   -1.3636169   -0.9503001  
C    7.6662578   -3.0521390    2.4545676  
C    6.8526802   -3.8683384    3.1728883  
C    5.5242671   -3.7267403    2.6250705  
C    5.6313866   -2.7541904    1.5207776  
N    6.9552842   -2.3832720    1.4697460  
C    4.5911424   -2.3498746    0.7486858  
C    3.2783824   -2.9097901    1.0238065  
O    2.2787166   -2.6091732    0.3845894  
C    3.1416889   -3.9412850    2.1887694  
O    2.0413869   -4.4192309    2.4299410  
C    4.3357022   -4.2990817    2.9504556  
H    7.1492516   -4.4976271    3.9930436  
H    4.2326004   -5.0141371    3.7553095  
H    8.7253602   -2.8828316    2.5619261  
H    7.3453443   -1.7291285    0.8162963  
C    3.2573670    0.0002920    2.9809380  
C    2.5379467    0.0001709    1.8291961  
C    1.1435042   -0.0000331    2.2038498  
C    1.1092607    0.0000083    3.6788474  
N    2.4227561   -0.0001909    4.0882609  
C   -0.0265533    0.0002524    4.4215661  
C   -1.3003036    0.0002640    3.7214979  
O   -2.3786784    0.0004133    4.3006425  
C   -1.2877726   -0.0000311    2.1595606  
O   -2.3539958   -0.0003306    1.5592035  
C    0.0000000    0.0000000    1.4700000  
H    2.9384090    0.0000368    0.8310761  
H   -0.0296291    0.0004086    5.5027230  
H    4.3270393    0.0004765    3.1139444  
H    2.7280493    0.0013407    5.0442112  
