58

C    3.4495186   -0.7031440   -7.3827078  
C    2.5263060    0.0005363   -8.0873975  
C    3.2433233    0.7412379   -9.0983786  
C    4.6701680    0.4089982   -8.9236795  
N    4.7277193   -0.4706354   -7.8673536  
C    5.6748288    0.9074110   -9.6878427  
C    5.3276869    1.8330081  -10.7533465  
O    6.1603966    2.3364026  -11.4959701  
C    3.8228373    2.1991508  -10.9562595  
O    3.5184903    2.9776113  -11.8499221  
C    2.8303746    1.5973594  -10.0692893  
H    6.7150420    0.6506753   -9.5430946  
H    1.7905660    1.8558975  -10.2165311  
H    3.3036757   -1.3718509   -6.5499707  
H    5.5685155   -0.8820663   -7.5056444  
C    0.0950448    0.0004350   -4.4015596  
C    1.1192393    0.0002600   -5.2932436  
C    0.5298386    0.0006955   -6.6113640  
C   -0.9321731    0.0011709   -6.4130916  
N   -1.1298097    0.0005870   -5.0515376  
C   -1.8443588    0.0020607   -7.4178909  
C   -1.3534348    0.0023591   -8.7859296  
O   -2.0950461    0.0030854   -9.7597423  
C    0.1910171    0.0016134   -9.0193235  
O    0.6161265    0.0015496  -10.1667301  
C    1.0746176    0.0009559   -7.8560944  
H    2.1679381   -0.0003120   -5.0548232  
H   -2.9125319    0.0025267   -7.2508092  
H   -2.0258137    0.0022747   -4.5996293  
C    3.3321173    0.0004714   -1.3379336  
C    2.6974184    0.0000115   -2.5332313  
C    1.2800437   -0.0002119   -2.2052840  
C    1.2395034    0.0000643   -0.7271298  
N    2.4394063    0.0005459   -0.2131037  
C    0.0000000    0.0000000    0.0000000  
C   -1.1468702    0.0000634   -0.7169544  
O   -2.3742202    0.0000072   -0.1695489  
C   -1.1388770    0.0001606   -2.2096356  
O   -2.2206231    0.0000903   -2.7970412  
C    0.1454523    0.0001814   -2.9324241  
H    3.1367986   -0.0000653   -3.5160949  
H   -2.9844345    0.0001025   -0.9290168  
H    4.3940040    0.0007618   -1.1498638  
C    0.0000000    0.0000000    1.4700000  
C    1.0662921    0.0000102    2.3034270  
C    0.4961870   -0.0000064    3.6418889  
C   -0.9663858    0.0000850    3.4240247  
N   -1.2632773    0.0000084    2.1528658  
C   -1.8985362    0.0000517    4.5177257  
C   -1.3925775   -0.0004564    5.7720543  
O   -2.1456383   -0.0005410    6.8851312  
C    0.0786232   -0.0009323    6.0245000  
O    0.4683759   -0.0012588    7.1921102  
C    1.0143166   -0.0008442    4.8859032  
H    2.1107198   -0.0000632    2.0421868  
H   -2.9622183    0.0003270    4.3293377  
H   -1.5042274   -0.0009692    7.6184419  
H    2.0724152   -0.0013148    5.1109744  
