60

C    3.3003547    0.0005275   -1.4738980  
C    2.5232816    0.0003495   -2.6090742  
C    1.1623206   -0.0001320   -2.1820096  
C    1.1711889    0.0000583   -0.7636136  
N    2.4852300   -0.0014920   -0.3662353  
C    0.0000000    0.0000000    0.0000000  
C   -1.2020382    0.0000519   -0.6806479  
O   -2.3759247    0.0003494    0.0157745  
C   -1.2314650   -0.0005113   -2.0955508  
O   -2.5054383   -0.0008037   -2.6250181  
C   -0.0764510   -0.0007273   -2.8495192  
H    2.8919962   -0.0005621   -3.6205295  
H    2.8036265    0.0088181    0.5858667  
H   -3.0835641    0.0000347   -0.6418820  
H   -2.4360047   -0.0011529   -3.5845921  
C    5.6692781    0.0003509   -2.3388886  
C    4.7630506    0.0004754   -1.3275394  
C    5.5107324    0.0002563   -0.0923034  
C    6.9370640    0.0000210   -0.4696224  
N    6.9650293   -0.0003075   -1.8451613  
C    7.9663628    0.0001703    0.4148255  
C    7.6481554    0.0003646    1.8330215  
O    8.5043584    0.0004476    2.7077878  
C    6.1443525    0.0003633    2.2553745  
O    5.8642069    0.0002193    3.4465004  
C    5.1238538    0.0004732    1.2101796  
H    9.0057225    0.0001229    0.1170994  
H    4.0849828    0.0006771    1.5109657  
H    5.4995504    0.0004676   -3.4033520  
H    7.7983621    0.0010317   -2.4042699  
C    2.2882822   -2.1097770   -5.8897962  
C    1.6780097   -1.6459966   -7.0107556  
C    0.6303825   -0.7506088   -6.5799497  
C    0.6807213   -0.7305953   -5.1055495  
N    1.7068267   -1.5753511   -4.7500425  
C   -0.1496409   -0.0015614   -4.3176961  
C   -1.1605334    0.8179096   -4.9650744  
O   -1.9554930    1.5101851   -4.3429047  
C   -1.2321577    0.8117731   -6.5254067  
O   -2.0792923    1.4975138   -7.0816293  
C   -0.2825933   -0.0147700   -7.2663562  
H    1.9325538   -1.9020645   -8.0237955  
H   -0.3386962   -0.0132868   -8.3464369  
H    3.1137391   -2.7971813   -5.8004310  
H    1.9909868   -1.7716677   -3.8078326  
C    0.8400945    0.7047457    2.2710304  
C    0.0000000    0.0000000    1.4700000  
C   -0.8844236   -0.7423113    2.3369512  
C   -0.4878984   -0.4098547    3.7186280  
N    0.5629682    0.4714286    3.6095011  
C   -1.0836927   -0.9095027    4.8308716  
C   -2.1891196   -1.8367527    4.6554461  
O   -2.7906899   -2.3413415    5.5944904  
C   -2.6257283   -2.2031529    3.2011665  
O   -3.5549479   -2.9829990    3.0410059  
C   -1.9068976   -1.5999348    2.0816745  
H   -0.7774656   -0.6525820    5.8354244  
H   -2.2155208   -1.8586617    1.0779135  
H    1.6384792    1.3747609    1.9961646  
H    1.0518368    0.8833920    4.3830260  
