60

C    1.1188635    0.0008230   -0.8003812  
C    0.0000000    0.0000000    0.0000000  
C   -1.1323869    0.0008899   -0.8673520  
C   -0.6382674    0.0019682   -2.1969276  
N    0.7324004    0.0038489   -2.1202243  
C   -1.4770932    0.0027322   -3.3154803  
C   -2.8395494    0.0020944   -3.0876841  
O   -3.7039219    0.0024426   -4.1440332  
C   -3.3517877    0.0013927   -1.7684319  
O   -4.7300505    0.0012356   -1.7073100  
C   -2.5248549    0.0009118   -0.6644807  
H   -1.1067591    0.0036995   -4.3313805  
H   -4.5940051    0.0021826   -3.7685106  
H   -4.9934603    0.0007250   -0.7819896  
H   -2.9462583    0.0005596    0.3339673  
H    2.1619887    0.0009364   -0.5342077  
C    2.8254802   -0.7379435   -3.3478744  
C    3.4453571   -0.5353471   -4.5390008  
C    2.6233053    0.3835452   -5.2904680  
C    1.4654085    0.7019859   -4.4333444  
N    1.6478417   -0.0100087   -3.2703005  
C    0.4564068    1.5390771   -4.7839136  
C    0.5146205    2.1682250   -6.0928519  
O   -0.3455857    2.9374869   -6.5009965  
C    1.7316009    1.8451748   -7.0171905  
O    1.7913120    2.3686840   -8.1215608  
C    2.7573620    0.9271118   -6.5284914  
H    4.3725554   -0.9791205   -4.8552011  
H   -0.3838664    1.7592661   -4.1402000  
H    3.1297774   -1.3579524   -2.5202983  
C    3.8983574    0.6304241   -7.4065613  
C    4.9514017   -0.1827436   -7.1587014  
C    5.7731519   -0.1080402   -8.3568859  
C    5.0469034    0.8205032   -9.2496089  
N    3.9471974    1.2566942   -8.6979076  
C    5.5407777    1.1636035  -10.5547746  
C    6.7073475    0.6048051  -10.9499854  
O    7.2845029    0.8357111  -12.1414613  
C    7.4639178   -0.3356404  -10.0717343  
O    8.5188241   -0.8067891  -10.4964843  
C    6.9365185   -0.6718648   -8.7372955  
H    5.1464937   -0.7616875   -6.2722258  
H    4.9892541    1.8447857  -11.1862193  
H    8.0982200    0.3000784  -12.1307603  
H    7.5144857   -1.3569229   -8.1315900  
C    0.8400945    0.7047457    2.2710304  
C    0.0000000    0.0000000    1.4700000  
C   -0.8844236   -0.7423113    2.3369512  
C   -0.4878984   -0.4098547    3.7186280  
N    0.5629682    0.4714286    3.6095011  
C   -1.0836927   -0.9095027    4.8308716  
C   -2.1891196   -1.8367527    4.6554461  
O   -2.7906899   -2.3413415    5.5944904  
C   -2.6257283   -2.2031529    3.2011665  
O   -3.5549479   -2.9829990    3.0410059  
C   -1.9068976   -1.5999348    2.0816745  
H   -0.7774656   -0.6525820    5.8354244  
H   -2.2155208   -1.8586617    1.0779135  
H    1.6384792    1.3747609    1.9961646  
H    1.0518368    0.8833920    4.3830260  
