62

C    4.1072303   -0.7191023   -4.4475472  
C    3.0267433   -0.0008947   -3.9901699  
C    2.5087344    0.7258922   -5.1028455  
C    3.3206451    0.4084345   -6.2217506  
N    4.2827389   -0.4698428   -5.7885972  
C    3.1000325    0.9464857   -7.4932141  
C    2.0403143    1.8207030   -7.6378508  
O    1.7797466    2.3748859   -8.8576868  
C    1.2191161    2.1500706   -6.5333297  
O    0.2053884    3.0346610   -6.8386143  
C    1.4363344    1.6198580   -5.2786520  
H    3.7152882    0.7086621   -8.3500122  
H    1.0098898    2.9463183   -8.7391490  
H   -0.3015567    3.2041275   -6.0386819  
H    0.7906448    1.8909176   -4.4515547  
H    4.7674524   -1.3883357   -3.9229595  
C    3.3003543    0.0005277   -1.4738984  
C    2.5232813    0.0003500   -2.6090746  
C    1.1623201   -0.0001317   -2.1820101  
C    1.1711884    0.0000583   -0.7636139  
N    2.4852298   -0.0014919   -0.3662355  
C    0.0000000    0.0000000    0.0000000  
C   -1.2020383    0.0000520   -0.6806478  
O   -2.3759254    0.0003497    0.0157747  
C   -1.2314658   -0.0005111   -2.0955512  
O   -2.5054392   -0.0008038   -2.6250184  
C   -0.0764517   -0.0007270   -2.8495193  
H    2.8036267    0.0088183    0.5858660  
H   -3.0835638    0.0000347   -0.6418817  
H   -2.4360049   -0.0011522   -3.5845925  
H   -0.1304094   -0.0013419   -3.9319087  
H    4.3715550    0.0004896   -1.3667135  
C    5.7609428   -2.3548656   -6.5770178  
C    5.3276212   -1.0690335   -6.6312670  
C    6.0873175   -0.4121828   -7.6686886  
C    7.0053136   -1.4280321   -8.2183461  
N    6.7577258   -2.5833467   -7.5134786  
C    7.8922944   -1.2011662   -9.2200956  
C    7.9465771    0.1325891   -9.7951479  
O    8.7114414    0.4367216  -10.7011214  
C    6.9836599    1.2240473   -9.2283005  
O    7.0205093    2.3506816   -9.7043235  
C    6.0713839    0.8593661   -8.1472774  
H    8.5567226   -1.9603450   -9.6088015  
H    5.4077821    1.6208032   -7.7605332  
H    5.4361096   -3.1547171   -5.9315639  
H    7.2272450   -3.4583114   -7.6585168  
C    0.8175213    0.6860729    2.3021913  
C    0.0000000    0.0000000    1.4700000  
C   -0.8887526   -0.7456559    2.3478473  
C   -0.4549825   -0.3816753    3.7138435  
N    0.5448156    0.4573574    3.6934124  
C   -1.0945674   -0.9182058    4.8835240  
C   -2.1210866   -1.7789155    4.6970523  
O   -2.8083856   -2.3554314    5.6976972  
C   -2.5824069   -2.1655116    3.3310774  
O   -3.5227682   -2.9541547    3.2362962  
C   -1.9100805   -1.6015804    2.1470656  
H   -0.7567140   -0.6349833    5.8697035  
H   -3.4728268   -2.9124471    5.2533954  
H   -2.2742832   -1.9066565    1.1752040  
H    1.6189533    1.3585343    2.0405121  
