58

C    0.0000000    0.0000000    0.0000000  
C    1.0541693   -0.0001722   -0.8560387  
C    0.5103150   -0.0000453   -2.1935956  
C   -0.9576359    0.0002463   -2.0455738  
N   -1.2018452   -0.0001387   -0.6915977  
C   -1.8348290    0.0008322   -3.0810622  
C   -1.2972821    0.0009744   -4.4314615  
O   -2.0050638    0.0014275   -5.4301331  
C    0.2542652    0.0004188   -4.6117576  
O    0.7184705    0.0002260   -5.7439120  
C    1.0974570    0.0000875   -3.4189127  
H    2.0940754   -0.0005486   -0.5817977  
H    2.1707302   -0.0000913   -3.5523661  
H   -2.1128189    0.0014918   -0.2706805  
C   -4.6945328    2.0112733   -0.3161638  
C   -3.5419717    1.6295587   -0.9140565  
C   -3.9513650    0.7131112   -1.9671571  
C   -5.4249846    0.6554386   -1.8589750  
N   -5.8663720    1.4144239   -0.8929997  
C   -6.2212849   -0.1553971   -2.7384849  
C   -5.5748568   -0.8755691   -3.6833755  
O   -6.1915649   -1.6747263   -4.5705397  
C   -4.0887134   -0.8381747   -3.8180605  
O   -3.5674030   -1.5194682   -4.7008375  
C   -3.2941055    0.0012883   -2.9038262  
H   -2.5379802    1.9325465   -0.6705906  
H   -5.4713988   -2.0497083   -5.1089655  
H   -4.8195600    2.6886083    0.5136308  
C   -9.0314056    3.0638091   -1.8855893  
C  -10.2182112    2.4133682   -1.8852834  
C   -9.8852732    1.0253400   -2.1664061  
C   -8.4138351    1.0172661   -2.3126534  
N   -7.9077171    2.2093476   -2.1490189  
C   -7.6843928   -0.1871001   -2.5998861  
C   -8.3926799   -1.3314526   -2.7345001  
O   -7.8421756   -2.5277339   -3.0026360  
C   -9.8783907   -1.3557939   -2.5922577  
O  -10.4580501   -2.4332271   -2.7277314  
C  -10.6037236   -0.1072040   -2.2975711  
H  -11.1985035    2.8246725   -1.7151959  
H   -8.5952535   -3.1447716   -3.0385603  
H  -11.6796002   -0.1670660   -2.2019959  
H   -8.8490968    4.1130425   -1.7157508  
C    1.0965515   -0.0001358    2.2710304  
C    0.0000000    0.0000000    1.4700000  
C   -1.1546562   -0.0001469    2.3369512  
C   -0.6372014   -0.0003519    3.7186280  
N    0.7342871   -0.0007337    3.6095011  
C   -1.4147739   -0.0001353    4.8308716  
C   -2.8576048    0.0001048    4.6554461  
O   -3.6427778    0.0002493    5.5944904  
C   -3.4275839    0.0000726    3.2011665  
O   -4.6406829   -0.0000333    3.0410059  
C   -2.4891866    0.0001091    2.0816745  
H   -1.0150448   -0.0001615    5.8354244  
H   -2.8919121    0.0002919    1.0779135  
H    2.1388271   -0.0000662    1.9961646  
H    1.3735872    0.0006099    4.3830260  
