58

C    0.2561376    0.5603400   -9.3652525  
C    1.3287170   -0.2724581   -9.3750433  
C    1.8548911   -0.2654428  -10.7196347  
C    0.9947860    0.6462672  -11.4979628  
N    0.0448720    1.1134051  -10.6191365  
C    1.1630012    0.9243867  -12.8155580  
C    2.2645614    0.2827981  -13.5137456  
O    2.4992771    0.4684278  -14.7006534  
C    3.1879670   -0.6866854  -12.7092402  
O    4.1184161   -1.2329018  -13.2864530  
C    2.9065837   -0.9069306  -11.2928483  
H    1.7079050   -0.8283911   -8.5361345  
H    0.5207918    1.5963229  -13.3678065  
H    3.5507663   -1.5794819  -10.7429144  
H   -0.6876752    1.7584712  -10.8521871  
C    0.2055738   -0.7043961   -5.1603473  
C   -0.8712826    0.0001710   -4.7267111  
C   -1.3726441    0.7423356   -5.8592585  
C   -0.4933180    0.4099879   -6.9964130  
N    0.4429034   -0.4710990   -6.5064485  
C   -0.6357671    0.9095500   -8.2501477  
C   -1.7278965    1.8365862   -8.4958971  
O   -1.9397489    2.3410838   -9.5908409  
C   -2.6713151    2.2028683   -7.3061057  
O   -3.5940520    2.9825344   -7.5008833  
C   -2.4172085    1.5997592   -6.0001415  
H   -3.0751239    1.8584032   -5.1816219  
H    0.8458869   -1.3742666   -4.6097458  
H    1.1831970   -0.8829508   -7.0443978  
C    1.0965514    0.0001359   -0.8010305  
C    0.0000000    0.0000000    0.0000000  
C   -1.1546563    0.0001470   -0.8669513  
C   -0.6372014    0.0003519   -2.2486282  
N    0.7342871    0.0007337   -2.1395014  
C   -1.4147739    0.0001352   -3.3608717  
C   -2.8576049   -0.0001048   -3.1854462  
O   -3.6427779   -0.0002494   -4.1244907  
C   -3.4275840   -0.0000725   -1.7311666  
O   -4.6406831    0.0000333   -1.5710060  
C   -2.4891867   -0.0001091   -0.6116744  
H   -2.8919122   -0.0002918    0.3920866  
H    2.1388272    0.0000663   -0.5261648  
H    1.3735872   -0.0006099   -2.9130262  
C    2.3971438    2.0127888    3.1728260  
C    1.9431056    1.6308205    1.9564670  
C    0.8496017    0.7127664    2.2356185  
C    0.7794028    0.6545384    3.7115134  
N    1.6840587    1.4146091    4.2663826  
C   -0.1885723   -0.1578550    4.3957118  
C   -1.0476298   -0.8789867    3.6398520  
O   -2.0015663   -1.6796266    4.1448486  
C   -1.0022026   -0.8410666    2.1483229  
O   -1.8147390   -1.5232959    1.5241687  
C    0.0000000    0.0000000    1.4700000  
H    2.3054237    1.9346118    0.9892483  
H   -0.2170646   -0.1815267    5.4753125  
H   -2.4487139   -2.0549881    3.3649027  
H    3.2048689    2.6911772    3.3971983  
