58

C    0.8532103   -0.7025395   -5.2251466  
C    0.0139735    0.0003886   -4.4216231  
C   -0.8744136    0.7410332   -5.2859437  
C   -0.4811493    0.4095797   -6.6687925  
N    0.5718052   -0.4695906   -6.5627882  
C   -1.0811155    0.9081810   -7.7792619  
C   -2.1879133    1.8331660   -7.6005530  
O   -2.7931727    2.3366715   -8.5378062  
C   -2.6211229    2.1984714   -6.1449824  
O   -3.5514597    2.9764119   -5.9820615  
C   -1.8978910    1.5965482   -5.0276304  
H   -2.2041801    1.8545051   -4.0229567  
H    1.6537281   -1.3709767   -4.9526535  
H    1.0593038   -0.8804518   -7.3377627  
C    3.2798084    0.0005862   -1.4499651  
C    2.5571143    0.0005571   -2.5996555  
C    1.1637432    0.0001554   -2.2210362  
C    1.1336965   -0.0000198   -0.7459469  
N    2.4483512   -0.0001424   -0.3402720  
C    0.0000000    0.0000000    0.0000000  
C   -1.2757369   -0.0000185   -0.6964413  
O   -2.3524597   -0.0000641   -0.1142310  
C   -1.2676498   -0.0000869   -2.2584076  
O   -2.3355766   -0.0004097   -2.8557292  
C    0.0181558    0.0001765   -2.9516293  
H    2.9547351    0.0006082   -3.5989108  
H    4.3498545    0.0008619   -1.3200029  
H    2.7563630    0.0012825    0.6148063  
C   -0.2946453   -0.6712019   -9.5812111  
C   -0.6679357    0.5598997   -9.1463324  
C   -0.5799728    1.4510501  -10.2790057  
C   -0.1215776    0.6323336  -11.4175881  
N    0.0332348   -0.6441722  -10.9282460  
C    0.0858842    1.1071941  -12.6718496  
C   -0.1584043    2.5188979  -12.9167004  
O   -0.0005817    3.0420264  -14.0120225  
C   -0.6440699    3.4047438  -11.7253947  
O   -0.8527296    4.5947358  -11.9194076  
C   -0.8321012    2.7788206  -10.4189815  
H    0.4222188    0.4895905  -13.4930406  
H   -1.1687666    3.3990502   -9.5994107  
H   -0.2312839   -1.5958941   -9.0309207  
H    0.3356690   -1.4348296  -11.4671729  
C    0.8175213    0.6860729    2.3021913  
C    0.0000000    0.0000000    1.4700000  
C   -0.8887526   -0.7456559    2.3478473  
C   -0.4549825   -0.3816753    3.7138435  
N    0.5448156    0.4573574    3.6934124  
C   -1.0945674   -0.9182058    4.8835240  
C   -2.1210866   -1.7789155    4.6970523  
O   -2.8083856   -2.3554314    5.6976972  
C   -2.5824069   -2.1655116    3.3310774  
O   -3.5227682   -2.9541547    3.2362962  
C   -1.9100805   -1.6015804    2.1470656  
H   -0.7567140   -0.6349833    5.8697035  
H   -3.4728268   -2.9124471    5.2533954  
H   -2.2742832   -1.9066565    1.1752040  
H    1.6189533    1.3585343    2.0405121  
