60

C   -3.3003449   -0.0077015   -1.4739000  
C   -2.5232735   -0.0058344   -2.6090755  
C   -1.1623166   -0.0023945   -2.1820107  
C   -1.1711853   -0.0026041   -0.7636145  
N   -2.4852269   -0.0039102   -0.3662368  
C    0.0000000    0.0000000    0.0000000  
C    1.2020361    0.0025610   -0.6806476  
O    2.3759196    0.0048151    0.0157753  
C    1.2314622    0.0031881   -2.0955506  
O    2.5054326    0.0062499   -2.6250168  
C    0.0764512    0.0008935   -2.8495197  
H   -2.8919882   -0.0057242   -3.6205315  
H   -2.8036008   -0.0149124    0.5858650  
H    3.0835570    0.0066681   -0.6418808  
H    2.4359987    0.0064480   -3.5845911  
H    0.1304081    0.0016257   -3.9319086  
C   -5.6973496   -0.0135805   -2.3066404  
C   -4.7630373   -0.0108289   -1.3275420  
C   -5.5210171   -0.0117794   -0.0857830  
C   -6.9365998   -0.0151724   -0.5132159  
N   -7.0462184   -0.0163220   -1.8139740  
C   -8.0173487   -0.0170591    0.4339189  
C   -7.6984291   -0.0160104    1.7483097  
O   -8.6047846   -0.0175237    2.7405587  
C   -6.2793180   -0.0129715    2.2112098  
O   -6.0628168   -0.0120387    3.4229632  
C   -5.1885602   -0.0110351    1.2201657  
H   -8.0763675   -0.0162338    3.5590488  
H   -4.1742275   -0.0089649    1.5961384  
H   -5.5411306   -0.0139020   -3.3736774  
C   -9.4124150   -0.0201449   -0.0294180  
C   -9.8925480   -0.0217530   -1.2996717  
C  -11.3333421   -0.0246202   -1.2051298  
C  -11.6555573   -0.0245211    0.2346506  
N  -10.4475732   -0.0221476    0.8931781  
C  -12.9147486   -0.0264095    0.7407505  
C  -14.0268797   -0.0289182   -0.1950347  
O  -15.1977331   -0.0308041    0.1618934  
C  -13.7089438   -0.0293203   -1.7243227  
O  -14.6370717   -0.0317307   -2.5217153  
C  -12.3111342   -0.0268586   -2.1485567  
H   -9.3045119   -0.0211971   -2.2001311  
H  -13.1293300   -0.0261684    1.8004035  
H  -12.0994959   -0.0269494   -3.2091855  
H  -10.3352490   -0.0199457    1.8903873  
C    0.8400945    0.7047457    2.2710304  
C    0.0000000    0.0000000    1.4700000  
C   -0.8844236   -0.7423113    2.3369512  
C   -0.4878984   -0.4098547    3.7186280  
N    0.5629682    0.4714286    3.6095011  
C   -1.0836927   -0.9095027    4.8308716  
C   -2.1891196   -1.8367527    4.6554461  
O   -2.7906899   -2.3413415    5.5944904  
C   -2.6257283   -2.2031529    3.2011665  
O   -3.5549479   -2.9829990    3.0410059  
C   -1.9068976   -1.5999348    2.0816745  
H   -0.7774656   -0.6525820    5.8354244  
H   -2.2155208   -1.8586617    1.0779135  
H    1.6384792    1.3747609    1.9961646  
H    1.0518368    0.8833920    4.3830260  
