58

C   -3.9578297    0.7066260   -6.2360121  
C   -3.2966998    0.0026947   -7.1907178  
C   -4.2903875   -0.7380217   -7.9315007  
C   -5.5939745   -0.4055171   -7.3257848  
N   -5.3231962    0.4742684   -6.3032653  
C   -6.7852493   -0.9038627   -7.7431837  
C   -6.7833548   -1.8296620   -8.8636428  
O   -7.8044059   -2.3330152   -9.3135206  
C   -5.4142529   -2.1960864   -9.5202240  
O   -5.4001146   -2.9747186  -10.4640423  
C   -4.1967372   -1.5943436   -8.9822526  
H   -7.7302458   -0.6469316   -7.2850602  
H   -3.2528945   -1.8530770   -9.4426236  
H   -3.5624566    1.3754201   -5.4888278  
H   -6.0116165    0.8858903   -5.7001960  
C    0.0950448    0.0004350   -4.4015596  
C    1.1192393    0.0002595   -5.2932436  
C    0.5298381    0.0006948   -6.6113645  
C   -0.9321737    0.0011708   -6.4130916  
N   -1.1298099    0.0005872   -5.0515376  
C   -1.8443594    0.0020607   -7.4178900  
C   -1.3534356    0.0023587   -8.7859286  
O   -2.0950470    0.0030850   -9.7597423  
C    0.1910164    0.0016124   -9.0193234  
O    0.6161255    0.0015485  -10.1667301  
C    1.0746172    0.0009550   -7.8560944  
H    2.1679381   -0.0003126   -5.0548237  
H    2.1426822    0.0006460   -8.0262737  
H   -2.0258137    0.0022753   -4.5996288  
C    3.3321173    0.0004714   -1.3379336  
C    2.6974184    0.0000115   -2.5332313  
C    1.2800437   -0.0002119   -2.2052840  
C    1.2395034    0.0000643   -0.7271298  
N    2.4394063    0.0005459   -0.2131037  
C    0.0000000    0.0000000    0.0000000  
C   -1.1468702    0.0000634   -0.7169544  
O   -2.3742202    0.0000072   -0.1695489  
C   -1.1388770    0.0001606   -2.2096356  
O   -2.2206231    0.0000903   -2.7970412  
C    0.1454523    0.0001814   -2.9324241  
H    3.1367986   -0.0000653   -3.5160949  
H   -2.9844345    0.0001025   -0.9290168  
H    4.3940040    0.0007618   -1.1498638  
C    0.0000000    0.0000000    1.4700000  
C    1.0662921    0.0000102    2.3034270  
C    0.4961870   -0.0000064    3.6418889  
C   -0.9663858    0.0000850    3.4240247  
N   -1.2632773    0.0000084    2.1528658  
C   -1.8985362    0.0000517    4.5177257  
C   -1.3925775   -0.0004564    5.7720543  
O   -2.1456383   -0.0005410    6.8851312  
C    0.0786232   -0.0009323    6.0245000  
O    0.4683759   -0.0012588    7.1921102  
C    1.0143166   -0.0008442    4.8859032  
H    2.1107198   -0.0000632    2.0421868  
H   -2.9622183    0.0003270    4.3293377  
H   -1.5042274   -0.0009692    7.6184419  
H    2.0724152   -0.0013148    5.1109744  
