62

C    3.3041272    0.0001173   -1.5420433  
C    2.5845372   -0.0004782   -0.3695856  
C    1.2040006   -0.0000008   -0.7283589  
C    1.1422373    0.0006036   -2.1454374  
N    2.4348640    0.0026108   -2.6077464  
C   -0.0655182    0.0008797   -2.8497919  
C   -1.2321768    0.0002324   -2.1101400  
O   -2.4392817    0.0001147   -2.7472520  
C   -1.1911209   -0.0000008   -0.6955261  
O   -2.4371524   -0.0002319   -0.1032862  
C    0.0000000    0.0000000    0.0000000  
H    3.0031536   -0.0000662    0.6222582  
H    2.7054629   -0.0071101   -3.5745263  
H   -3.1132988   -0.0000649   -2.0551788  
H   -2.3200280   -0.0004072    0.8516410  
H    4.3686618    0.0004067   -1.7024297  
C    2.3129715   -2.1206347   -5.9853336  
C    1.8203209   -1.6593261   -4.7866021  
C    0.7463511   -0.7716032   -5.0917861  
C    0.6289214   -0.7306576   -6.5047474  
N    1.5963345   -1.5595253   -7.0163212  
C   -0.3301682    0.0460722   -7.1617303  
C   -1.1865067    0.7948776   -6.3780517  
O   -2.1420032    1.5708500   -6.9678873  
C   -1.0848071    0.7675248   -4.9667659  
O   -2.0089556    1.5677379   -4.3272726  
C   -0.1387084    0.0017016   -4.3179687  
H    2.1903014   -1.9285748   -3.8121214  
H    1.7490275   -1.7403242   -7.9920147  
H   -2.6234317    2.0034607   -6.2507130  
H   -1.8718971    1.4918035   -3.3780343  
H    3.1197747   -2.8044122   -6.1865215  
C   -0.3335461   -0.9926747   -9.4767591  
C   -0.5040836   -0.6193272  -10.7712102  
C   -0.7567394    0.8022907  -10.7695420  
C   -0.7191196    1.2296308   -9.3578927  
N   -0.4587464    0.0945561   -8.6252932  
C   -0.9114442    2.5047924   -8.9351880  
C   -1.1731677    3.5243586   -9.9374457  
O   -1.3596111    4.7012838   -9.6574672  
C   -1.2177383    3.0942735  -11.4383937  
O   -1.4375526    3.9438309  -12.2911515  
C   -0.9948256    1.6893979  -11.7707881  
H   -0.4583112   -1.2660376  -11.6292806  
H   -0.8795817    2.7971800   -7.8948021  
H   -1.0271276    1.3998502  -12.8123460  
H   -0.1271511   -1.9706390   -9.0731786  
C    0.0000000    0.0000000    1.4700000  
C    1.0541688    0.0001722    2.3260392  
C    0.5103138    0.0000454    3.6635956  
C   -0.9576371   -0.0002459    3.5155732  
N   -1.2018458    0.0001392    2.1615969  
C   -1.8348311   -0.0008317    4.5510609  
C   -1.2972847   -0.0009736    5.9014604  
O   -2.0050672   -0.0014265    6.9001319  
C    0.2542623   -0.0004184    6.0817573  
O    0.7184670   -0.0002256    7.2139121  
C    1.0974552   -0.0000873    4.8889129  
H    2.0940752    0.0005483    2.0517982  
H   -2.9081052   -0.0011668    4.4207061  
H    2.1707277    0.0000911    5.0223670  
H   -2.1128194   -0.0014912    1.7406791  
