58

C    4.1786360   -0.7024184   -4.3986824  
C    3.1006042    0.0006266   -3.9654951  
C    2.5980041    0.7412289   -5.0985165  
C    3.4778839    0.4096230   -6.2354591  
N    4.4155753   -0.4695860   -5.7449320  
C    3.3346011    0.9081447   -7.4895129  
C    2.2409253    1.8331985   -7.7358540  
O    2.0282306    2.3366416   -8.8311198  
C    1.2968962    2.1986655   -6.5462963  
O    0.3728591    2.9766648   -6.7415715  
C    1.5520095    1.5968166   -5.2399473  
H    0.8936632    1.8548849   -4.4215923  
H    4.8200666   -1.3708665   -3.8476529  
H    5.1565564   -0.8805451   -6.2826195  
C    3.2798077    0.0005859   -1.4499657  
C    2.5571135    0.0005568   -2.5996557  
C    1.1637427    0.0001550   -2.2210361  
C    1.1336961   -0.0000199   -0.7459473  
N    2.4483511   -0.0001428   -0.3402727  
C    0.0000000    0.0000000    0.0000000  
C   -1.2757371   -0.0000185   -0.6964410  
O   -2.3524602   -0.0000636   -0.1142298  
C   -1.2676501   -0.0000870   -2.2584080  
O   -2.3355774   -0.0004094   -2.8557284  
C    0.0181550    0.0001763   -2.9516293  
H    0.0150779    0.0003324   -4.0331631  
H    4.3498542    0.0008615   -1.3200036  
H    2.7563628    0.0012823    0.6148054  
C    4.7353683   -0.6714493   -8.8689101  
C    4.2270876    0.5597116   -8.6043948  
C    4.7305625    1.4507480   -9.6229252  
C    5.5798937    0.6319002  -10.5088780  
N    5.5412592   -0.6445656   -9.9969876  
C    6.2395152    1.1066294  -11.5957250  
C    6.1040813    2.5183203  -11.9140355  
O    6.6584531    3.0413356  -12.8718598  
C    5.2098117    3.4043050  -10.9893087  
O    5.0884953    4.5942877  -11.2471529  
C    4.5487915    2.7785172   -9.8468133  
H    6.8573955    0.4889310  -12.2325782  
H    3.9312080    3.3988415   -9.2115881  
H    4.5891923   -1.5960913   -8.3345329  
H    6.0225578   -1.4352891  -10.3844849  
C    2.5128556    2.1077716    2.9199648  
C    1.9592212    1.6432552    4.0696553  
C    0.8915788    0.7479214    3.6910360  
C    0.8684491    0.7287414    2.2159470  
N    1.8754542    1.5738793    1.8102719  
C    0.0000000    0.0000000    1.4700000  
C   -0.9772830   -0.8200135    2.1664417  
O   -1.8021297   -1.5120829    1.5842315  
C   -0.9711318   -0.8147624    3.7284083  
O   -1.7894187   -1.5009653    4.3257297  
C    0.0140216    0.0115358    4.4216297  
H    2.2638494    1.8988021    5.0689105  
H    0.0117648    0.0094386    5.5031631  
H    3.3327358    2.7953732    2.7900019  
H    2.1123206    1.7707734    0.8551938  
