60

C    3.3003554    0.0005275   -1.4738975  
C    2.5232827    0.0003497   -2.6090740  
C    1.1623211   -0.0001319   -2.1820099  
C    1.1711890    0.0000583   -0.7636141  
N    2.4852306   -0.0014920   -0.3662352  
C    0.0000000    0.0000000    0.0000000  
C   -1.2020378    0.0000520   -0.6806492  
O   -2.3759248    0.0003494    0.0157734  
C   -1.2314647   -0.0005112   -2.0955518  
O   -2.5054372   -0.0008040   -2.6250194  
C   -0.0764503   -0.0007272   -2.8495197  
H    2.8036265    0.0088180    0.5858672  
H   -3.0835629    0.0000346   -0.6418836  
H   -2.4360026   -0.0011529   -3.5845934  
H   -0.1304076   -0.0013421   -3.9319090  
H    4.3715558    0.0004894   -1.3667123  
C    5.8850916   -2.1080195   -4.4895946  
C    5.7585092   -1.6448898   -5.7598557  
C    4.6253957   -0.7500321   -5.7707340  
C    4.0984513   -0.7296202   -4.3927996  
N    4.9059599   -1.5736631   -3.6658808  
C    3.0267455   -0.0008953   -3.9901691  
C    2.3467568    0.8177993   -4.9800632  
O    1.3721096    1.5097462   -4.7162941  
C    2.8874985    0.8112302   -6.4454502  
O    2.3229968    1.4963166   -7.2876231  
C    4.0508325   -0.0149200   -6.7584714  
H    6.3870557   -1.9010556   -6.5940756  
H    6.6111569   -2.7948990   -4.0859675  
H    4.8014757   -1.7695719   -2.6872337  
C    5.6012391   -3.2191168   -9.3710929  
C    5.0908617   -2.5119679   -8.3301662  
C    4.9893545   -1.1384728   -8.7638042  
C    5.4859656   -1.1031530  -10.1526610  
N    5.8415339   -2.3960172  -10.4608208  
C    5.5519043    0.0160046  -10.9174105  
C    5.1040684    1.2694492  -10.3335836  
O    5.1238378    2.3318869  -10.9411493  
C    4.5745169    1.2554582   -8.8641671  
O    4.1950453    2.3047224   -8.3618658  
C    4.5514101   -0.0133167   -8.1406143  
H    4.8169414   -2.9073522   -7.3682654  
H    5.9194195    0.0201853  -11.9341831  
H    5.8222379   -4.2722669   -9.4337361  
H    6.2158417   -2.6958517  -11.3423201  
C    0.8400945    0.7047457    2.2710304  
C    0.0000000    0.0000000    1.4700000  
C   -0.8844236   -0.7423113    2.3369512  
C   -0.4878984   -0.4098547    3.7186280  
N    0.5629682    0.4714286    3.6095011  
C   -1.0836927   -0.9095027    4.8308716  
C   -2.1891196   -1.8367527    4.6554461  
O   -2.7906899   -2.3413415    5.5944904  
C   -2.6257283   -2.2031529    3.2011665  
O   -3.5549479   -2.9829990    3.0410059  
C   -1.9068976   -1.5999348    2.0816745  
H   -0.7774656   -0.6525820    5.8354244  
H   -2.2155208   -1.8586617    1.0779135  
H    1.6384792    1.3747609    1.9961646  
H    1.0518368    0.8833920    4.3830260  
