58

C    6.6781265   -0.0007178   -5.5992983  
C    7.7322957   -0.0008755   -6.4553374  
C    7.1884410   -0.0016888   -7.7928937  
C    5.7204898   -0.0019649   -7.6448707  
N    5.4762814   -0.0017477   -6.2908950  
C    4.8432958   -0.0023074   -8.6803592  
C    5.3808419   -0.0026370  -10.0307580  
O    4.6730597   -0.0030186  -11.0294295  
C    6.9323895   -0.0026049  -10.2110548  
O    7.3965939   -0.0031871  -11.3432099  
C    7.7755822   -0.0019403   -9.0182113  
H    8.7722016   -0.0006509   -6.1810967  
H    3.7700216   -0.0023757   -8.5500046  
H    8.8488543   -0.0017169   -9.1516655  
H    4.5653070   -0.0002971   -5.8699780  
C    6.6781264    0.0000526   -4.1292983  
C    7.7444181    0.0009683   -3.2958718  
C    7.1743131    0.0014026   -1.9574099  
C    5.7117407    0.0007371   -2.1752742  
N    5.4148494   -0.0001362   -3.4464326  
C    4.7795901    0.0008674   -1.0815733  
C    5.2855489    0.0012391    0.1727555  
O    4.5324883    0.0014069    1.2858327  
C    6.7567496    0.0015421    0.4252013  
O    7.1465024    0.0019988    1.5928113  
C    7.6924429    0.0014446   -0.7133951  
H    8.7888465    0.0012169   -3.5571121  
H    5.1738991    0.0016450    2.0191435  
H    8.7505410    0.0015569   -0.4883243  
C    3.3321168    0.0004716   -1.3379341  
C    2.6974177    0.0000118   -2.5332316  
C    1.2800432   -0.0002116   -2.2052842  
C    1.2395033    0.0000644   -0.7271298  
N    2.4394059    0.0005460   -0.2131041  
C    0.0000000    0.0000000    0.0000000  
C   -1.1468704    0.0000635   -0.7169542  
O   -2.3742206    0.0000074   -0.1695488  
C   -1.1388774    0.0001608   -2.2096352  
O   -2.2206238    0.0000906   -2.7970409  
C    0.1454514    0.0001818   -2.9324241  
H    3.1367978   -0.0000649   -3.5160956  
H   -2.9844350    0.0001027   -0.9290164  
H    0.1083567    0.0003684   -4.0135594  
C    2.3971438    2.0127888    3.1728260  
C    1.9431056    1.6308205    1.9564670  
C    0.8496017    0.7127664    2.2356185  
C    0.7794028    0.6545384    3.7115134  
N    1.6840587    1.4146091    4.2663826  
C   -0.1885723   -0.1578550    4.3957118  
C   -1.0476298   -0.8789867    3.6398520  
O   -2.0015663   -1.6796266    4.1448486  
C   -1.0022026   -0.8410666    2.1483229  
O   -1.8147390   -1.5232959    1.5241687  
C    0.0000000    0.0000000    1.4700000  
H    2.3054237    1.9346118    0.9892483  
H   -0.2170646   -0.1815267    5.4753125  
H   -2.4487139   -2.0549881    3.3649027  
H    3.2048689    2.6911772    3.3971983  
