58

C    0.8532113   -0.7025399   -5.2251463  
C    0.0139746    0.0003883   -4.4216235  
C   -0.8744123    0.7410328   -5.2859441  
C   -0.4811478    0.4095794   -6.6687928  
N    0.5718068   -0.4695908   -6.5627883  
C   -1.0811137    0.9081807   -7.7792625  
C   -2.1879113    1.8331656   -7.6005540  
O   -2.7931710    2.3366715   -8.5378069  
C   -2.6211216    2.1984715   -6.1449830  
O   -3.5514579    2.9764118   -5.9820625  
C   -1.8978899    1.5965481   -5.0276307  
H   -0.7772265    0.6520253   -8.7847201  
H   -2.2041792    1.8545051   -4.0229573  
H    1.6537294   -1.3709770   -4.9526533  
H    1.0593055   -0.8804520   -7.3377627  
C    3.2798087    0.0005858   -1.4499643  
C    2.5571149    0.0005569   -2.5996548  
C    1.1637440    0.0001551   -2.2210358  
C    1.1336966   -0.0000198   -0.7459468  
N    2.4483512   -0.0001426   -0.3402714  
C    0.0000000    0.0000000    0.0000000  
C   -1.2757369   -0.0000185   -0.6964416  
O   -2.3524599   -0.0000639   -0.1142315  
C   -1.2676492   -0.0000870   -2.2584080  
O   -2.3355760   -0.0004099   -2.8557298  
C    0.0181565    0.0001762   -2.9516296  
H    2.9547360    0.0006079   -3.5989102  
H    2.7563627    0.0012824    0.6148067  
C    5.6938832    0.0016106   -2.2318618  
C    4.7390849    0.0009618   -1.2727274  
C    5.4706531    0.0008618   -0.0152269  
C    6.8949566    0.0014088   -0.4126483  
N    7.0320421    0.0019300   -1.7107996  
C    7.9554499    0.0015324    0.5571149  
C    7.6088221    0.0015170    1.8644724  
O    8.4940069    0.0016155    2.8756539  
C    6.1802426    0.0013422    2.2972781  
O    5.9381794    0.0012136    3.5041854  
C    5.1106700    0.0011738    1.2834044  
H    8.9875895    0.0017291    0.2383712  
H    7.9484088    0.0016000    3.6827939  
H    4.0886166    0.0011653    1.6378566  
H    5.5602509    0.0018875   -3.3019625  
C    0.8175213    0.6860729    2.3021913  
C    0.0000000    0.0000000    1.4700000  
C   -0.8887526   -0.7456559    2.3478473  
C   -0.4549825   -0.3816753    3.7138435  
N    0.5448156    0.4573574    3.6934124  
C   -1.0945674   -0.9182058    4.8835240  
C   -2.1210866   -1.7789155    4.6970523  
O   -2.8083856   -2.3554314    5.6976972  
C   -2.5824069   -2.1655116    3.3310774  
O   -3.5227682   -2.9541547    3.2362962  
C   -1.9100805   -1.6015804    2.1470656  
H   -0.7567140   -0.6349833    5.8697035  
H   -3.4728268   -2.9124471    5.2533954  
H   -2.2742832   -1.9066565    1.1752040  
H    1.6189533    1.3585343    2.0405121  
