60

C    3.4109751   -0.7015457   -3.0656415  
C    2.4521480    0.0014830   -3.7217483  
C    3.1155487    0.7427308   -4.7683073  
C    4.5497436    0.4115216   -4.6674297  
N    4.6623186   -0.4680975   -3.6155328  
C    5.5133062    0.9106828   -5.4823468  
C    5.1110191    1.8360554   -6.5284751  
O    5.9039668    2.3400731   -7.3130140  
C    3.5974445    2.2011117   -6.6535049  
O    3.2468619    2.9793745   -7.5302370  
C    2.6524704    1.5985776   -5.7165806  
H    6.5597851    0.6546980   -5.3914409  
H    1.6062664    1.8563652   -5.8099977  
H    3.3087462   -1.3703798   -2.2265350  
H    5.5209436   -0.8789278   -3.2976823  
C    0.0000000    0.0000000    0.0000000  
C    1.0662921   -0.0000106   -0.8334269  
C    0.4961870    0.0000059   -2.1718889  
C   -0.9663856   -0.0000854   -1.9540246  
N   -1.2632773   -0.0000087   -0.6828657  
C   -1.8985362   -0.0000522   -3.0477258  
C   -1.3925773    0.0004558   -4.3020541  
O   -2.1456384    0.0005402   -5.4151311  
C    0.0786236    0.0009315   -4.5544999  
O    0.4683762    0.0012578   -5.7221098  
C    1.0143167    0.0008435   -3.4159031  
H    2.1107198    0.0000631   -0.5721865  
H   -1.5042271    0.0009682   -6.1484419  
C   -4.3359694    2.1064016   -0.0635825  
C   -5.5644949    1.6417186   -0.4083571  
C   -5.3776802    0.7467250   -1.5259091  
C   -3.9292255    0.7279262   -1.8059383  
N   -3.3543287    1.5729375   -0.8848850  
C   -3.3460094   -0.0004268   -2.7913647  
C   -4.2020390   -0.8203947   -3.6324363  
O   -3.7724542   -1.5121275   -4.5463634  
C   -5.7389982   -0.8155431   -3.3539783  
O   -6.4697268   -1.5017115   -4.0557402  
C   -6.2499649    0.0103535   -2.2628044  
H   -6.4953654    1.8969412    0.0659371  
H   -7.3153177    0.0079812   -2.0764129  
H   -4.0651599    2.7938491    0.7212538  
H   -2.3726196    1.7700210   -0.8181565  
C    3.3041272   -0.0001177    3.0120429  
C    2.5845372    0.0004780    1.8395852  
C    1.2040006    0.0000008    2.1983588  
C    1.1422373   -0.0006037    3.6154372  
N    2.4348639   -0.0026109    4.0777464  
C   -0.0655181   -0.0008797    4.3197917  
C   -1.2321768   -0.0002324    3.5801400  
O   -2.4392816   -0.0001146    4.2172520  
C   -1.1911209    0.0000007    2.1655264  
O   -2.4371527    0.0002320    1.5732860  
C    0.0000000    0.0000000    1.4700000  
H    3.0031534    0.0000661    0.8477417  
H    2.7054629    0.0071099    5.0445261  
H   -0.1193549   -0.0014844    5.3997470  
H   -3.1132988    0.0000648    3.5251786  
H   -2.3200282    0.0004071    0.6183591  
H    4.3686625   -0.0004071    3.1724291  
