60

C    1.1188646    0.0008226   -0.8003804  
C    0.0000000    0.0000000    0.0000000  
C   -1.1323862    0.0008896   -0.8673522  
C   -0.6382659    0.0019677   -2.1969274  
N    0.7324021    0.0038484   -2.1202236  
C   -1.4770910    0.0027315   -3.3154805  
C   -2.8395469    0.0020939   -3.0876856  
O   -3.7039197    0.0024417   -4.1440350  
C   -3.3517869    0.0013922   -1.7684325  
O   -4.7300491    0.0012352   -1.7073121  
C   -2.5248542    0.0009116   -0.6644816  
H    1.3576318   -0.0056163   -2.9057038  
H   -4.5940029    0.0021815   -3.7685127  
H   -4.9934600    0.0007250   -0.7819914  
H   -2.9462576    0.0005593    0.3339654  
H    2.1619893    0.0009359   -0.5342063  
C    0.1166616   -0.7214345   -5.1522985  
C    0.3273818   -0.5035452   -6.4760040  
C   -0.6880510    0.4234399   -6.9169464  
C   -1.5135277    0.7299635   -5.7331297  
N   -0.9736292    0.0040463   -4.6965760  
C   -2.5793559    1.5700278   -5.7355905  
C   -2.9375154    2.2151825   -6.9878017  
O   -3.8806689    2.9883095   -7.0928594  
C   -2.0773313    1.9049433   -8.2541505  
O   -2.3694869    2.4419715   -9.3141069  
C   -0.9520259    0.9822472   -8.1269833  
H   -3.1715411    1.7813044   -4.8560518  
H   -0.3613266    0.7729020   -9.0084441  
H    0.6660045   -1.3511262   -4.4714163  
C    1.3906262   -1.1032347   -7.2950185  
C    2.3641824   -1.9761088   -6.9284757  
C    3.1488221   -2.2515823   -8.1088527  
C    2.5482982   -1.4619621   -9.2009430  
N    1.4866198   -0.7886214   -8.6420683  
C    3.0026356   -1.4483117  -10.4796515  
C    4.1602229   -2.2660568  -10.8018644  
O    4.6448200   -2.3216219  -11.9245296  
C    4.8120425   -3.1105606   -9.6609219  
O    5.7869094   -3.8031057   -9.9203008  
C    4.2326090   -3.0429358   -8.3216926  
H    2.5152931   -2.3809559   -5.9436516  
H    2.5476370   -0.8618693  -11.2657624  
H    4.6899443   -3.6305225   -7.5372750  
H    0.8768170   -0.1632517   -9.1361346  
C    0.8681109    0.7263879    2.2709268  
C    0.6127770    0.5096195    3.5869401  
C   -0.4920590   -0.4175482    3.6542670  
C   -0.8620974   -0.7254003    2.2596025  
N    0.0000000    0.0000000    1.4700000  
C   -1.8641242   -1.5660088    1.8976294  
C   -2.6293522   -2.2103885    2.9520183  
O   -3.5512764   -2.9839180    2.7283916  
C   -2.2549728   -1.8987399    4.4361073  
O   -2.8923672   -2.4351063    5.3323774  
C   -1.1543735   -0.9755647    4.7012123  
H    1.1382914    0.9492124    4.4159191  
H   -2.1192137   -1.7782617    0.8686553  
H   -0.9013378   -0.7652422    5.7314848  
H    1.6172880    1.3558399    1.8188057  
