58

C   -4.4297974    2.1087673   -0.2339398  
C   -5.6380117    1.6447708   -0.6450366  
C   -5.3911869    0.7496347   -1.7507691  
C   -3.9296541    0.7300041   -1.9515856  
N   -3.4052345    1.5747190   -1.0006226  
C   -3.2941076    0.0012878   -2.9038237  
C   -4.1035805   -0.8182215   -3.7902176  
O   -3.6253066   -1.5102279   -4.6794205  
C   -5.6534087   -0.8124874   -3.5957845  
O   -6.3452686   -1.4982635   -4.3362586  
C   -6.2225101    0.0137348   -2.5340257  
H   -6.5931606    1.9005375   -0.2220859  
H   -7.2964260    0.0119737   -2.4058667  
H   -2.4284974    1.7712471   -0.8805871  
C   -4.1187218    3.0460991    0.8548857  
C   -4.9646053    3.6735298    1.7121409  
C   -4.1517033    4.4843487    2.5876966  
C   -2.7528634    4.2763940    2.1672285  
N   -2.8014308    3.3938181    1.1129087  
C   -1.6791558    4.8691137    2.7482096  
C   -1.9171176    5.7719619    3.8621106  
O   -1.0162438    6.3542363    4.4517567  
C   -3.3905526    6.0067734    4.3243422  
O   -3.6032177    6.7645183    5.2612830  
C   -4.4644526    5.3112761    3.6194495  
H   -6.0357644    3.5789855    1.7293120  
H   -0.6611040    4.7030536    2.4243209  
H   -5.4818594    5.4794335    3.9455346  
H   -2.0030922    3.0560567    0.6073197  
C    0.0000000    0.0000000    0.0000000  
C    1.0541688   -0.0001723   -0.8560392  
C    0.5103136   -0.0000455   -2.1935956  
C   -0.9576373    0.0002461   -2.0455730  
N   -1.2018460   -0.0001389   -0.6915968  
C   -1.8348314    0.0008319   -3.0810607  
C   -1.2972851    0.0009739   -4.4314603  
O   -2.0050676    0.0014268   -5.4301316  
C    0.2542619    0.0004184   -4.6117572  
O    0.7184666    0.0002257   -5.7439122  
C    1.0974551    0.0000873   -3.4189129  
H    2.0940752   -0.0005484   -0.5817983  
H    2.1707276   -0.0000912   -3.5523673  
H   -2.1128194    0.0014915   -0.2706789  
C    3.2573670    0.0002920    2.9809380  
C    2.5379467    0.0001709    1.8291961  
C    1.1435042   -0.0000331    2.2038498  
C    1.1092607    0.0000083    3.6788474  
N    2.4227561   -0.0001909    4.0882609  
C   -0.0265533    0.0002524    4.4215661  
C   -1.3003036    0.0002640    3.7214979  
O   -2.3786784    0.0004133    4.3006425  
C   -1.2877726   -0.0000311    2.1595606  
O   -2.3539958   -0.0003306    1.5592035  
C    0.0000000    0.0000000    1.4700000  
H    2.9384090    0.0000368    0.8310761  
H   -0.0296291    0.0004086    5.5027230  
H    4.3270393    0.0004765    3.1139444  
H    2.7280493    0.0013407    5.0442112  
