58

C    6.9363823    0.5639632   -5.3576554  
C    7.5399905   -0.2692162   -4.4713460  
C    8.9505347   -0.2616033   -4.7798013  
C    9.1204396    0.6508730   -5.9266707  
N    7.8620709    1.1178388   -6.2288966  
C   10.3097991    0.9297036   -6.5177557  
C   11.5021028    0.2881265   -5.9892414  
O   12.6196760    0.4743667   -6.4525390  
C   11.3455653   -0.6821616   -4.7752223  
O   12.3422469   -1.2283758   -4.3218588  
C   10.0111994   -0.9031348   -4.2234169  
H    7.0527029   -0.8257776   -3.6907030  
H   10.4126219    1.6021947   -7.3580486  
H    9.9113972   -1.5762407   -3.3827675  
H    7.6492334    1.7633056   -6.9672198  
C    3.4106845   -0.7032175   -3.0670122  
C    2.4521483    0.0014840   -3.7217481  
C    3.1158562    0.7444931   -4.7668627  
C    4.5499140    0.4124939   -4.6666318  
N    4.6621248   -0.4692177   -3.6164494  
C    5.5136831    0.9128419   -5.4805764  
C    5.1117789    1.8404160   -6.5249012  
O    5.9049350    2.3456317   -7.3084581  
C    3.5983556    2.2063417   -6.6492179  
O    3.2480953    2.9864548   -7.5244332  
C    2.6531317    1.6023762   -5.7134676  
H    1.6070344    1.8607780   -5.8063812  
H    3.3081788   -1.3736416   -2.2292093  
H    5.5205794   -0.8810217   -3.2994003  
C    0.0000000    0.0000000    0.0000000  
C    1.0662923   -0.0000101   -0.8334270  
C    0.4961873    0.0000065   -2.1718887  
C   -0.9663854   -0.0000848   -1.9540250  
N   -1.2632773   -0.0000083   -0.6828660  
C   -1.8985359   -0.0000514   -3.0477261  
C   -1.3925770    0.0004566   -4.3020547  
O   -2.1456378    0.0005414   -5.4151314  
C    0.0786240    0.0009326   -4.5545000  
O    0.4683767    0.0012591   -5.7221100  
C    1.0143171    0.0008444   -3.4159031  
H    2.1107200    0.0000633   -0.5721865  
H   -2.9622181   -0.0003268   -2.8593381  
H   -1.5042265    0.0009697   -6.1484419  
C    1.0672568    0.0000697    2.3021913  
C    0.0000000    0.0000000    1.4700000  
C   -1.1601224    0.0000736    2.3478473  
C   -0.5938729    0.0000769    3.7138435  
N    0.7113367    0.0001554    3.6934124  
C   -1.4286986    0.0001879    4.8835240  
C   -2.7683114    0.0006799    4.6970523  
O   -3.6653903    0.0008304    5.6976972  
C   -3.3702025    0.0010610    3.3310774  
O   -4.5974910    0.0013779    3.2362962  
C   -2.4926826    0.0008943    2.1470656  
H   -0.9878360   -0.0000190    5.8697035  
H   -4.5324246    0.0012261    5.2533954  
H   -2.9677772    0.0012974    1.1752040  
H    2.1134392    0.0000545    2.0405121  
