60

C    0.2788584    1.0892571   -0.7919011  
C    0.1691227    0.7283993   -2.1148548  
C   -0.1968338   -0.6499936   -2.1414703  
C   -0.2969760   -1.0801360   -0.7935553  
N    0.0000000    0.0000000    0.0000000  
C   -0.6407726   -2.3886364   -0.4408246  
C   -0.8882761   -3.2790540   -1.4675065  
O   -1.2282433   -4.5691707   -1.1793471  
C   -0.7930956   -2.8689139   -2.8186328  
O   -1.0688958   -3.8720123   -3.7247626  
C   -0.4537180   -1.5782762   -3.1673486  
H    0.3337831    1.3783742   -2.9571216  
H   -0.7186418   -2.7227781    0.5845959  
H   -1.3551098   -5.0140418   -2.0274387  
H   -0.9823301   -3.5119908   -4.6127348  
H    0.5353768    2.0370749   -0.3505414  
C    2.2791674    0.9713418   -5.5953574  
C    1.7237879    0.3268239   -4.5428698  
C    0.5811685   -0.3823744   -5.0978094  
C    0.5962616   -0.0447872   -6.5373893  
N    1.5893976    0.7483754   -6.8349858  
C   -0.3886173   -0.5577328   -7.4495225  
C   -1.3448691   -1.3712698   -6.9464577  
O   -2.3256814   -1.9212720   -7.6823560  
C   -1.3866957   -1.7308209   -5.4983090  
O   -2.2858442   -2.4763995   -5.1098955  
C   -0.3652331   -1.1918188   -4.5828773  
H    2.0493462    0.3319462   -3.5166820  
H   -0.3536009   -0.2943646   -8.4965758  
H   -2.8466913   -2.4463370   -7.0483144  
C    5.1837401    2.3976837   -2.5304841  
C    4.1366462    1.7645369   -3.1086704  
C    4.2048463    2.1335869   -4.5142487  
C    5.3860330    3.0179617   -4.6104951  
N    5.9639757    3.1764051   -3.4508108  
C    5.7992355    3.6026318   -5.8564933  
C    5.0660008    3.3164969   -6.9564149  
O    5.3366041    3.7927199   -8.1836172  
C    3.8688929    2.4271698   -6.8916718  
O    3.2485333    2.2102513   -7.9324987  
C    3.4653149    1.8396235   -5.6017732  
H    3.4080275    1.1258607   -2.6393275  
H    6.6664053    4.2454629   -5.8976739  
H    4.6430662    3.4154867   -8.7544527  
H    5.4809259    2.3792233   -1.4939930  
C    2.4951002    2.0940188    2.9809380  
C    1.9440701    1.6314916    1.8291961  
C    0.8759964    0.7350050    2.2038498  
C    0.8497377    0.7130254    3.6788474  
N    1.8560616    1.5571714    4.0882609  
C   -0.0205033   -0.0168748    4.4215661  
C   -0.9962600   -0.8356168    3.7214979  
O   -1.8224391   -1.5286685    4.3006425  
C   -0.9864710   -0.8277881    2.1595606  
O   -1.8030528   -1.5133726    1.5592035  
C    0.0000000    0.0000000    1.4700000  
H    2.2509283    1.8888011    0.8310761  
H   -0.0229599   -0.0187323    5.5027230  
H    3.3143982    2.7817323    3.1139444  
H    2.0889452    1.7545833    5.0442112  
