60

C    1.1188644    0.0008222   -0.8003801  
C    0.0000000    0.0000000    0.0000000  
C   -1.1323860    0.0008896   -0.8673528  
C   -0.6382657    0.0019677   -2.1969276  
N    0.7324021    0.0038479   -2.1202232  
C   -1.4770905    0.0027313   -3.3154810  
C   -2.8395469    0.0020939   -3.0876861  
O   -3.7039192    0.0024417   -4.1440353  
C   -3.3517864    0.0013925   -1.7684334  
O   -4.7300488    0.0012359   -1.7073129  
C   -2.5248543    0.0009118   -0.6644815  
H    1.3576321   -0.0056169   -2.9057036  
H   -4.5940026    0.0021818   -3.7685138  
H   -4.9934596    0.0007255   -0.7819925  
H   -2.9462582    0.0005600    0.3339656  
H    2.1619894    0.0009355   -0.5342064  
C    1.8836783   -2.1362887   -5.0810755  
C    1.8358595   -1.7275863   -6.3703601  
C    0.7030376   -0.8169594   -6.4333924  
C    0.1677643   -0.7920101   -5.0551891  
N    0.8558157   -1.5634008   -4.2579870  
C   -0.9736285    0.0040458   -4.6965762  
C   -1.5536714    0.7419460   -5.6704279  
O   -2.6247563    1.5303568   -5.4774864  
C   -1.0366283    0.7382173   -7.0707186  
O   -1.6142386    1.4340375   -7.9058357  
C    0.1355216   -0.0866900   -7.4135263  
H   -2.8038810    1.9233557   -6.3507665  
H    0.4792091   -0.0617357   -8.4389466  
H    2.5838933   -2.8188171   -4.6262934  
C    3.2410557   -3.3353046   -7.7414142  
C    2.7273128   -2.1121042   -7.4741525  
C    3.2496812   -1.2487479   -8.5221248  
C    4.0829058   -2.1395468   -9.3580664  
N    4.0816209   -3.3639071   -8.9053750  
C    4.7850047   -1.6590100  -10.5161803  
C    4.6600696   -0.3482356  -10.8253668  
O    5.2590960    0.2351599  -11.8774395  
C    3.8262470    0.5760567  -10.0016038  
O    3.7580157    1.7570588  -10.3418974  
C    3.1158665    0.0590563   -8.8183892  
H    5.3869910   -2.3322819  -11.1088245  
H    4.9819247    1.1681624  -11.8346035  
H    2.5221147    0.7607929   -8.2480795  
H    3.0913288   -4.2525008   -7.1943250  
C    2.5128556    2.1077716    2.9199648  
C    1.9592212    1.6432552    4.0696553  
C    0.8915788    0.7479214    3.6910360  
C    0.8684491    0.7287414    2.2159470  
N    1.8754542    1.5738793    1.8102719  
C    0.0000000    0.0000000    1.4700000  
C   -0.9772830   -0.8200135    2.1664417  
O   -1.8021297   -1.5120829    1.5842315  
C   -0.9711318   -0.8147624    3.7284083  
O   -1.7894187   -1.5009653    4.3257297  
C    0.0140216    0.0115358    4.4216297  
H    2.2638494    1.8988021    5.0689105  
H    0.0117648    0.0094386    5.5031631  
H    3.3327358    2.7953732    2.7900019  
H    2.1123206    1.7707734    0.8551938  
