58

C    3.4944125   -0.7020596   -5.9604621  
C    2.9742268    0.0012781   -6.9991141  
C    4.0621243    0.7422967   -7.5925836  
C    5.2673971    0.4106163   -6.8089417  
N    4.8555073   -0.4690290   -5.8345378  
C    6.5054046    0.9094519   -7.0543076  
C    6.6611405    1.8349462   -8.1641464  
O    7.7352058    2.3386949   -8.4656797  
C    5.3981669    2.2004997   -9.0073989  
O    5.5169345    2.9788688   -9.9440399  
C    4.1172217    1.5982862   -8.6463314  
H    7.3764546    0.6531235   -6.4673860  
H    3.2476301    1.8564173   -9.2353156  
H    2.9979119   -1.3708513   -5.2762876  
H    5.4521729   -0.8801387   -5.1402570  
C   -0.8287671    0.0000935   -4.7555305  
C    0.4829789    0.0003533   -5.1068098  
C    0.5323572    0.0005984   -6.5498610  
C   -0.8681890    0.0004884   -7.0138227  
N   -1.6437154   -0.0002183   -5.8774035  
C   -1.2464054    0.0010497   -8.3171481  
C   -0.2045426    0.0015872   -9.3305866  
O   -0.4431238    0.0020517  -10.5311605  
C    1.2854927    0.0014608   -8.8619716  
O    2.1713305    0.0016029   -9.7060991  
C    1.5684486    0.0011152   -7.4288673  
H    1.3204180    0.0001888   -4.4320437  
H   -2.2794297    0.0010872   -8.6361648  
H   -2.6471542    0.0010998   -5.8649191  
C    1.0672566   -0.0000698   -0.8321912  
C    0.0000000    0.0000000    0.0000000  
C   -1.1601226   -0.0000736   -0.8778472  
C   -0.5938732   -0.0000770   -2.2438435  
N    0.7113365   -0.0001555   -2.2234123  
C   -1.4286989   -0.0001880   -3.4135239  
C   -2.7683117   -0.0006800   -3.2270522  
O   -3.6653907   -0.0008306   -4.2276967  
C   -3.3702026   -0.0010611   -1.8610771  
O   -4.5974909   -0.0013781   -1.7662957  
C   -2.4926826   -0.0008944   -0.6770655  
H   -4.5324249   -0.0012263   -3.7833950  
H   -2.9677773   -0.0012975    0.2947963  
H    2.1134390   -0.0000546   -0.5705121  
C    0.8681109    0.7263879    2.2709268  
C    0.6127770    0.5096195    3.5869401  
C   -0.4920590   -0.4175482    3.6542670  
C   -0.8620974   -0.7254003    2.2596025  
N    0.0000000    0.0000000    1.4700000  
C   -1.8641242   -1.5660088    1.8976294  
C   -2.6293522   -2.2103885    2.9520183  
O   -3.5512764   -2.9839180    2.7283916  
C   -2.2549728   -1.8987399    4.4361073  
O   -2.8923672   -2.4351063    5.3323774  
C   -1.1543735   -0.9755647    4.7012123  
H    1.1382914    0.9492124    4.4159191  
H   -2.1192137   -1.7782617    0.8686553  
H   -0.9013378   -0.7652422    5.7314848  
H    1.6172880    1.3558399    1.8188057  
