60

C    0.9360397   -0.7247808   -5.2319384  
C    0.6354724   -0.5080892   -6.5383762  
C   -0.4721188    0.4177752   -6.5675797  
C   -0.7944792    0.7249464   -5.1609813  
N    0.0950450    0.0004357   -4.4015596  
C   -1.7844976    1.5643000   -4.7646820  
C   -2.5861939    2.2079509   -5.7920731  
O   -3.5008219    2.9803446   -5.5367992  
C   -2.2625565    1.8970038   -7.2881930  
O   -2.9309436    2.4327661   -8.1619652  
C   -1.1706040    0.9751844   -7.5910794  
H    1.1327709   -0.9469135   -7.3849815  
H   -2.0044040    1.7760715   -3.7275202  
H   -0.9527972    0.7653406   -8.6294671  
H    1.7010237   -1.3534193   -4.8059069  
C    3.3321174    0.0004722   -1.3379336  
C    2.6974183    0.0000122   -2.5332313  
C    1.2800441   -0.0002113   -2.2052840  
C    1.2395036    0.0000646   -0.7271298  
N    2.4394063    0.0005463   -0.2131037  
C    0.0000000    0.0000000    0.0000000  
C   -1.1468699    0.0000637   -0.7169543  
O   -2.3742201    0.0000076   -0.1695489  
C   -1.1388769    0.0001611   -2.2096357  
O   -2.2206234    0.0000908   -2.7970412  
C    0.1454523    0.0001820   -2.9324241  
H    3.1367987   -0.0000643   -3.5160945  
H   -2.9844345    0.0001025   -0.9290168  
C    5.7851536    0.0009364   -1.9873448  
C    4.7795905    0.0008679   -1.0815729  
C    5.4416660    0.0014227    0.2138638  
C    6.8854806    0.0016742   -0.1054853  
N    7.0929844    0.0014718   -1.3942566  
C    7.8916467    0.0022763    0.9205338  
C    7.4744107    0.0030008    2.2070982  
O    8.3032750    0.0036101    3.2649373  
C    6.0244009    0.0031412    2.5615462  
O    5.7170393    0.0036916    3.7534978  
C    5.0115688    0.0024706    1.4909880  
H    8.9395974    0.0022419    0.6584118  
H    7.7145754    0.0040691    4.0412008  
H    3.9717458    0.0027123    1.7893140  
H    5.7099336    0.0006300   -3.0631305  
C    2.5285572    2.1210227    2.9438989  
C    1.9331703    1.6216660    4.0790748  
C    0.8903039    0.7472258    3.6520102  
C    0.8972198    0.7527806    2.2336141  
N    1.9028376    1.5986179    1.8362361  
C    0.0000000    0.0000000    1.4700000  
C   -0.9207814   -0.7726952    2.1506477  
O   -1.8198395   -1.5274828    1.4542253  
C   -0.9436862   -0.7911793    3.5655508  
O   -1.9197945   -1.6098497    4.0950179  
C   -0.0590329   -0.0485852    4.3195194  
H    2.2150357    1.8593692    5.0905303  
H    2.1533708    1.7953814    0.8841339  
H   -2.3621246   -1.9821033    2.1118817  
H   -1.8668290   -1.5649508    5.0545920  
H   -0.1007624   -0.0827977    5.4019087  
H    3.3491200    2.8096064    2.8367138  
