60

C    2.5562220   -0.0001552   -3.6003002  
C    3.5357961    0.0004086   -2.6598166  
C    4.7960234   -0.0001377   -3.3645601  
C    4.4679970   -0.0010433   -4.8030276  
N    3.0942345   -0.0014084   -4.8782987  
C    5.3873321   -0.0013582   -5.8012895  
C    6.7937423   -0.0009918   -5.4344811  
O    7.6974453   -0.0012924   -6.2600835  
C    7.1641097   -0.0002857   -3.9170388  
O    8.3448918   -0.0002790   -3.5960811  
C    6.0844253    0.0002815   -2.9331011  
H    3.3919682    0.0009429   -1.5940183  
H    5.1255390   -0.0018946   -6.8502769  
H    6.3492939    0.0009740   -1.8844985  
H    2.5641260   -0.0004665   -5.7303735  
C    0.0000000    0.0000000    0.0000000  
C    1.0541690   -0.0001722   -0.8560392  
C    0.5103143   -0.0000454   -2.1935956  
C   -0.9576365    0.0002459   -2.0455735  
N   -1.2018458   -0.0001391   -0.6915971  
C   -1.8348304    0.0008316   -3.0810614  
C   -1.2972839    0.0009736   -4.4314607  
O   -2.0050661    0.0014265   -5.4301325  
C    0.2542633    0.0004184   -4.6117571  
O    0.7184680    0.0002257   -5.7439119  
C    1.0974559    0.0000874   -3.4189129  
H    2.0940753   -0.0005483   -0.5817981  
H   -2.1128193    0.0014911   -0.2706794  
C   -4.4297978    2.1087665   -0.2339411  
C   -5.6380118    1.6447698   -0.6450381  
C   -5.3911866    0.7496337   -1.7507705  
C   -3.9296536    0.7300034   -1.9515868  
N   -3.4052342    1.5747183   -1.0006237  
C   -3.2941067    0.0012872   -2.9038248  
C   -4.1035792   -0.8182220   -3.7902184  
O   -3.6253047   -1.5102283   -4.6794218  
C   -5.6534077   -0.8124887   -3.5957858  
O   -6.3452672   -1.4982649   -4.3362601  
C   -6.2225095    0.0137336   -2.5340271  
H   -6.5931609    1.9005363   -0.2220875  
H   -7.2964259    0.0119722   -2.4058685  
H   -4.2016948    2.7960857    0.5644643  
H   -2.4284973    1.7712466   -0.8805878  
C    1.1243417   -0.0099156    2.2619005  
C    0.7474090   -0.0234034    3.5848544  
C   -0.6787367   -0.0234952    3.6114698  
C   -1.1201739   -0.0099357    2.2635546  
N    0.0000000    0.0000000    1.4700000  
C   -2.4730812   -0.0065396    1.9108239  
C   -3.3971947   -0.0173298    2.9375057  
O   -4.7313508   -0.0149487    2.6493466  
C   -2.9763630   -0.0305536    4.2886322  
O   -4.0166453   -0.0397858    5.1947621  
C   -1.6418541   -0.0336380    4.6373480  
H    1.4178735   -0.0310004    4.4271209  
H   -2.8160170    0.0039190    0.8854031  
H   -5.1938803   -0.0234410    3.4974381  
H   -3.6464643   -0.0484781    6.0827341  
H   -1.3497443   -0.0436789    5.6809233  
H    2.1062470   -0.0051382    1.8205408  
