60

C    1.1243404    0.0100774   -0.7919005  
C    0.7474057    0.0235105   -2.1148545  
C   -0.6787398    0.0233965   -2.1414699  
C   -1.1201750    0.0097737   -0.7935548  
N    0.0000000    0.0000000    0.0000000  
C   -2.4730822    0.0061825   -0.4408239  
C   -3.3971968    0.0168391   -1.4675063  
O   -4.7313527    0.0142657   -1.1793469  
C   -2.9763674    0.0301236   -2.8186325  
O   -4.0166505    0.0392055   -3.7247622  
C   -1.6418590    0.0334002   -3.1673482  
H   -2.8160158   -0.0043253    0.5845962  
H   -5.1938839    0.0226913   -2.0274378  
H   -3.6464708    0.0479508   -4.6127341  
H   -1.3497503    0.0434828   -4.2109233  
H    2.1062461    0.0054418   -0.3505411  
C    2.8195323   -0.6690162   -3.3744983  
C    1.6628925    0.0340155   -3.2649301  
C    1.5103291    0.7867448   -4.4876151  
C    2.6812795    0.4622690   -5.3245026  
N    3.4361213   -0.4248113   -4.5922511  
C    2.9074701    0.9727100   -6.5614315  
C    1.9326953    1.9039838   -7.1046431  
O    2.0464983    2.4181550   -8.2096217  
C    0.6851447    2.2620757   -6.2356248  
O   -0.1421574    3.0452134   -6.6823094  
C    0.5507751    1.6474254   -4.9172917  
H   -0.3159918    1.9004524   -4.3219629  
H    3.2734676   -1.3448072   -2.6680010  
H    4.3006311   -0.8335805   -4.8965170  
C    4.0840885    0.6311610   -7.3737200  
C    5.0999971   -0.2056107   -7.0585645  
C    5.9848372   -0.1727333   -8.2128942  
C    5.3319502    0.7599486   -9.1565187  
N    4.2174029    1.2344225   -8.6700529  
C    5.9024490    1.0680710  -10.4389682  
C    7.0722116    0.4718578  -10.7638067  
O    7.7168322    0.6675014  -11.9266603  
C    7.7557945   -0.4737696   -9.8328584  
O    8.8180396   -0.9798846  -10.1943881  
C    7.1504907   -0.7736391   -8.5230448  
H    5.2326001   -0.7747894   -6.1543918  
H    5.4035540    1.7531781  -11.1087753  
H    8.5138321    0.1105876  -11.8650914  
H    7.6770191   -1.4637527   -7.8774902  
C    2.4951002    2.0940188    2.9809380  
C    1.9440701    1.6314916    1.8291961  
C    0.8759964    0.7350050    2.2038498  
C    0.8497377    0.7130254    3.6788474  
N    1.8560616    1.5571714    4.0882609  
C   -0.0205033   -0.0168748    4.4215661  
C   -0.9962600   -0.8356168    3.7214979  
O   -1.8224391   -1.5286685    4.3006425  
C   -0.9864710   -0.8277881    2.1595606  
O   -1.8030528   -1.5133726    1.5592035  
C    0.0000000    0.0000000    1.4700000  
H    2.2509283    1.8888011    0.8310761  
H   -0.0229599   -0.0187323    5.5027230  
H    3.3143982    2.7817323    3.1139444  
H    2.0889452    1.7545833    5.0442112  
