64

C    2.3136494   -2.1180449   -5.9171360  
C    1.6624063   -1.6181599   -7.0209771  
C    0.6419647   -0.7441450   -6.5420234  
C    0.7194932   -0.7504915   -5.1257338  
N    1.7437762   -1.5963711   -4.7793969  
C   -0.1387079    0.0017019   -4.3179684  
C   -1.0923523    0.7746130   -4.9514893  
O   -1.9557349    1.5288503   -4.2107391  
C   -1.1856778    0.7938840   -6.3634861  
O   -2.1870601    1.6126755   -6.8432329  
C   -0.3395492    0.0518695   -7.1609864  
H    2.0414323   -1.7936219   -3.8410611  
H   -2.5301599    1.9837415   -4.8403222  
H   -2.1819299    1.5683226   -7.8042790  
H   -0.4351229    0.0866796   -8.2399366  
H    3.1386345   -2.8065415   -5.8513288  
C    2.8110468   -5.4364870   -9.0435166  
C    2.4494258   -4.4912835   -8.1116961  
C    2.3173154   -3.2519625   -8.8054039  
C    2.6128383   -3.5049431  -10.1694396  
N    2.9103255   -4.8406497  -10.2790195  
C    2.5809824   -2.5067525  -11.1479030  
C    2.2443752   -1.2299807  -10.7420373  
O    2.1977976   -0.2176811  -11.6564193  
C    1.9465957   -0.9576957   -9.3855697  
O    1.6299946    0.3624864   -9.1401595  
C    1.9780889   -1.9418918   -8.4197056  
H    2.3003861   -4.6724968   -7.0610099  
H    3.1496497   -5.3138844  -11.1315193  
H    2.8053118   -2.6930586  -12.1891363  
H    1.9466605    0.5782963  -11.1699885  
H    1.4425388    0.4609122   -8.2016619  
H    3.0074051   -6.4882463   -8.9243312  
C    3.3041273    0.0001178   -1.5420428  
C    2.5845373   -0.0004780   -0.3695851  
C    1.2040007   -0.0000007   -0.7283589  
C    1.1422374    0.0006038   -2.1454372  
N    2.4348641    0.0026111   -2.6077464  
C   -0.0655179    0.0008799   -2.8497918  
C   -1.2321766    0.0002325   -2.1101402  
O   -2.4392814    0.0001148   -2.7472522  
C   -1.1911209   -0.0000007   -0.6955266  
O   -2.4371528   -0.0002320   -0.1032862  
C    0.0000000    0.0000000    0.0000000  
H    3.0031533   -0.0000660    0.6222584  
H    2.7054631   -0.0071097   -3.5745261  
H   -3.1132988   -0.0000648   -2.0551787  
H   -2.3200282   -0.0004072    0.8516409  
H    4.3686625    0.0004073   -1.7024290  
C    0.8400945    0.7047457    2.2710304  
C    0.0000000    0.0000000    1.4700000  
C   -0.8844236   -0.7423113    2.3369512  
C   -0.4878984   -0.4098547    3.7186280  
N    0.5629682    0.4714286    3.6095011  
C   -1.0836927   -0.9095027    4.8308716  
C   -2.1891196   -1.8367527    4.6554461  
O   -2.7906899   -2.3413415    5.5944904  
C   -2.6257283   -2.2031529    3.2011665  
O   -3.5549479   -2.9829990    3.0410059  
C   -1.9068976   -1.5999348    2.0816745  
H   -0.7774656   -0.6525820    5.8354244  
H   -2.2155208   -1.8586617    1.0779135  
H    1.6384792    1.3747609    1.9961646  
H    1.0518368    0.8833920    4.3830260  
