62

C    0.0000000    0.0000000    0.0000000  
C    1.0521663   -0.0011902   -0.8862345  
C    0.4917215   -0.0011956   -2.1979133  
C   -0.9187430    0.0003149   -2.0478683  
N   -1.1833172   -0.0009411   -0.7007910  
C   -1.7951704    0.0010351   -3.1372088  
C   -1.2375840    0.0005226   -4.4010423  
O   -2.0474221    0.0015361   -5.4997580  
C    0.1673576   -0.0013565   -4.5711965  
O    0.5673516   -0.0020685   -5.8915550  
C    1.0325767   -0.0023411   -3.4969892  
H    2.0953056   -0.0030649   -0.6200563  
H   -2.0989778    0.0102372   -0.2891821  
H   -1.4634890    0.0006499   -6.2693592  
H    1.5290706   -0.0033151   -5.9180044  
C   -4.4707106    2.1246523   -0.3281852  
C   -5.6599901    1.6263872   -0.8075739  
C   -5.3396940    0.7516100   -1.8877478  
C   -3.9276529    0.7558436   -2.0220871  
N   -3.4313381    1.6012525   -1.0610603  
C   -3.2578654    0.0024039   -2.9908502  
C   -4.0275271   -0.7696041   -3.8392616  
O   -3.4247832   -1.5249880   -4.8031639  
C   -5.4376975   -0.7867694   -3.7211790  
O   -6.0624813   -1.6048901   -4.6396928  
C   -6.0991477   -0.0435244   -2.7658798  
H   -6.6381349    1.8650159   -0.4264133  
H   -2.4588395    1.7971149   -0.9065735  
H   -4.1335869   -1.9789647   -5.2772599  
H   -7.0119725   -1.5591008   -4.4914531  
H   -7.1803458   -0.0767266   -2.6996340  
H   -4.2817180    2.8130885    0.4776041  
C    2.4861696   -0.0045381   -3.7159924  
C    3.4897067   -0.0059405   -2.8011226  
C    4.7313099   -0.0078381   -3.5381797  
C    4.3662414   -0.0073941   -4.9676956  
N    2.9909940   -0.0057670   -5.0074607  
C    5.2594866   -0.0083968   -5.9893690  
C    6.6748990   -0.0102480   -5.6590064  
O    7.5569779   -0.0113207   -6.5076742  
C    7.0843353   -0.0110003   -4.1516358  
O    8.2730115   -0.0128635   -3.8612819  
C    6.0304246   -0.0095093   -3.1401409  
H    3.3734529   -0.0058581   -1.7319645  
H    4.9706890   -0.0079170   -7.0312449  
H    6.3222875   -0.0098370   -2.0987282  
H    2.4390579   -0.0035501   -5.8455590  
C    0.0000000    0.0000000    1.4700000  
C    1.0541688    0.0001722    2.3260392  
C    0.5103138    0.0000454    3.6635956  
C   -0.9576371   -0.0002459    3.5155732  
N   -1.2018458    0.0001392    2.1615969  
C   -1.8348311   -0.0008317    4.5510609  
C   -1.2972847   -0.0009736    5.9014604  
O   -2.0050672   -0.0014265    6.9001319  
C    0.2542623   -0.0004184    6.0817573  
O    0.7184670   -0.0002256    7.2139121  
C    1.0974552   -0.0000873    4.8889129  
H    2.0940752    0.0005483    2.0517982  
H   -2.9081052   -0.0011668    4.4207061  
H    2.1707277    0.0000911    5.0223670  
H   -2.1128194   -0.0014912    1.7406791  
