58

C   -1.0965426    0.0043837   -0.8010309  
C    0.0000000    0.0000000    0.0000000  
C    1.1546461   -0.0049060   -0.8669511  
C    0.6371951   -0.0029782   -2.2486280  
N   -0.7342834    0.0022926   -2.1395012  
C    1.4147621   -0.0059665   -3.3608714  
C    2.8575817   -0.0116730   -3.1854456  
O    3.6427492   -0.0147647   -4.1244896  
C    3.4275556   -0.0140544   -1.7311652  
O    4.6406438   -0.0191601   -1.5710044  
C    2.4891660   -0.0101502   -0.6116739  
H    2.8918885   -0.0116272    0.3920869  
H   -2.1388090    0.0087490   -0.5261650  
H   -1.3735722    0.0062710   -2.9130263  
C    0.8712755   -0.0037622   -4.7267106  
C   -0.4275876    0.0013791   -5.1068515  
C   -0.3927374    0.0012943   -6.5612540  
C    1.0467396   -0.0042648   -6.8995716  
N    1.7925627   -0.0073282   -5.8282518  
C    1.5084716   -0.0060512   -8.2604119  
C    0.5746167   -0.0028368   -9.2387987  
O    0.8627862   -0.0039935  -10.5514281  
C   -0.8856638    0.0024210   -8.9294217  
O   -1.6794854    0.0052640   -9.8701976  
C   -1.3340887    0.0042078   -7.5255568  
H   -1.3014174    0.0047157   -4.4779746  
H    2.5664278   -0.0099303   -8.4786392  
H   -0.0042917   -0.0009874  -10.9956356  
C   -2.7831076    0.0092607   -7.2781327  
C   -3.4251658    0.0117658   -6.0867743  
C   -4.8404816    0.0165476   -6.4234617  
C   -4.8719001    0.0163975   -7.9018379  
N   -3.6688563    0.0120545   -8.4084502  
C   -6.1068861    0.0204469   -8.6366029  
C   -7.2581531    0.0240748   -7.9267395  
O   -8.4820955    0.0280774   -8.4817077  
C   -7.2593714    0.0239564   -6.4340373  
O   -8.3447162    0.0275081   -5.8533183  
C   -5.9795339    0.0198062   -5.7033371  
H   -2.9918611    0.0104321   -5.1012180  
H   -6.1002202    0.0204436   -9.7168178  
H   -9.0969818    0.0299474   -7.7260200  
H   -6.0232998    0.0197422   -4.6224515  
C    2.5128556    2.1077716    2.9199648  
C    1.9592212    1.6432552    4.0696553  
C    0.8915788    0.7479214    3.6910360  
C    0.8684491    0.7287414    2.2159470  
N    1.8754542    1.5738793    1.8102719  
C    0.0000000    0.0000000    1.4700000  
C   -0.9772830   -0.8200135    2.1664417  
O   -1.8021297   -1.5120829    1.5842315  
C   -0.9711318   -0.8147624    3.7284083  
O   -1.7894187   -1.5009653    4.3257297  
C    0.0140216    0.0115358    4.4216297  
H    2.2638494    1.8988021    5.0689105  
H    0.0117648    0.0094386    5.5031631  
H    3.3327358    2.7953732    2.7900019  
H    2.1123206    1.7707734    0.8551938  
