60

C    3.3003552    0.0005276   -1.4738980  
C    2.5232822    0.0003497   -2.6090742  
C    1.1623210   -0.0001319   -2.1820102  
C    1.1711889    0.0000583   -0.7636142  
N    2.4852305   -0.0014919   -0.3662355  
C    0.0000000    0.0000000    0.0000000  
C   -1.2020381    0.0000520   -0.6806483  
O   -2.3759252    0.0003496    0.0157737  
C   -1.2314649   -0.0005113   -2.0955516  
O   -2.5054380   -0.0008037   -2.6250188  
C   -0.0764507   -0.0007272   -2.8495199  
H    2.8036268    0.0088180    0.5858669  
H   -3.0835632    0.0000349   -0.6418826  
H   -2.4360041   -0.0011526   -3.5845928  
H   -0.1304082   -0.0013421   -3.9319088  
H    4.3715554    0.0004893   -1.3667123  
C    4.0912594   -0.7049387   -4.4540730  
C    3.0267448   -0.0008952   -3.9901694  
C    2.4918049    0.7392283   -5.1086021  
C    3.3379767    0.4062536   -6.2704581  
N    4.2890161   -0.4732104   -5.8068234  
C    3.1585244    0.9039806   -7.5201656  
C    2.0587104    1.8295626   -7.7352070  
O    1.8145057    2.3323674   -8.8241751  
C    1.1499704    2.1964768   -6.5189127  
O    0.2211191    2.9749316   -6.6877463  
C    1.4426654    1.5953879   -5.2201159  
H    3.7906033    0.6467125   -8.3587354  
H    0.8086039    1.8544577   -4.3831137  
H    4.7480576   -1.3734090   -3.9214824  
C    5.3506549   -1.0764565   -6.6253078  
C    6.3241930   -1.9486735   -6.2571534  
C    7.1068992   -2.2287908   -7.4377208  
C    6.5052613   -1.4426122   -8.5316794  
N    5.4448490   -0.7666278   -7.9735930  
C    6.9577070   -1.4337383   -9.8111011  
C    8.1142862   -2.2533588  -10.1321628  
O    8.5971787   -2.3131725  -11.2553452  
C    8.7672573   -3.0942829   -8.9892366  
O    9.7412913   -3.7883659   -9.2476326  
C    8.1898589   -3.0215894   -7.6493938  
H    6.4765064   -2.3501652   -5.2711418  
H    6.5019183   -0.8497585  -10.5985870  
H    8.6479801   -3.6067203   -6.8636006  
H    4.8347160   -0.1425978   -8.4689426  
C    0.8400945    0.7047457    2.2710304  
C    0.0000000    0.0000000    1.4700000  
C   -0.8844236   -0.7423113    2.3369512  
C   -0.4878984   -0.4098547    3.7186280  
N    0.5629682    0.4714286    3.6095011  
C   -1.0836927   -0.9095027    4.8308716  
C   -2.1891196   -1.8367527    4.6554461  
O   -2.7906899   -2.3413415    5.5944904  
C   -2.6257283   -2.2031529    3.2011665  
O   -3.5549479   -2.9829990    3.0410059  
C   -1.9068976   -1.5999348    2.0816745  
H   -0.7774656   -0.6525820    5.8354244  
H   -2.2155208   -1.8586617    1.0779135  
H    1.6384792    1.3747609    1.9961646  
H    1.0518368    0.8833920    4.3830260  
