58

C   -1.6707547   -0.0059435   -3.2725972  
C   -3.0286634   -0.0106125   -3.2608752  
C   -3.4615586   -0.0107290   -4.6383501  
C   -2.2357522   -0.0057382   -5.4594254  
N   -1.1849528   -0.0026160   -4.5713370  
C   -2.2192701   -0.0047389   -6.8164187  
C   -3.4938984   -0.0086271   -7.5148761  
O   -3.5845462   -0.0080291   -8.7355659  
C   -4.8047027   -0.0136881   -6.6654223  
O   -5.8837652   -0.0166830   -7.2423761  
C   -4.6947303   -0.0146046   -5.2087973  
H   -3.6555237   -0.0134483   -2.3870037  
H   -1.3089383   -0.0011811   -7.3996794  
H   -0.2146128   -0.0005084   -4.8272344  
C   -1.0965411   -0.0048466   -0.8010305  
C    0.0000000    0.0000000    0.0000000  
C    1.1546462    0.0048134   -0.8669513  
C    0.6371965    0.0023853   -2.2486285  
N   -0.7342777   -0.0038884   -2.1395013  
C    1.4147610    0.0059424   -3.3608716  
C    2.8575773    0.0123808   -3.1854462  
O    3.6427423    0.0158985   -4.1244910  
C    3.4275516    0.0147974   -1.7311672  
O    4.6406395    0.0199031   -1.5710067  
C    2.4891633    0.0108026   -0.6116745  
H    1.0150358    0.0041988   -4.3654248  
H    2.8918846    0.0127156    0.3920864  
H   -2.1388072   -0.0092547   -0.5261646  
C   -6.1616861    0.6832968   -3.2798134  
C   -5.9347124   -0.0196591   -4.4192918  
C   -7.1383992   -0.7659668   -4.7003589  
C   -8.0920837   -0.4378058   -3.6235176  
N   -7.4387371    0.4450593   -2.7949182  
C   -9.3485185   -0.9419622   -3.5291632  
C   -9.7909791   -1.8698781   -4.5566532  
O  -10.9044003   -2.3783866   -4.5601971  
C   -8.7974608   -2.2317793   -5.7063296  
O   -9.1586795   -3.0121417   -6.5768556  
C   -7.4691962   -1.6238865   -5.7007008  
H  -10.0323209   -0.6881440   -2.7311030  
H   -6.7873425   -1.8795163   -6.5003590  
H   -5.5033935    1.3551738   -2.7533898  
H   -7.8301146    0.8549242   -1.9667382  
C    0.8175213    0.6860729    2.3021913  
C    0.0000000    0.0000000    1.4700000  
C   -0.8887526   -0.7456559    2.3478473  
C   -0.4549825   -0.3816753    3.7138435  
N    0.5448156    0.4573574    3.6934124  
C   -1.0945674   -0.9182058    4.8835240  
C   -2.1210866   -1.7789155    4.6970523  
O   -2.8083856   -2.3554314    5.6976972  
C   -2.5824069   -2.1655116    3.3310774  
O   -3.5227682   -2.9541547    3.2362962  
C   -1.9100805   -1.6015804    2.1470656  
H   -0.7567140   -0.6349833    5.8697035  
H   -3.4728268   -2.9124471    5.2533954  
H   -2.2742832   -1.9066565    1.1752040  
H    1.6189533    1.3585343    2.0405121  
