58

C   -4.8018592    3.7074667    1.7289588  
C   -4.1321773    4.5035131    2.6018344  
C   -2.7277636    4.3835895    2.2886628  
C   -2.6334672    3.4457213    1.1536289  
N   -3.9252190    3.0721390    0.8625877  
C   -1.4717094    3.0692614    0.5617671  
C   -0.2313970    3.6246963    1.0771816  
O    0.8664746    3.3475892    0.6122182  
C   -0.3075914    4.6196807    2.2788490  
O    0.7300799    5.0935366    2.7215220  
C   -1.6185794    4.9494544    2.8323945  
H   -4.5718258    5.1058277    3.3767802  
H   -1.4245412    2.3800277   -0.2698834  
H   -1.6627110    5.6393131    3.6641824  
H   -5.8620278    3.5313283    1.6458520  
C   -4.3137501    2.1424312   -0.2077332  
C   -5.5591253    1.7353211   -0.5466753  
C   -5.3648110    0.8246403   -1.6644421  
C   -3.9011721    0.7979210   -1.8733217  
N   -3.2797693    1.5684038   -1.0223199  
C   -3.2941076    0.0012878   -2.9038237  
C   -4.1120064   -0.7354732   -3.6896735  
O   -3.6822294   -1.5242481   -4.6892573  
C   -5.5930505   -0.7299489   -3.5035602  
O   -6.2763269   -1.4248017   -4.2555802  
C   -6.1916589    0.0955191   -2.4395140  
H   -6.4941462    2.0180132   -0.0940194  
H   -4.4926441   -1.9161859   -5.0617693  
H   -7.2683271    0.0718760   -2.3372581  
C    0.0000000    0.0000000    0.0000000  
C    1.0541688   -0.0001723   -0.8560392  
C    0.5103136   -0.0000455   -2.1935956  
C   -0.9576373    0.0002461   -2.0455730  
N   -1.2018460   -0.0001389   -0.6915968  
C   -1.8348314    0.0008319   -3.0810607  
C   -1.2972851    0.0009739   -4.4314603  
O   -2.0050676    0.0014268   -5.4301316  
C    0.2542619    0.0004184   -4.6117572  
O    0.7184666    0.0002257   -5.7439122  
C    1.0974551    0.0000873   -3.4189129  
H    2.0940752   -0.0005484   -0.5817983  
H    2.1707276   -0.0000912   -3.5523673  
H   -2.1128194    0.0014915   -0.2706789  
C    0.0000000    0.0000000    1.4700000  
C    1.0541688    0.0001722    2.3260392  
C    0.5103138    0.0000454    3.6635956  
C   -0.9576371   -0.0002459    3.5155732  
N   -1.2018458    0.0001392    2.1615969  
C   -1.8348311   -0.0008317    4.5510609  
C   -1.2972847   -0.0009736    5.9014604  
O   -2.0050672   -0.0014265    6.9001319  
C    0.2542623   -0.0004184    6.0817573  
O    0.7184670   -0.0002256    7.2139121  
C    1.0974552   -0.0000873    4.8889129  
H    2.0940752    0.0005483    2.0517982  
H   -2.9081052   -0.0011668    4.4207061  
H    2.1707277    0.0000911    5.0223670  
H   -2.1128194   -0.0014912    1.7406791  
