60

C    1.1243404    0.0100101   -0.7919010  
C    0.7474060    0.0234663   -2.1148549  
C   -0.6787396    0.0234385   -2.1414699  
C   -1.1201749    0.0098418   -0.7935544  
N    0.0000000    0.0000000    0.0000000  
C   -2.4730823    0.0063321   -0.4408230  
C   -3.3971967    0.0170447   -1.4675047  
O   -4.7313524    0.0145515   -1.1793448  
C   -2.9763671    0.0303042   -2.8186310  
O   -4.0166497    0.0394489   -3.7247605  
C   -1.6418584    0.0335006   -3.1673477  
H   -2.8160162   -0.0041554    0.5845978  
H   -5.1938829    0.0230052   -2.0274358  
H   -3.6464702    0.0481723   -4.6127325  
H   -1.3497496    0.0435660   -4.2109228  
H    2.1062462    0.0053151   -0.3505420  
C    4.5575643   -2.0610707   -2.9109879  
C    3.4088202   -1.6041454   -2.3491333  
C    2.8058341   -0.6999826   -3.2997819  
C    3.7038723   -0.6673939   -4.4699334  
N    4.7468088   -1.5133522   -4.1707223  
C    3.4850154    0.0718708   -5.5867569  
C    2.2849994    0.8902155   -5.6397509  
O    1.9987724    1.5912618   -6.6014727  
C    1.3199204    0.8712369   -4.4117165  
O    0.3066376    1.5563858   -4.4447249  
C    1.6628928    0.0339168   -3.2649309  
H    3.0274839   -1.8699907   -1.3793280  
H    5.2819174   -2.7516843   -2.5106676  
H    5.5245077   -1.7050614   -4.7752714  
C    5.6887972   -3.1872292   -7.4600186  
C    6.3431583   -2.5512103   -8.4594547  
C    5.9437914   -1.1572416   -8.3417392  
C    5.0204800   -1.1303035   -7.1870298  
N    4.8671798   -2.3173388   -6.6660352  
C    4.3978831    0.0848623   -6.7388868  
C    4.6849385    1.2215165   -7.4133873  
O    4.1756333    2.4262941   -7.1049072  
C    5.6130692    1.2268469   -8.5824497  
O    5.8285562    2.2981502   -9.1491016  
C    6.2391209   -0.0325429   -9.0228153  
H    7.0140716   -2.9755720   -9.1866866  
H    4.5631507    3.0344238   -7.7600115  
H    6.9055304    0.0136025   -9.8736957  
H    5.7187273   -4.2353930   -7.2081660  
C    0.8400945    0.7047457    2.2710304  
C    0.0000000    0.0000000    1.4700000  
C   -0.8844236   -0.7423113    2.3369512  
C   -0.4878984   -0.4098547    3.7186280  
N    0.5629682    0.4714286    3.6095011  
C   -1.0836927   -0.9095027    4.8308716  
C   -2.1891196   -1.8367527    4.6554461  
O   -2.7906899   -2.3413415    5.5944904  
C   -2.6257283   -2.2031529    3.2011665  
O   -3.5549479   -2.9829990    3.0410059  
C   -1.9068976   -1.5999348    2.0816745  
H   -0.7774656   -0.6525820    5.8354244  
H   -2.2155208   -1.8586617    1.0779135  
H    1.6384792    1.3747609    1.9961646  
H    1.0518368    0.8833920    4.3830260  
