64

C    5.9329386   -2.1252339   -4.5701444  
C    5.0131317   -1.6623126   -3.6579347  
C    4.1427217   -0.7751635   -4.3579009  
C    4.5839726   -0.7362133   -5.7053827  
N    5.6738273   -1.5656657   -5.7994102  
C    3.9561498    0.0394659   -6.6846422  
C    2.8627879    0.7892526   -6.2966248  
O    2.2121665    1.5642685   -7.2126250  
C    2.4077027    0.7638903   -4.9568224  
O    1.3079544    1.5648734   -4.7280803  
C    3.0267438   -0.0008951   -3.9901699  
H    4.9749619   -1.9301461   -2.6159169  
H    6.1938208   -1.7478107   -6.6387023  
H    4.2876439    0.0736084   -7.7133057  
H    1.4899369    1.9978186   -6.7396717  
H    1.0650888    1.4902880   -3.8001488  
C    7.0543389   -3.0591483   -4.3936108  
C    7.4852370   -3.7241292   -3.2690681  
C    8.6160681   -4.5036496   -3.6539945  
C    8.8302160   -4.2717326   -5.0368471  
N    7.8633002   -3.3914708   -5.4549739  
C    9.8652870   -4.8791018   -5.7541483  
C   10.6995550   -5.7359673   -5.0628070  
O   11.7264836   -6.3554615   -5.7144664  
C   10.5018092   -5.9804127   -3.6829660  
O   11.4156925   -6.8582111   -3.1374112  
C    9.4807279   -5.3817846   -2.9747544  
H    7.0386930   -3.6566213   -2.2918099  
H    7.7687851   -3.0334811   -6.3881898  
H   10.0337404   -4.7066222   -6.8082249  
H   12.1773769   -6.9011498   -5.0570607  
H   11.2116778   -6.9683152   -2.2036776  
H    9.3539405   -5.5885008   -1.9185007  
C    3.3003547    0.0005277   -1.4738986  
C    2.5232816    0.0003497   -2.6090746  
C    1.1623203   -0.0001319   -2.1820102  
C    1.1711884    0.0000584   -0.7636141  
N    2.4852301   -0.0014919   -0.3662359  
C    0.0000000    0.0000000    0.0000000  
C   -1.2020383    0.0000520   -0.6806479  
O   -2.3759248    0.0003493    0.0157745  
C   -1.2314655   -0.0005115   -2.0955511  
O   -2.5054388   -0.0008040   -2.6250184  
C   -0.0764513   -0.0007274   -2.8495195  
H    2.8036266    0.0088183    0.5858662  
H   -3.0835639    0.0000346   -0.6418822  
H   -2.4360043   -0.0011529   -3.5845924  
H   -0.1304091   -0.0013423   -3.9319089  
H    4.3715553    0.0004897   -1.3667133  
C    0.0000000    0.0000000    1.4700000  
C    1.0541688    0.0001722    2.3260392  
C    0.5103138    0.0000454    3.6635956  
C   -0.9576371   -0.0002459    3.5155732  
N   -1.2018458    0.0001392    2.1615969  
C   -1.8348311   -0.0008317    4.5510609  
C   -1.2972847   -0.0009736    5.9014604  
O   -2.0050672   -0.0014265    6.9001319  
C    0.2542623   -0.0004184    6.0817573  
O    0.7184670   -0.0002256    7.2139121  
C    1.0974552   -0.0000873    4.8889129  
H    2.0940752    0.0005483    2.0517982  
H   -2.9081052   -0.0011668    4.4207061  
H    2.1707277    0.0000911    5.0223670  
H   -2.1128194   -0.0014912    1.7406791  
