58

C    2.8497500   -0.7283602   -3.3359970  
C    3.4914339   -0.5134522   -4.5133378  
C    2.6832175    0.4131995   -5.2702645  
C    1.5096738    0.7227764   -4.4313674  
N    1.6707640   -0.0012346   -3.2725974  
C    0.5071665    1.5634835   -4.7917776  
C    0.5893840    2.2061566   -6.0928336  
O   -0.2632818    2.9796306   -6.5087674  
C    1.8232403    1.8926652   -6.9978897  
O    1.9032033    2.4275856   -8.0954899  
C    2.8399721    0.9695592   -6.4999103  
H    4.4243724   -0.9539526   -4.8169812  
H   -0.3448597    1.7770156   -4.1614080  
H    3.1388486   -1.3569184   -2.5094213  
C    1.0965516    0.0001357   -0.8010304  
C    0.0000000    0.0000000    0.0000000  
C   -1.1546563    0.0001468   -0.8669509  
C   -0.6372015    0.0003517   -2.2486279  
N    0.7342869    0.0007336   -2.1395013  
C   -1.4147739    0.0001346   -3.3608715  
C   -2.8576054   -0.0001053   -3.1854458  
O   -3.6427780   -0.0002503   -4.1244898  
C   -3.4275841   -0.0000727   -1.7311662  
O   -4.6406831    0.0000327   -1.5710054  
C   -2.4891866   -0.0001093   -0.6116739  
H   -1.0150452    0.0001612   -4.3654243  
H   -2.8919121   -0.0002921    0.3920870  
H    2.1388271    0.0000665   -0.5261650  
C    4.5878371   -0.5289592   -7.5291893  
C    3.9969993    0.6819514   -7.3598351  
C    4.7212976    1.6224352   -8.1818556  
C    5.7901832    0.8546715   -8.8487982  
N    5.6548321   -0.4424397   -8.4105377  
C    6.6936630    1.3845681   -9.7117227  
C    6.6077170    2.8059677  -10.0028781  
O    7.3751930    3.3770723  -10.7665029  
C    5.4837349    3.6384788   -9.3076112  
O    5.4016935    4.8360964   -9.5447632  
C    4.5685675    2.9553355   -8.3967680  
H    7.4698724    0.8037355  -10.1903060  
H    3.7929931    3.5388640   -7.9195851  
H    4.3336843   -1.4772285   -7.0841259  
H    6.2396776   -1.2086580   -8.6896667  
C    0.0000000    0.0000000    1.4700000  
C    1.0662921    0.0000102    2.3034270  
C    0.4961870   -0.0000064    3.6418889  
C   -0.9663858    0.0000850    3.4240247  
N   -1.2632773    0.0000084    2.1528658  
C   -1.8985362    0.0000517    4.5177257  
C   -1.3925775   -0.0004564    5.7720543  
O   -2.1456383   -0.0005410    6.8851312  
C    0.0786232   -0.0009323    6.0245000  
O    0.4683759   -0.0012588    7.1921102  
C    1.0143166   -0.0008442    4.8859032  
H    2.1107198   -0.0000632    2.0421868  
H   -2.9622183    0.0003270    4.3293377  
H   -1.5042274   -0.0009692    7.6184419  
H    2.0724152   -0.0013148    5.1109744  
