58

C    5.6664810    0.0014065   -2.2647026  
C    4.7390840    0.0009613   -1.2727298  
C    5.4604950    0.0006395   -0.0219693  
C    6.8944812    0.0009652   -0.3690619  
N    6.9515096    0.0010262   -1.7437030  
C    7.9048599    0.0011991    0.5369403  
C    7.5567532    0.0008990    1.9480948  
O    8.3942798    0.0010140    2.8407597  
C    6.0443611    0.0002996    2.3385749  
O    5.7391068   -0.0002636    3.5235129  
C    5.0461778    0.0003722    1.2720468  
H    8.9502793    0.0015667    0.2612452  
H    4.0011829    0.0001603    1.5508120  
H    5.5192864    0.0017636   -3.3325147  
C    8.1111155    2.0976035   -5.4526261  
C    7.4395655    1.6336453   -4.3673430  
C    8.3330633    0.7389598   -3.6701811  
C    9.5892212    0.7195963   -4.4437971  
N    9.3893282    1.5633829   -5.5119526  
C   10.6855623   -0.0080691   -4.1117650  
C   10.6241827   -0.8269944   -2.9125446  
O   11.5589477   -1.5181453   -2.5293669  
C    9.3037351   -0.8219167   -2.0781606  
O    9.2401675   -1.5076799   -1.0667512  
C    8.1892491    0.0036053   -2.5367312  
H    6.4330781    1.8888749   -4.0872453  
H   11.5972253   -0.0080269   -4.6929539  
H    7.7797042    2.7846729   -6.2141981  
H   10.0681978    1.7622227   -6.2237434  
C    3.2798077    0.0005856   -1.4499661  
C    2.5571132    0.0005565   -2.5996564  
C    1.1637425    0.0001547   -2.2210366  
C    1.1336959   -0.0000200   -0.7459475  
N    2.4483509   -0.0001429   -0.3402730  
C    0.0000000    0.0000000    0.0000000  
C   -1.2757370   -0.0000187   -0.6964411  
O   -2.3524597   -0.0000640   -0.1142306  
C   -1.2676502   -0.0000874   -2.2584078  
O   -2.3355774   -0.0004102   -2.8557287  
C    0.0181551    0.0001758   -2.9516297  
H    2.9547342    0.0006074   -3.5989118  
H    0.0150776    0.0003317   -4.0331632  
H    2.7563626    0.0012823    0.6148051  
C    0.0000000    0.0000000    1.4700000  
C    1.0541688    0.0001722    2.3260392  
C    0.5103138    0.0000454    3.6635956  
C   -0.9576371   -0.0002459    3.5155732  
N   -1.2018458    0.0001392    2.1615969  
C   -1.8348311   -0.0008317    4.5510609  
C   -1.2972847   -0.0009736    5.9014604  
O   -2.0050672   -0.0014265    6.9001319  
C    0.2542623   -0.0004184    6.0817573  
O    0.7184670   -0.0002256    7.2139121  
C    1.0974552   -0.0000873    4.8889129  
H    2.0940752    0.0005483    2.0517982  
H   -2.9081052   -0.0011668    4.4207061  
H    2.1707277    0.0000911    5.0223670  
H   -2.1128194   -0.0014912    1.7406791  
