64

C    4.6027286   -2.0944966   -2.9150978  
C    3.4411565   -1.6373418   -2.3369738  
C    2.8377887   -0.7405117   -3.2676952  
C    3.6836208   -0.6899840   -4.4052108  
N    4.7469283   -1.5221604   -4.1572680  
C    3.3988812    0.0972720   -5.5250057  
C    2.2389983    0.8469474   -5.4960812  
O    1.9125736    1.6330035   -6.5631221  
C    1.3824833    0.8101281   -4.3700960  
O    0.2670646    1.6125636   -4.4937157  
C    1.6628945    0.0339172   -3.2649299  
H    3.0744459   -1.9151391   -1.3636571  
H    5.5062366   -1.6979111   -4.7901526  
H    4.0395081    0.1402706   -6.3950345  
H    1.0776859    2.0643820   -6.3391996  
H   -0.2575675    1.5298020   -3.6915214  
C    5.6101309   -3.0338605   -2.4016426  
C    5.6620499   -3.7111682   -1.2053874  
C    6.8564832   -4.4907322   -1.2198028  
C    7.4981787   -4.2461380   -2.4609018  
N    6.7139006   -3.3586026   -3.1550239  
C    8.7072304   -4.8500125   -2.8191183  
C    9.2790619   -5.7163557   -1.9077263  
O   10.4595719   -6.3329641   -2.2063995  
C    8.6538749   -5.9735031   -0.6644111  
O    9.3474447   -6.8596322    0.1337612  
C    7.4609717   -5.3783281   -0.3104676  
H    4.9286280   -3.6516346   -0.4195492  
H    6.9202809   -2.9912613   -4.0663138  
H    9.2013115   -4.6678876   -3.7635320  
H   10.6786218   -6.8865222   -1.4455754  
H    8.8578133   -6.9780980    0.9534137  
H    7.0057119   -5.5948506    0.6488734  
C    1.1243410    0.0100105   -0.7919003  
C    0.7474072    0.0234665   -2.1148542  
C   -0.6787384    0.0234379   -2.1414698  
C   -1.1201748    0.0098411   -0.7935547  
N    0.0000000    0.0000000    0.0000000  
C   -2.4730818    0.0063307   -0.4408240  
C   -3.3971962    0.0170429   -1.4675058  
O   -4.7313520    0.0145490   -1.1793468  
C   -2.9763654    0.0303020   -2.8186325  
O   -4.0166484    0.0394464   -3.7247625  
C   -1.6418567    0.0334992   -3.1673480  
H   -2.8160166   -0.0041569    0.5845966  
H   -5.1938823    0.0230023   -2.0274386  
H   -3.6464680    0.0481700   -4.6127343  
H   -1.3497475    0.0435647   -4.2109234  
H    2.1062466    0.0053162   -0.3505405  
C    2.5128556    2.1077716    2.9199648  
C    1.9592212    1.6432552    4.0696553  
C    0.8915788    0.7479214    3.6910360  
C    0.8684491    0.7287414    2.2159470  
N    1.8754542    1.5738793    1.8102719  
C    0.0000000    0.0000000    1.4700000  
C   -0.9772830   -0.8200135    2.1664417  
O   -1.8021297   -1.5120829    1.5842315  
C   -0.9711318   -0.8147624    3.7284083  
O   -1.7894187   -1.5009653    4.3257297  
C    0.0140216    0.0115358    4.4216297  
H    2.2638494    1.8988021    5.0689105  
H    0.0117648    0.0094386    5.5031631  
H    3.3327358    2.7953732    2.7900019  
H    2.1123206    1.7707734    0.8551938  
