62

C    3.3041274    0.0001176   -1.5420427  
C    2.5845368   -0.0004777   -0.3695848  
C    1.2040006   -0.0000008   -0.7283587  
C    1.1422377    0.0006035   -2.1454373  
N    2.4348642    0.0026109   -2.6077463  
C   -0.0655180    0.0008795   -2.8497918  
C   -1.2321768    0.0002321   -2.1101401  
O   -2.4392812    0.0001141   -2.7472520  
C   -1.1911212   -0.0000008   -0.6955262  
O   -2.4371527   -0.0002321   -0.1032859  
C    0.0000000    0.0000000    0.0000000  
H    3.0031534   -0.0000658    0.6222587  
H   -0.1193545    0.0014840   -3.9297470  
H   -3.1132985   -0.0000653   -2.0551791  
H   -2.3200283   -0.0004073    0.8516408  
H    4.3686625    0.0004072   -1.7024288  
C    3.8594214   -0.7175076   -4.5601987  
C    2.8310669   -0.0116223   -4.0232750  
C    2.2094032    0.7153299   -5.1048990  
C    2.9652793    0.3726183   -6.3247306  
N    3.9521602   -0.4993328   -5.9264121  
C    2.6888649    0.8568052   -7.5620112  
C    1.5725237    1.7770481   -7.7015487  
O    1.2438412    2.2678069   -8.7736608  
C    0.7583127    2.1540909   -6.4229929  
O   -0.1835058    2.9281698   -6.5280650  
C    1.1517641    1.5673730   -5.1443962  
H    0.5827559    1.8333879   -4.2639477  
H    4.5574579   -1.3785738   -4.0727301  
H    4.6334395   -0.9149355   -6.5348364  
C    4.4522906   -3.0051273   -8.9639623  
C    3.7969430   -2.0379495   -8.2376333  
C    3.9086061   -0.8194982   -8.9707824  
C    4.6487243   -1.1072731  -10.1460859  
N    4.9648109   -2.4427021  -10.1095406  
C    4.9510414   -0.1367813  -11.1060537  
C    4.4976995    1.1475497  -10.8755060  
O    4.7644596    2.1337765  -11.7806080  
C    3.7580365    1.4543914   -9.7086450  
O    3.3779239    2.7778733   -9.6234762  
C    3.4596575    0.4975375   -8.7610551  
H    3.3005289   -2.1914805   -7.2947686  
H    5.4785472   -2.9370473  -10.8164205  
H    5.5148306   -0.3496620  -12.0038429  
H    4.3638922    2.9405234  -11.4313674  
H    2.8835817    2.9004161   -8.8072576  
H    4.5959053   -4.0513501   -8.7547926  
C    0.0000000    0.0000000    1.4700000  
C    1.0541688    0.0001722    2.3260392  
C    0.5103138    0.0000454    3.6635956  
C   -0.9576371   -0.0002459    3.5155732  
N   -1.2018458    0.0001392    2.1615969  
C   -1.8348311   -0.0008317    4.5510609  
C   -1.2972847   -0.0009736    5.9014604  
O   -2.0050672   -0.0014265    6.9001319  
C    0.2542623   -0.0004184    6.0817573  
O    0.7184670   -0.0002256    7.2139121  
C    1.0974552   -0.0000873    4.8889129  
H    2.0940752    0.0005483    2.0517982  
H   -2.9081052   -0.0011668    4.4207061  
H    2.1707277    0.0000911    5.0223670  
H   -2.1128194   -0.0014912    1.7406791  
