64

C    3.3003540    0.0005278   -1.4738998  
C    2.5232805    0.0003501   -2.6090759  
C    1.1623190   -0.0001315   -2.1820106  
C    1.1711880    0.0000584   -0.7636147  
N    2.4852300   -0.0014918   -0.3662366  
C    0.0000000    0.0000000    0.0000000  
C   -1.2020387    0.0000521   -0.6806476  
O   -2.3759253    0.0003495    0.0157752  
C   -1.2314666   -0.0005110   -2.0955505  
O   -2.5054395   -0.0008035   -2.6250174  
C   -0.0764524   -0.0007269   -2.8495195  
H    2.8919942   -0.0005615   -3.6205312  
H    2.8036265    0.0088181    0.5858650  
H   -3.0835639    0.0000348   -0.6418810  
H   -2.4360058   -0.0011523   -3.5845915  
C    2.3021892   -2.1255945   -5.9826743  
C    1.8095055   -1.6629736   -4.7844624  
C    0.7354722   -0.7756715   -5.0906435  
C    0.6180392   -0.7363227   -6.5036503  
N    1.5855117   -1.5656955   -7.0142922  
C   -0.3411063    0.0395991   -7.1615055  
C   -1.1974987    0.7892236   -6.3786688  
O   -2.1530504    1.5644639   -6.9693768  
C   -1.0957968    0.7634648   -4.9673540  
O   -2.0200026    1.5643300   -4.3287602  
C   -0.1496428   -0.0015607   -4.3176960  
H    2.1795055   -1.9311003   -3.8096800  
H    1.7382175   -1.7475803   -7.9897811  
H   -0.4356876    0.0740456   -8.2381064  
H   -2.6345098    1.9978459   -6.2526892  
H   -1.8829388    1.4894726   -3.3794373  
H    3.1090410   -2.8095397   -6.1830936  
C    5.6726950   -0.0000626   -2.3741002  
C    6.9488224   -0.0023502   -1.9098067  
C    6.8722127   -0.0037741   -0.4679452  
C    5.4365529   -0.0021459   -0.1278432  
N    4.7630502    0.0004759   -1.3275418  
C    4.9461564   -0.0032057    1.1375480  
C    5.8957036   -0.0059202    2.2379515  
O    5.5533686   -0.0069910    3.4131566  
C    7.4209172   -0.0074283    1.9010162  
O    8.2297938   -0.0094079    2.8191531  
C    7.8277293   -0.0063567    0.4980354  
H    7.8418970   -0.0027871   -2.5089995  
H    3.8892555   -0.0021055    1.3652958  
H    8.8856424   -0.0076181    0.2732170  
H    5.3202440    0.0014922   -3.3927589  
C    2.5311839    2.1237619    3.0120429  
C    1.9795631    1.6616747    1.8395852  
C    0.9223175    0.7739173    2.1983588  
C    0.8753926    0.7337535    3.6154372  
N    1.8668922    1.5631002    4.0777464  
C   -0.0496243   -0.0427881    4.3197917  
C   -0.9437528   -0.7922060    3.5801400  
O   -1.8685244   -1.5680278    4.2172520  
C   -0.9124520   -0.7656372    2.1655264  
O   -1.8671164   -1.5663939    1.5732860  
C    0.0000000    0.0000000    1.4700000  
H    2.3005065    1.9304404    0.8477417  
H    2.0679347    1.7444845    5.0445261  
H   -0.0904770   -0.0778569    5.3997470  
H   -2.3849669   -2.0011402    3.5251786  
H   -1.7775064   -1.4909735    0.6183591  
H    3.3468514    2.8078103    3.1724291  
