60

C   -1.1161981    0.1354435   -0.7919011  
C   -0.7441679    0.0733656   -2.1148550  
C    0.6700108   -0.1109971   -2.1414706  
C    1.1094998   -0.1545893   -0.7935551  
N    0.0000000    0.0000000    0.0000000  
C    2.4515050   -0.3260304   -0.4408249  
C    3.3664775   -0.4561343   -1.4675063  
O    4.6897574   -0.6261590   -1.1793473  
C    2.9474649   -0.4148716   -2.8186330  
O    3.9778337   -0.5584406   -3.7247629  
C    1.6237441   -0.2454987   -3.1673488  
H   -1.4099939    0.1524629   -2.9571211  
H    2.7929174   -0.3599703    0.5845955  
H    5.1473126   -0.6943433   -2.0274392  
H    3.6096329   -0.5192289   -4.6127349  
H   -2.0892548    0.2670523   -0.3505407  
C    1.2290815   -0.2078080   -4.5828772  
C   -0.0069890   -0.0516188   -5.1230711  
C    0.1530310   -0.0866173   -6.5576454  
C    1.5939785   -0.2773961   -6.8107563  
N    2.1906524   -0.3427887   -5.5727768  
C    2.1532295   -0.3629890   -8.0442944  
C    1.2775393   -0.2601401   -9.1997704  
O    1.6849788   -0.3249993  -10.3521965  
C   -0.2518360   -0.0576403   -8.9552088  
O   -0.9988798    0.0306170   -9.9202980  
C   -0.7364171    0.0193411   -7.5793066  
H   -0.9259636    0.0739784   -4.5787136  
H   -1.7967243    0.1594390   -7.4185425  
H    3.1730258   -0.4710556   -5.4129719  
C    4.4158894   -1.3861696   -7.5229163  
C    5.6949093   -1.3393552   -7.9767791  
C    5.7137337   -0.4179309   -9.0882914  
C    4.3309281    0.0717641   -9.2458932  
N    3.5937185   -0.5535765   -8.2669344  
C    3.9334213    0.9620132  -10.1899003  
C    4.9342710    1.4717390  -11.1124050  
O    4.6757704    2.2767546  -11.9975202  
C    6.4048709    0.9666433  -10.9640182  
O    7.2561364    1.3885169  -11.7351406  
C    6.7116817    0.0061188   -9.9070829  
H    6.5298572   -1.8878585   -7.5785078  
H    2.9139826    1.3083787  -10.2883148  
H    7.7323309   -0.3384808   -9.8109146  
H    4.0047209   -1.9590216   -6.7076433  
C    0.8681109    0.7263879    2.2709268  
C    0.6127770    0.5096195    3.5869401  
C   -0.4920590   -0.4175482    3.6542670  
C   -0.8620974   -0.7254003    2.2596025  
N    0.0000000    0.0000000    1.4700000  
C   -1.8641242   -1.5660088    1.8976294  
C   -2.6293522   -2.2103885    2.9520183  
O   -3.5512764   -2.9839180    2.7283916  
C   -2.2549728   -1.8987399    4.4361073  
O   -2.8923672   -2.4351063    5.3323774  
C   -1.1543735   -0.9755647    4.7012123  
H    1.1382914    0.9492124    4.4159191  
H   -2.1192137   -1.7782617    0.8686553  
H   -0.9013378   -0.7652422    5.7314848  
H    1.6172880    1.3558399    1.8188057  
