64

C    4.3849905   -2.1304615   -1.4422215  
C    3.1441142   -1.6666547   -1.8131358  
C    3.3426744   -0.7794829   -2.9122716  
C    4.7370041   -0.7414320   -3.1698022  
N    5.3406538   -1.5714192   -2.2580209  
C    5.2968245    0.0340161   -4.1896406  
C    4.4333178    0.7844924   -4.9637975  
O    4.9266816    1.5593202   -5.9733748  
C    3.0391174    0.7600316   -4.7220873  
O    2.3124330    1.5616238   -5.5780796  
C    2.4861704   -0.0045255   -3.7159919  
H    2.2107619   -1.9339278   -1.3479352  
H    6.3263284   -1.7542337   -2.2032057  
H    6.3586916    0.0674744   -4.3909404  
H    4.1660268    1.9934389   -6.3810646  
H    1.3814038    1.4876309   -5.3471834  
C    3.8926467   -3.6616367    0.5054786  
C    4.5990210   -4.4582522    1.3766311  
C    5.9755688   -4.3468232    1.0198408  
C    6.0486596   -3.4607893   -0.0853862  
N    4.7661116   -3.0647837   -0.3732557  
C    7.2561626   -3.1175120   -0.7009235  
C    8.4109470   -3.6786709   -0.1912667  
O    9.6172877   -3.3773433   -0.7542590  
C    8.3584447   -4.5651502    0.9106473  
O    9.5933816   -5.0404325    1.3010083  
C    7.1675379   -4.9044599    1.5182143  
H    4.1742703   -5.0480710    2.1707928  
H    7.3185840   -2.4429349   -1.5436884  
H   10.2822411   -3.8682705   -0.2541662  
H    9.4689776   -5.6314526    2.0498889  
H    7.1585931   -5.5863236    2.3605077  
H    2.8347289   -3.4730927    0.4405166  
C    0.0000000    0.0000000    0.0000000  
C    1.0521669   -0.0011848   -0.8862341  
C    0.4917221   -0.0011931   -2.1979130  
C   -0.9187427    0.0003100   -2.0478683  
N   -1.1833170   -0.0009472   -0.7007915  
C   -1.7951698    0.0010259   -3.1372090  
C   -1.2375835    0.0005161   -4.4010425  
O   -2.0474208    0.0015256   -5.4997580  
C    0.1673584   -0.0013557   -4.5711962  
O    0.5673529   -0.0020659   -5.8915551  
C    1.0325773   -0.0023359   -3.4969890  
H    2.0953059   -0.0030542   -0.6200560  
H   -2.0989777    0.0102265   -0.2891825  
H   -2.8710930    0.0020274   -3.0295514  
H   -1.4634881    0.0006427   -6.2693593  
H    1.5290715   -0.0033076   -5.9180042  
C    3.2798086   -0.0005857    2.9199648  
C    2.5571146   -0.0005566    4.0696553  
C    1.1637436   -0.0001548    3.6910360  
C    1.1336965    0.0000200    2.2159470  
N    2.4483514    0.0001428    1.8102719  
C    0.0000000    0.0000000    1.4700000  
C   -1.2757367    0.0000186    2.1664417  
O   -2.3524596    0.0000640    1.5842315  
C   -1.2676493    0.0000873    3.7284083  
O   -2.3355761    0.0004100    4.3257297  
C    0.0181563   -0.0001760    4.4216297  
H    2.9547357   -0.0006076    5.0689105  
H    0.0150794   -0.0003319    5.5031631  
H    4.3498549   -0.0008612    2.7900019  
H    2.7563627   -0.0012824    0.8551938  
