62

C    3.3003544    0.0005278   -1.4738987  
C    2.5232810    0.0003499   -2.6090746  
C    1.1623200   -0.0001317   -2.1820099  
C    1.1711887    0.0000584   -0.7636140  
N    2.4852298   -0.0014918   -0.3662360  
C    0.0000000    0.0000000    0.0000000  
C   -1.2020383    0.0000520   -0.6806476  
O   -2.3759252    0.0003495    0.0157747  
C   -1.2314652   -0.0005110   -2.0955508  
O   -2.5054394   -0.0008035   -2.6250176  
C   -0.0764516   -0.0007270   -2.8495191  
H    2.8919952   -0.0005616   -3.6205301  
H    2.8036265    0.0088183    0.5858661  
H   -3.0835641    0.0000348   -0.6418819  
H   -2.4360054   -0.0011526   -3.5845919  
H   -0.1304096   -0.0013419   -3.9319086  
C    6.5582206    0.0029731   -4.4647483  
C    7.6103877    0.0023863   -3.5785142  
C    7.0499432    0.0016141   -2.2668357  
C    5.6394781    0.0014824   -2.4168807  
N    5.3749047    0.0042719   -3.7639556  
C    4.7630502    0.0004758   -1.3275405  
C    5.3206367   -0.0007211   -0.0637073  
O    4.5107983   -0.0020882    1.0350072  
C    6.7255798   -0.0002352    0.1064473  
O    7.1255747   -0.0011493    1.4268057  
C    7.5907994    0.0010309   -0.9677596  
H    8.6535284    0.0036058   -3.8446913  
H    4.4592349   -0.0057077   -4.1755743  
H    5.0947322   -0.0024567    1.8046081  
H    8.0872935   -0.0007696    1.4532558  
H    8.6624385    0.0015572   -0.8063027  
C    6.5582206    0.0043940   -5.9347474  
C    7.6245124    0.0042567   -6.7681754  
C    7.0544075    0.0060658   -8.1066361  
C    5.5918349    0.0070431   -7.8887705  
N    5.2949435    0.0061506   -6.6176121  
C    4.6596849    0.0089489   -8.9824700  
C    5.1656437    0.0102269  -10.2367981  
O    4.4125837    0.0120461  -11.3498740  
C    6.6368445    0.0096600  -10.4892441  
O    7.0265969    0.0107742  -11.6568537  
C    7.5725373    0.0076528   -9.3506499  
H    8.6689399    0.0031640   -6.5069359  
H    3.5960030    0.0094219   -8.7940816  
H    5.0539946    0.0126221  -12.0831845  
H    8.6306357    0.0074155   -9.5757213  
C    0.8681109    0.7263879    2.2709268  
C    0.6127770    0.5096195    3.5869401  
C   -0.4920590   -0.4175482    3.6542670  
C   -0.8620974   -0.7254003    2.2596025  
N    0.0000000    0.0000000    1.4700000  
C   -1.8641242   -1.5660088    1.8976294  
C   -2.6293522   -2.2103885    2.9520183  
O   -3.5512764   -2.9839180    2.7283916  
C   -2.2549728   -1.8987399    4.4361073  
O   -2.8923672   -2.4351063    5.3323774  
C   -1.1543735   -0.9755647    4.7012123  
H    1.1382914    0.9492124    4.4159191  
H   -2.1192137   -1.7782617    0.8686553  
H   -0.9013378   -0.7652422    5.7314848  
H    1.6172880    1.3558399    1.8188057  
