58

C   -3.9876871    0.7052803   -1.9724716  
C   -3.2941072    0.0012877   -2.9038239  
C   -4.2617030   -0.7397006   -3.6781175  
C   -5.5853415   -0.4072884   -3.1175169  
N   -5.3499113    0.4727083   -2.0864649  
C   -6.7615309   -0.9058816   -3.5754343  
C   -6.7210836   -1.8318683   -4.6950092  
O   -7.7260358   -2.3354490   -5.1795490  
C   -5.3302200   -2.1981989   -5.3041936  
O   -5.2836143   -2.9769868   -6.2468373  
C   -4.1319540   -1.5961844   -4.7248928  
H   -3.1728427   -1.8548546   -5.1525834  
H   -3.6182638    1.3742587   -1.2122847  
H   -6.0586652    0.8843287   -1.5074279  
C    0.0000000    0.0000000    0.0000000  
C    1.0541689   -0.0001720   -0.8560391  
C    0.5103137   -0.0000453   -2.1935958  
C   -0.9576369    0.0002463   -2.0455729  
N   -1.2018460   -0.0001389   -0.6915970  
C   -1.8348311    0.0008320   -3.0810608  
C   -1.2972847    0.0009741   -4.4314602  
O   -2.0050673    0.0014271   -5.4301316  
C    0.2542620    0.0004189   -4.6117571  
O    0.7184668    0.0002261   -5.7439123  
C    1.0974554    0.0000878   -3.4189128  
H    2.0940754   -0.0005482   -0.5817983  
H    2.1707279   -0.0000909   -3.5523674  
H   -2.1128195    0.0014915   -0.2706788  
C   -8.4521099    0.6749774   -2.5740193  
C   -8.0670487   -0.5566324   -2.9970321  
C   -9.1805242   -1.4471920   -2.7691918  
C  -10.2535545   -0.6275749   -2.1745289  
N   -9.7484017    0.6488356   -2.0824064  
C  -11.4727977   -1.1016899   -1.8134669  
C  -11.7464164   -2.5134839   -2.0244303  
O  -12.8140765   -3.0359815   -1.7321985  
C  -10.6244530   -3.4002781   -2.6526030  
O  -10.8431482   -4.5903540   -2.8346784  
C   -9.3510059   -2.7751079   -3.0009511  
H  -12.2459952   -0.4834321   -1.3789183  
H   -8.5794581   -3.3959915   -3.4356260  
H   -7.8978824    1.5994705   -2.5798593  
H  -10.2456144    1.4399903   -1.7164810  
C    0.0000000    0.0000000    1.4700000  
C    1.0662921    0.0000102    2.3034270  
C    0.4961870   -0.0000064    3.6418889  
C   -0.9663858    0.0000850    3.4240247  
N   -1.2632773    0.0000084    2.1528658  
C   -1.8985362    0.0000517    4.5177257  
C   -1.3925775   -0.0004564    5.7720543  
O   -2.1456383   -0.0005410    6.8851312  
C    0.0786232   -0.0009323    6.0245000  
O    0.4683759   -0.0012588    7.1921102  
C    1.0143166   -0.0008442    4.8859032  
H    2.1107198   -0.0000632    2.0421868  
H   -2.9622183    0.0003270    4.3293377  
H   -1.5042274   -0.0009692    7.6184419  
H    2.0724152   -0.0013148    5.1109744  
