58

C   -3.9882954    0.7031701   -1.8236365  
C   -3.3460098   -0.0004261   -2.7913644  
C   -4.3538743   -0.7419633   -3.5118971  
C   -5.6452436   -0.4103055   -2.8801080  
N   -5.3545713    0.4698233   -1.8633619  
C   -6.8443197   -0.9095665   -3.2733774  
C   -6.8643129   -1.8355277   -4.3935249  
O   -7.8938502   -2.3396792   -4.8226925  
C   -5.5084415   -2.2010659   -5.0774840  
O   -5.5127437   -2.9798257   -6.0212932  
C   -4.2807772   -1.5983711   -4.5642089  
H   -7.7800877   -0.6532465   -2.7963579  
H   -3.3462066   -1.8564947   -5.0434518  
H   -3.5784438    1.3723570   -1.0846505  
H   -6.0310091    0.8810393   -1.2466113  
C    0.0000000    0.0000000    0.0000000  
C    1.0662918   -0.0000103   -0.8334272  
C    0.4961866    0.0000066   -2.1718888  
C   -0.9663862   -0.0000848   -1.9540246  
N   -1.2632777   -0.0000084   -0.6828658  
C   -1.8985367   -0.0000514   -3.0477256  
C   -1.3925783    0.0004569   -4.3020543  
O   -2.1456389    0.0005417   -5.4151310  
C    0.0786225    0.0009329   -4.5544999  
O    0.4683752    0.0012595   -5.7221105  
C    1.0143159    0.0008446   -3.4159033  
H    2.1107193    0.0000632   -0.5721869  
H   -1.5042282    0.0009699   -6.1484418  
C    4.3939396   -2.1065674   -1.5664987  
C    5.4031200   -1.6413500   -2.3470130  
C    4.8103411   -0.7457939   -3.3121184  
C    3.3627131   -0.7272474   -3.0278289  
N    3.1757271   -1.5729267   -1.9588331  
C    2.4521470    0.0014842   -3.7217487  
C    2.9297292    0.8221550   -4.8221804  
O    2.1884013    1.5142701   -5.5075349  
C    4.4587960    0.8175813   -5.1411459  
O    4.8725544    1.5043408   -6.0654977  
C    5.3421059   -0.0087724   -4.3221493  
H    6.4439778   -1.8965724   -2.2570680  
H    6.3995012   -0.0062037   -4.5493776  
H    4.4376443   -2.7945227   -0.7378267  
H    2.2909007   -1.7703223   -1.5285262  
C    0.0000000    0.0000000    1.4700000  
C    1.0541688    0.0001722    2.3260392  
C    0.5103138    0.0000454    3.6635956  
C   -0.9576371   -0.0002459    3.5155732  
N   -1.2018458    0.0001392    2.1615969  
C   -1.8348311   -0.0008317    4.5510609  
C   -1.2972847   -0.0009736    5.9014604  
O   -2.0050672   -0.0014265    6.9001319  
C    0.2542623   -0.0004184    6.0817573  
O    0.7184670   -0.0002256    7.2139121  
C    1.0974552   -0.0000873    4.8889129  
H    2.0940752    0.0005483    2.0517982  
H   -2.9081052   -0.0011668    4.4207061  
H    2.1707277    0.0000911    5.0223670  
H   -2.1128194   -0.0014912    1.7406791  
