60

C    0.0000000    0.0000000    0.0000000  
C   -1.0521664   -0.0013232   -0.8862345  
C   -0.4917225    0.0000211   -2.1979133  
C    0.9187418    0.0018797   -2.0478681  
N    1.1833123    0.0037676   -0.7007907  
C    1.7951686    0.0032530   -3.1372085  
C    1.2375830    0.0024337   -4.4010421  
O    2.0474213    0.0033545   -5.4997575  
C   -0.1673588    0.0009568   -4.5711962  
O   -0.5673538    0.0007135   -5.8915550  
C   -1.0325785   -0.0001253   -3.4969894  
H   -2.0953064   -0.0019400   -0.6200569  
H    2.0989964   -0.0052234   -0.2891820  
H    2.8710909    0.0048160   -3.0295506  
H    1.4634882    0.0028460   -6.2693590  
H   -1.5290726   -0.0003372   -5.9180050  
C   -2.4861726   -0.0014005   -3.7159928  
C   -3.4691557   -0.0025891   -2.7857662  
C   -4.7077449   -0.0035123   -3.5489158  
C   -4.2744152   -0.0025793   -4.9627081  
N   -2.9732124   -0.0014208   -5.0669066  
C   -5.2170366   -0.0031454   -6.0473972  
C   -6.5327450   -0.0049675   -5.7339580  
O   -7.5212076   -0.0056816   -6.6444428  
C   -7.0015547   -0.0063189   -4.3167858  
O   -8.2141993   -0.0078322   -4.1053356  
C   -6.0150664   -0.0056606   -3.2219044  
H   -3.3664317   -0.0029019   -1.7140744  
H   -4.8722825   -0.0022321   -7.0711419  
H   -8.3418922   -0.0070321   -6.1194404  
C   -6.5317078   -0.0072070   -1.8456852  
C   -5.8456528   -0.0067566   -0.6737623  
C   -6.8249042   -0.0088986    0.3873206  
C   -8.1471808   -0.0106755   -0.2671815  
N   -7.8999459   -0.0091391   -1.6206076  
C   -9.3323402   -0.0133314    0.3939486  
C   -9.3036946   -0.0142929    1.8471221  
O  -10.3173121   -0.0165878    2.5333259  
C   -7.9144988   -0.0121925    2.5612203  
O   -7.8778126   -0.0126717    3.7842963  
C   -6.7058667   -0.0096638    1.7408220  
H   -4.7757058   -0.0049293   -0.5650245  
H  -10.2913288   -0.0147295   -0.1053005  
H   -5.7479691   -0.0084257    2.2429725  
H   -8.6048655   -0.0113453   -2.3348421  
C    0.0000000    0.0000000    1.4700000  
C    1.0541688    0.0001722    2.3260392  
C    0.5103138    0.0000454    3.6635956  
C   -0.9576371   -0.0002459    3.5155732  
N   -1.2018458    0.0001392    2.1615969  
C   -1.8348311   -0.0008317    4.5510609  
C   -1.2972847   -0.0009736    5.9014604  
O   -2.0050672   -0.0014265    6.9001319  
C    0.2542623   -0.0004184    6.0817573  
O    0.7184670   -0.0002256    7.2139121  
C    1.0974552   -0.0000873    4.8889129  
H    2.0940752    0.0005483    2.0517982  
H   -2.9081052   -0.0011668    4.4207061  
H    2.1707277    0.0000911    5.0223670  
H   -2.1128194   -0.0014912    1.7406791  
