60

C    0.3821150    3.2819571   -1.5420439  
C    0.2994622    2.5671295   -0.3695860  
C    0.1392835    1.1959169   -0.7283591  
C    0.1315378    1.1346380   -2.1454375  
N    0.2790790    2.4188181   -2.6077471  
C   -0.0084536   -0.0649774   -2.8497918  
C   -0.1427734   -1.2238780   -2.1101399  
O   -0.2822983   -2.4228917   -2.7472514  
C   -0.1377922   -1.1831242   -0.6955258  
O   -0.2817073   -2.4208175   -0.1032850  
C    0.0000000    0.0000000    0.0000000  
H    0.3474803    2.9829831    0.6222579  
H   -0.0152821   -0.1183828   -3.9297468  
H   -0.3600924   -3.0924044   -2.0551776  
H   -0.2679838   -2.3044988    0.8516418  
H    0.5049762    4.3393785   -1.7024304  
C    2.6568012    5.3371762   -4.9939710  
C    2.1806098    4.6204336   -3.9494130  
C    1.1665189    3.7494312   -4.5234113  
C    1.1616017    4.0821274   -5.9642001  
N    2.0331786    5.0121391   -6.2460176  
C    0.2820259    3.4276083   -6.8931986  
C   -0.5543358    2.4833641   -6.4051043  
O   -1.4280894    1.7932114   -7.1576238  
C   -0.5728012    2.1250284   -4.9561682  
O   -1.3603168    1.2561348   -4.5819176  
C    0.3390501    2.8107133   -4.0232756  
H    2.4805382    4.6758744   -2.9169185  
H    0.2995978    3.6907636   -7.9407439  
H   -1.8791982    1.1986814   -6.5313746  
C    4.3914994    6.7992646   -3.8925520  
C    3.7021616    6.3705973   -4.9811897  
C    4.1924301    7.1218610   -6.1125938  
C    5.2313695    8.0298366   -5.5901233  
N    5.3033332    7.7850915   -4.2381577  
C    5.9375209    8.9070163   -6.3474945  
C    5.6553110    8.9605724   -7.7722840  
O    6.2374146    9.7169746   -8.5386459  
C    4.5588384    8.0081676   -8.3471567  
O    4.3123417    8.0445075   -9.5451468  
C    3.8652784    7.1059805   -7.4312506  
H    6.6955393    9.5641919   -5.9444585  
H    3.1076043    6.4496192   -7.8372607  
H    4.3099489    6.4780853   -2.8668409  
H    5.9241852    8.2494958   -3.6010400  
C    0.8400945    0.7047457    2.2710304  
C    0.0000000    0.0000000    1.4700000  
C   -0.8844236   -0.7423113    2.3369512  
C   -0.4878984   -0.4098547    3.7186280  
N    0.5629682    0.4714286    3.6095011  
C   -1.0836927   -0.9095027    4.8308716  
C   -2.1891196   -1.8367527    4.6554461  
O   -2.7906899   -2.3413415    5.5944904  
C   -2.6257283   -2.2031529    3.2011665  
O   -3.5549479   -2.9829990    3.0410059  
C   -1.9068976   -1.5999348    2.0816745  
H   -0.7774656   -0.6525820    5.8354244  
H   -2.2155208   -1.8586617    1.0779135  
H    1.6384792    1.3747609    1.9961646  
H    1.0518368    0.8833920    4.3830260  
