58

C    5.8392102   -1.1103929   -6.2988424  
C    6.7846695   -1.9824380   -5.8632745  
C    7.6504992   -2.2595852   -6.9850435  
C    7.1282359   -1.4718506   -8.1179624  
N    6.0297526   -0.7978928   -7.6362939  
C    7.6714654   -1.4601147   -9.3615340  
C    8.8489795   -2.2780767   -9.6001458  
O    9.4114169   -2.3353005  -10.6858193  
C    9.4189787   -3.1206042   -8.4147955  
O   10.4097850   -3.8133131   -8.6037931  
C    8.7466926   -3.0510014   -7.1197903  
H    6.8661316   -2.3856837   -4.8696101  
H    7.2728545   -0.8750351  -10.1786640  
H    9.1477527   -3.6372262   -6.3041842  
H    5.4561571   -0.1734627   -8.1730640  
C    4.4169309   -0.7262692   -4.2519971  
C    4.7208615   -0.5096739   -5.5576722  
C    3.7394659    0.4171465   -6.0702171  
C    2.8323824    0.7249833   -4.9480643  
N    3.2973506   -0.0000934   -3.8752374  
C    1.7696619    1.5653070   -5.0267138  
C    1.5012132    2.2093745   -6.3017228  
O    0.5680988    2.9826342   -6.4739682  
C    2.4487563    1.8977358   -7.5037412  
O    2.2325066    2.4338409   -8.5822068  
C    3.5619542    0.9748830   -7.2964134  
H    1.1167873    1.7775543   -4.1914795  
H    4.2134827    0.7645654   -8.1336704  
H    4.9165185   -1.3554568   -3.5333701  
C    3.3321174    0.0004714   -1.3379332  
C    2.6974186    0.0000115   -2.5332308  
C    1.2800441   -0.0002119   -2.2052838  
C    1.2395035    0.0000643   -0.7271293  
N    2.4394063    0.0005458   -0.2131034  
C    0.0000000    0.0000000    0.0000000  
C   -1.1468701    0.0000634   -0.7169542  
O   -2.3742201    0.0000072   -0.1695492  
C   -1.1388767    0.0001606   -2.2096354  
O   -2.2206229    0.0000903   -2.7970413  
C    0.1454526    0.0001815   -2.9324239  
H   -2.9844344    0.0001023   -0.9290168  
H    0.1083580    0.0003680   -4.0135594  
H    4.3940040    0.0007617   -1.1498630  
C    0.8400945    0.7047457    2.2710304  
C    0.0000000    0.0000000    1.4700000  
C   -0.8844236   -0.7423113    2.3369512  
C   -0.4878984   -0.4098547    3.7186280  
N    0.5629682    0.4714286    3.6095011  
C   -1.0836927   -0.9095027    4.8308716  
C   -2.1891196   -1.8367527    4.6554461  
O   -2.7906899   -2.3413415    5.5944904  
C   -2.6257283   -2.2031529    3.2011665  
O   -3.5549479   -2.9829990    3.0410059  
C   -1.9068976   -1.5999348    2.0816745  
H   -0.7774656   -0.6525820    5.8354244  
H   -2.2155208   -1.8586617    1.0779135  
H    1.6384792    1.3747609    1.9961646  
H    1.0518368    0.8833920    4.3830260  
