58

C   -1.1313486    0.0361426   -0.8009269  
C   -0.7966658    0.0230574   -2.1169401  
C    0.6448567   -0.0250666   -2.1842672  
C    1.1260065   -0.0390749   -0.7896029  
N    0.0000000    0.0000000    0.0000000  
C    2.4332152   -0.0824983   -0.4276294  
C    3.4330001   -0.1175673   -1.4820183  
O    4.6357835   -0.1576137   -1.2583919  
C    2.9460913   -0.1032490   -2.9661078  
O    3.7786321   -0.1321703   -3.8623777  
C    1.5103665   -0.0556537   -3.2312127  
H   -1.4814523    0.0448349   -2.9459193  
H    2.7649204   -0.0921803    0.6013445  
H   -2.1092919    0.0693649   -0.3488058  
C    1.0633367   -0.0428368   -4.6315339  
C   -0.2053118   -0.0021952   -5.1010638  
C   -0.0695520   -0.0083808   -6.5495224  
C    1.3891995   -0.0559537   -6.7869351  
N    2.0584250   -0.0764032   -5.6663519  
C    1.9440894   -0.0756186   -8.1123771  
C    1.0809129   -0.0493584   -9.1533250  
O    1.4593998   -0.0633017  -10.4427414  
C   -0.3965820   -0.0015983   -8.9462287  
O   -1.1227433    0.0204512   -9.9399207  
C   -0.9411905    0.0178408   -7.5769411  
H   -1.1202560    0.0281344   -4.5344661  
H    3.0141045   -0.1102692   -8.2565174  
H    0.6257063   -0.0372660  -10.9461594  
C   -2.4031587    0.0648588   -7.4308646  
C   -3.1260745    0.0897608   -6.2870322  
C   -4.5138750    0.1334988   -6.7213094  
C   -4.4425337    0.1290432   -8.1982908  
N   -3.2078250    0.0888001   -8.6200303  
C   -5.6228873    0.1655352   -9.0171437  
C   -6.8201019    0.2043094   -8.3890444  
O   -8.0019315    0.2410734   -9.0277679  
C   -6.9249905    0.2094726   -6.9000404  
O   -8.0475019    0.2458470   -6.3961895  
C   -5.6996326    0.1715935   -6.0821240  
H   -2.7624794    0.0796026   -5.2737349  
H   -5.5412179    0.1615458  -10.0942810  
H   -8.6675124    0.2630385   -8.3166615  
H   -5.8183458    0.1765702   -5.0068977  
C    0.8681109    0.7263879    2.2709268  
C    0.6127770    0.5096195    3.5869401  
C   -0.4920590   -0.4175482    3.6542670  
C   -0.8620974   -0.7254003    2.2596025  
N    0.0000000    0.0000000    1.4700000  
C   -1.8641242   -1.5660088    1.8976294  
C   -2.6293522   -2.2103885    2.9520183  
O   -3.5512764   -2.9839180    2.7283916  
C   -2.2549728   -1.8987399    4.4361073  
O   -2.8923672   -2.4351063    5.3323774  
C   -1.1543735   -0.9755647    4.7012123  
H    1.1382914    0.9492124    4.4159191  
H   -2.1192137   -1.7782617    0.8686553  
H   -0.9013378   -0.7652422    5.7314848  
H    1.6172880    1.3558399    1.8188057  
