62

C    3.8878171   -0.7221148   -4.5427236  
C    3.9719337   -0.4862747   -5.8954138  
C    2.9171614    0.4147688   -6.2273415  
C    2.2168612    0.6962704   -5.0263989  
N    2.8310664   -0.0116219   -4.0232752  
C    1.1122536    1.5520021   -4.9778752  
C    0.7074032    2.1344024   -6.1632379  
O   -0.3652170    2.9784456   -6.1726998  
C    1.3930197    1.8656306   -7.3717527  
O    0.8682192    2.5214017   -8.4662354  
C    2.4826540    1.0213229   -7.4204129  
H    4.7028569   -0.9122317   -6.5612259  
H    0.5741181    1.7705381   -4.0658152  
H   -0.4758800    3.2691039   -7.0873239  
H    1.3885192    2.2856102   -9.2403773  
H    4.4971337   -1.3420430   -3.9076007  
C    3.3041274    0.0001177   -1.5420430  
C    2.5845373   -0.0004778   -0.3695855  
C    1.2040006   -0.0000008   -0.7283592  
C    1.1422375    0.0006035   -2.1454376  
N    2.4348638    0.0026109   -2.6077464  
C   -0.0655181    0.0008796   -2.8497921  
C   -1.2321767    0.0002321   -2.1101403  
O   -2.4392814    0.0001145   -2.7472524  
C   -1.1911210   -0.0000008   -0.6955263  
O   -2.4371527   -0.0002321   -0.1032858  
C    0.0000000    0.0000000    0.0000000  
H    3.0031536   -0.0000661    0.6222578  
H   -0.1193548    0.0014841   -3.9297472  
H   -3.1132988   -0.0000651   -2.0551785  
H   -2.3200279   -0.0004072    0.8516404  
H    4.3686625    0.0004071   -1.7024291  
C    4.2017925   -2.6327536   -9.2061112  
C    3.5922851   -1.7406101   -8.3835201  
C    3.6255208   -0.4610396   -9.0516740  
C    4.3092298   -0.6824396  -10.3402059  
N    4.6334418   -2.0191332  -10.3722544  
C    4.5398018    0.2842580  -11.2643470  
C    4.0843683    1.6328086  -10.9701917  
O    4.2446414    2.5723702  -11.7382009  
C    3.3581727    1.8901844   -9.6114412  
O    2.9705281    3.0215581   -9.3526260  
C    3.1675459    0.7677847   -8.6961645  
H    3.1680026   -1.9544508   -7.4187036  
H    5.0430771    0.1007189  -12.2034618  
H    4.3721434   -3.6868228   -9.0584337  
H    5.1084640   -2.4786029  -11.1274284  
C    2.5128556    2.1077716    2.9199648  
C    1.9592212    1.6432552    4.0696553  
C    0.8915788    0.7479214    3.6910360  
C    0.8684491    0.7287414    2.2159470  
N    1.8754542    1.5738793    1.8102719  
C    0.0000000    0.0000000    1.4700000  
C   -0.9772830   -0.8200135    2.1664417  
O   -1.8021297   -1.5120829    1.5842315  
C   -0.9711318   -0.8147624    3.7284083  
O   -1.7894187   -1.5009653    4.3257297  
C    0.0140216    0.0115358    4.4216297  
H    2.2638494    1.8988021    5.0689105  
H    0.0117648    0.0094386    5.5031631  
H    3.3327358    2.7953732    2.7900019  
H    2.1123206    1.7707734    0.8551938  
