62

C   -3.3029211    0.0892877   -1.5420422  
C   -2.5835780    0.0704120   -0.3695847  
C   -1.2035597    0.0325794   -0.7283587  
C   -1.1418363    0.0303039   -2.1454371  
N   -2.4340435    0.0632742   -2.6077458  
C    0.0654693   -0.0026525   -2.8497918  
C    1.2317189   -0.0335737   -2.1101405  
O    2.4383844   -0.0661186   -2.7472528  
C    1.1906851   -0.0322295   -0.6955268  
O    2.4362660   -0.0657144   -0.1032867  
C    0.0000000    0.0000000    0.0000000  
H   -3.0020517    0.0813274    0.6222589  
H   -2.7042803    0.0803135   -3.5745254  
H    0.1192705   -0.0047136   -3.9297473  
H    3.1121606   -0.0841772   -2.0551794  
H    2.3191907   -0.0623702    0.8516404  
C   -6.7722304    0.1869869    1.2764690  
C   -5.5061188    0.1525989    0.7395841  
C   -5.6552277    0.1540899   -0.6789942  
C   -7.0468095    0.1906842   -0.9511857  
N   -7.6963065    0.2079785    0.2581412  
C   -7.5632400    0.2024733   -2.2503967  
C   -6.6583858    0.1771609   -3.2938406  
O   -7.1084336    0.1875661   -4.5823909  
C   -5.2661677    0.1401477   -3.0424920  
O   -4.4952205    0.1178909   -4.1863846  
C   -4.7559941    0.1282250   -1.7610449  
H   -4.5880340    0.1281998    1.3012948  
H   -8.6227602    0.2301809   -2.4645249  
H   -6.3239714    0.1657351   -5.1457796  
H   -3.5687231    0.0934110   -3.9283014  
H   -7.0892746    0.1967561    2.3052287  
C   -9.1541409    0.2618630    0.4390135  
C   -9.8733596    0.2916588    1.5904965  
C  -11.2667799    0.3414674    1.2153527  
C  -11.3006453    0.3381949   -0.2596500  
N   -9.9879136    0.2893548   -0.6685996  
C  -12.4355367    0.3770272   -1.0027646  
C  -13.7086125    0.4254907   -0.3031481  
O  -14.7861386    0.4628242   -0.8826693  
C  -13.6964569    0.4300707    1.2587855  
O  -14.7621087    0.4709908    1.8587635  
C  -12.4097051    0.3852724    1.9487965  
H   -9.4733986    0.2802502    2.5887524  
H  -12.4383546    0.3737014   -2.0839169  
H  -12.4099669    0.3885553    3.0303293  
H   -9.6826475    0.2738134   -1.6244335  
C    2.5128556    2.1077716    2.9199648  
C    1.9592212    1.6432552    4.0696553  
C    0.8915788    0.7479214    3.6910360  
C    0.8684491    0.7287414    2.2159470  
N    1.8754542    1.5738793    1.8102719  
C    0.0000000    0.0000000    1.4700000  
C   -0.9772830   -0.8200135    2.1664417  
O   -1.8021297   -1.5120829    1.5842315  
C   -0.9711318   -0.8147624    3.7284083  
O   -1.7894187   -1.5009653    4.3257297  
C    0.0140216    0.0115358    4.4216297  
H    2.2638494    1.8988021    5.0689105  
H    0.0117648    0.0094386    5.5031631  
H    3.3327358    2.7953732    2.7900019  
H    2.1123206    1.7707734    0.8551938  
