62

C    0.0000000    0.0000000    0.0000000  
C    1.0521663   -0.0012127   -0.8862346  
C    0.4917212   -0.0012064   -2.1979133  
C   -0.9187434    0.0003342   -2.0478680  
N   -1.1833171   -0.0009162   -0.7007908  
C   -1.7951710    0.0010729   -3.1372085  
C   -1.2375850    0.0005485   -4.4010419  
O   -2.0474230    0.0015792   -5.4997574  
C    0.1673570   -0.0013603   -4.5711963  
O    0.5673506   -0.0020810   -5.8915549  
C    1.0325760   -0.0023636   -3.4969895  
H    2.0953057   -0.0031095   -0.6200566  
H   -2.0989776    0.0102817   -0.2891816  
H   -1.4634906    0.0006803   -6.2693587  
H    1.5290693   -0.0033481   -5.9180048  
H    2.1042133   -0.0040058   -3.6584461  
C   -4.5381977    2.1274406   -0.3186939  
C   -3.4269304    1.6642943   -0.9843118  
C   -3.8900347    0.7769882   -2.0005906  
C   -5.3047819    0.7381790   -1.9061929  
N   -5.6652817    1.5678631   -0.8735840  
C   -6.0984783   -0.0375960   -2.7564915  
C   -5.4522426   -0.7876255   -3.7198257  
O   -6.1790053   -1.5627449   -4.5765754  
C   -4.0415168   -0.7624072   -3.8295248  
O   -3.5480366   -1.5636289   -4.8384176  
C   -3.2578662    0.0024729   -2.9908496  
H   -2.4078036    1.9320821   -0.7637130  
H   -6.6070670    1.7501471   -0.5772828  
H   -5.5422054   -1.9964625   -5.1593607  
H   -2.5888607   -1.4891272   -4.8443287  
H   -4.6159210    2.8115573    0.5088947  
C   -8.3861076    0.9700910   -2.4228394  
C   -7.5649347   -0.0838674   -2.6655772  
C   -8.4065329   -1.2475633   -2.8151087  
C   -9.7952858   -0.7818251   -2.6383501  
N   -9.7140161    0.5713248   -2.4032541  
C  -10.8892033   -1.5820630   -2.7066771  
C  -10.6851602   -2.9964939   -2.9717932  
O  -11.6061377   -3.7987732   -3.0520996  
C   -9.2229056   -3.5116814   -3.1620570  
O   -9.0386947   -4.7005571   -3.3854412  
C   -8.1250132   -2.5528914   -3.0661109  
H  -11.8993825   -1.2202856   -2.5741454  
H   -7.1155737   -2.9176156   -3.1992753  
H   -8.1328986    2.0045342   -2.2563999  
H  -10.4986403    1.1763925   -2.2441765  
C    0.0000000    0.0000000    1.4700000  
C    1.0541688    0.0001722    2.3260392  
C    0.5103138    0.0000454    3.6635956  
C   -0.9576371   -0.0002459    3.5155732  
N   -1.2018458    0.0001392    2.1615969  
C   -1.8348311   -0.0008317    4.5510609  
C   -1.2972847   -0.0009736    5.9014604  
O   -2.0050672   -0.0014265    6.9001319  
C    0.2542623   -0.0004184    6.0817573  
O    0.7184670   -0.0002256    7.2139121  
C    1.0974552   -0.0000873    4.8889129  
H    2.0940752    0.0005483    2.0517982  
H   -2.9081052   -0.0011668    4.4207061  
H    2.1707277    0.0000911    5.0223670  
H   -2.1128194   -0.0014912    1.7406791  
