58

C    0.0000000    0.0000000    0.0000000  
C    1.0541692   -0.0001722   -0.8560386  
C    0.5103150   -0.0000454   -2.1935954  
C   -0.9576356    0.0002459   -2.0455736  
N   -1.2018452   -0.0001391   -0.6915975  
C   -1.8348293    0.0008316   -3.0810615  
C   -1.2972824    0.0009735   -4.4314612  
O   -2.0050651    0.0014266   -5.4301329  
C    0.2542647    0.0004185   -4.6117573  
O    0.7184698    0.0002256   -5.7439119  
C    1.0974569    0.0000873   -3.4189125  
H    2.0940756   -0.0005481   -0.5817975  
H   -2.9081034    0.0011666   -2.9507075  
H   -2.1128192    0.0014910   -0.2706800  
C    4.1988046   -2.1397334   -1.2302354  
C    5.3249615   -1.7327110   -1.8608563  
C    4.8655822   -0.8226612   -2.8987769  
C    3.3949154   -0.7961728   -2.7470484  
N    2.9982287   -1.5662363   -1.7705080  
C    2.5562231   -0.0001550   -3.6002995  
C    3.1593416    0.7362381   -4.5611886  
O    2.5001490    1.5244282   -5.4273658  
C    4.6413781    0.7309336   -4.7392315  
O    5.1220808    1.4254263   -5.6346787  
C    5.4799945   -0.0939017   -3.8513723  
H    6.3418228   -2.0150800   -1.6479317  
H    3.1961642    1.9162245   -5.9852281  
H    6.5493784   -0.0701165   -4.0128765  
C    7.0551661   -4.4959544    1.2504631  
C    6.5628722   -3.6610647    0.3059074  
C    5.1218430   -3.6774422    0.5050745  
C    4.9131860   -4.5996769    1.6419689  
N    6.0428759   -5.0825283    2.0831547  
C    3.6028015   -4.8903087    2.1553039  
C    2.5488098   -4.2867530    1.5601933  
O    1.2709530   -4.4661876    1.9355948  
C    2.7269220   -3.3507580    0.4111283  
O    1.7226410   -2.8373393   -0.0818638  
C    4.0811986   -3.0688825   -0.0972081  
H    7.1100442   -3.1029495   -0.4344885  
H    3.4796379   -5.5683976    2.9871310  
H    0.7532590   -3.9077286    1.3279192  
H    8.0853276   -4.7558746    1.4353445  
C    1.1319247   -0.0015655    2.2709268  
C    0.7969915   -0.0034943    3.5869401  
C   -0.6453339   -0.0035710    3.6542670  
C   -1.1266833   -0.0015433    2.2596025  
N    0.0000000    0.0000000    1.4700000  
C   -2.4346130   -0.0013964    1.8976294  
C   -3.4350110   -0.0031408    2.9520183  
O   -4.6384611   -0.0030974    2.7283916  
C   -2.9478959   -0.0050506    4.4361073  
O   -3.7809380   -0.0062218    5.3323774  
C   -1.5113823   -0.0053090    4.7012123  
H    1.4821238   -0.0045407    4.4159191  
H   -2.7664565   -0.0000232    0.8686553  
H   -1.1823530   -0.0068408    5.7314848  
H    2.1104316   -0.0009391    1.8188057  
