58

C    0.0829417   -3.2367053  -10.2898192  
C   -0.0849707   -2.5230829  -11.4328958  
C   -0.3146460   -1.1518616  -11.0432342  
C   -0.2664016   -1.1249206   -9.5688730  
N   -0.0224442   -2.4201168   -9.1741061  
C   -0.4370037   -0.0099613   -8.8142440  
C   -0.6848886    1.2474054   -9.4998964  
O   -0.8515728    2.3065452   -8.9093540  
C   -0.7403632    1.2421982  -11.0608896  
O   -0.9486924    2.2947187  -11.6491577  
C   -0.5410313   -0.0225774  -11.7640697  
H   -0.0519103   -2.9128151  -12.4347088  
H   -0.5807563   -0.0176041  -12.8448660  
H    0.2745939   -4.2904935  -10.1686151  
H    0.0674278   -2.7248392   -8.2222056  
C    2.1650265   -2.1089225   -5.9297630  
C    1.5723604   -1.6445161   -7.0598730  
C    0.5184572   -0.7489600   -6.6450207  
C    0.5459257   -0.7295296   -5.1700093  
N    1.5661286   -1.5747494   -4.7989582  
C   -0.2963293   -0.0005341   -4.3948471  
C   -1.2968019    0.8195082   -5.0575088  
O   -2.1011000    1.5117978   -4.4474755  
C   -1.3442162    0.8139947   -6.6187666  
O   -2.1824061    1.5002193   -7.1877951  
C   -0.3835313   -0.0125662   -7.3452196  
H    1.8425077   -1.9002757   -8.0689424  
H    2.9887828   -2.7966241   -5.8278727  
H    1.8355782   -1.7715191   -3.8525301  
C    3.1301146   -0.0010313   -1.7028256  
C    2.5367765   -0.0002766   -0.4864669  
C    1.1089901    0.0001027   -0.7656184  
C    1.0177865   -0.0004150   -2.2415133  
N    2.1993571   -0.0011612   -2.7963824  
C   -0.2459219   -0.0002879   -2.9257116  
C   -1.3675326   -0.0000606   -2.1698520  
O   -2.6129318    0.0000865   -2.6748483  
C   -1.3083588    0.0000910   -0.6783229  
O   -2.3693264    0.0004206   -0.0541685  
C    0.0000000    0.0000000    0.0000000  
H    3.0096016   -0.0001007    0.4807518  
H   -3.1967444    0.0002093   -1.8949026  
H    4.1849275   -0.0015114   -1.9271979  
C    0.8681109    0.7263879    2.2709268  
C    0.6127770    0.5096195    3.5869401  
C   -0.4920590   -0.4175482    3.6542670  
C   -0.8620974   -0.7254003    2.2596025  
N    0.0000000    0.0000000    1.4700000  
C   -1.8641242   -1.5660088    1.8976294  
C   -2.6293522   -2.2103885    2.9520183  
O   -3.5512764   -2.9839180    2.7283916  
C   -2.2549728   -1.8987399    4.4361073  
O   -2.8923672   -2.4351063    5.3323774  
C   -1.1543735   -0.9755647    4.7012123  
H    1.1382914    0.9492124    4.4159191  
H   -2.1192137   -1.7782617    0.8686553  
H   -0.9013378   -0.7652422    5.7314848  
H    1.6172880    1.3558399    1.8188057  
