58

C    0.0072365   -0.7172700   -5.1312248  
C    0.1641333   -0.4988117   -6.4622900  
C   -0.8688542    0.4276950   -6.8614858  
C   -1.6459761    0.7333178   -5.6451523  
N   -1.0641729    0.0073888   -4.6315341  
C   -2.7115371    1.5727277   -5.6042187  
C   -3.1204207    2.2180775   -6.8406948  
O   -4.0675155    2.9906594   -6.9072573  
C   -2.3119544    1.9087878   -8.1408974  
O   -2.6470496    2.4459876   -9.1879827  
C   -1.1818733    0.9867416   -8.0596605  
H    0.9174093   -0.9368705   -7.0926027  
H   -3.2678034    1.7833478   -4.7013802  
H    0.5840379   -1.3468501   -4.4733345  
C    1.1319245    0.0015676   -0.8009266  
C    0.7969918    0.0034958   -2.1169401  
C   -0.6453336    0.0035698   -2.1842670  
C   -1.1266830    0.0015411   -0.7896029  
N    0.0000000    0.0000000    0.0000000  
C   -2.4346131    0.0013918   -0.4276298  
C   -3.4350111    0.0031343   -1.4820188  
O   -4.6384610    0.0030885   -1.2583924  
C   -2.9478953    0.0050447   -2.9661079  
O   -3.7809377    0.0062145   -3.8623779  
C   -1.5113819    0.0053060   -3.2312128  
H    1.4821243    0.0045434   -2.9459189  
H   -2.7664570    0.0000181    0.6013443  
H    2.1104314    0.0009432   -0.3488054  
C    0.0587120   -0.5063093   -9.6695523  
C   -0.4279348    0.7030958   -9.2893038  
C   -0.0628710    1.6466040  -10.3195252  
C    0.6816636    0.8822557  -11.3384610  
N    0.7206955   -0.4159667  -10.8846058  
C    1.1982532    1.4156132  -12.4744054  
C    1.0084756    2.8373997  -12.7090173  
O    1.4357717    3.4115026  -13.7020560  
C    0.2232810    3.6663310  -11.6431143  
O    0.0574877    4.8642396  -11.8296273  
C   -0.2861403    2.9796114  -10.4587336  
H    1.7410873    0.8372499  -13.2090729  
H   -0.8289096    3.5606746   -9.7255953  
H   -0.0103729   -1.4559403   -9.1642623  
H    1.1604052   -1.1804810  -11.3633763  
C    0.0000000    0.0000000    1.4700000  
C    1.0662921    0.0000102    2.3034270  
C    0.4961870   -0.0000064    3.6418889  
C   -0.9663858    0.0000850    3.4240247  
N   -1.2632773    0.0000084    2.1528658  
C   -1.8985362    0.0000517    4.5177257  
C   -1.3925775   -0.0004564    5.7720543  
O   -2.1456383   -0.0005410    6.8851312  
C    0.0786232   -0.0009323    6.0245000  
O    0.4683759   -0.0012588    7.1921102  
C    1.0143166   -0.0008442    4.8859032  
H    2.1107198   -0.0000632    2.0421868  
H   -2.9622183    0.0003270    4.3293377  
H   -1.5042274   -0.0009692    7.6184419  
H    2.0724152   -0.0013148    5.1109744  
