62

C   -1.7667978    2.7920742   -1.5420440  
C   -1.3815337    2.1843068   -0.3695856  
C   -0.6437715    1.0174357   -0.7283591  
C   -0.6112572    0.9649193   -2.1454373  
N   -1.3041138    2.0561740   -2.6077472  
C    0.0342904   -0.0558365   -2.8497916  
C    0.6586430   -1.0413694   -2.1101392  
O    1.3041753   -2.0613650   -2.7472509  
C    0.6368872   -1.0065512   -0.6955255  
O    1.3033290   -2.0593803   -0.1032852  
C    0.0000000    0.0000000    0.0000000  
H   -1.6057143    2.5378363    0.6222576  
H    0.0625658   -0.1016540   -3.9297466  
H    1.6647201   -2.6308444   -2.0551776  
H    1.2408506   -1.9603110    0.8516423  
H   -2.3362436    3.6914998   -1.7024306  
C   -1.2418396    5.9509929   -4.8023240  
C   -1.1846371    4.9823897   -3.8271303  
C   -1.4310110    3.7318303   -4.4674439  
C   -1.6330488    4.0022979   -5.8451066  
N   -1.5132752    5.3594298   -6.0138209  
C   -1.9015279    2.9991957   -6.7813188  
C   -1.9669475    1.6993459   -6.3184059  
O   -2.2258070    0.6811664   -7.1897924  
C   -1.7685654    1.4094806   -4.9474790  
O   -1.8657652    0.0673054   -4.6434024  
C   -1.5039332    2.3985931   -4.0232755  
H   -0.9904410    5.1559563   -2.7825464  
H   -1.5965202    5.8450884   -6.8885708  
H   -2.0566084    3.1987947   -7.8326568  
H   -2.2278043   -0.1314499   -6.6673791  
H   -1.7190636   -0.0419606   -3.6988690  
C   -1.0644264    7.4068383   -4.7026268  
C   -0.7962891    8.1399853   -3.5971062  
C   -0.7243456    9.5148849   -4.0671857  
C   -0.9803575    9.4256473   -5.5208291  
N   -1.1804970    8.1924234   -5.8991041  
C   -0.9948570   10.5894674   -6.3636799  
C   -0.7644721   11.7879995   -5.7807726  
O   -0.7485437   12.9555209   -6.4461157  
C   -0.5033077   11.9107804   -4.3162320  
O   -0.3014698   13.0334622   -3.8535578  
C   -0.4936163   10.7021840   -3.4729499  
H   -0.6637835    7.7909072   -2.5873225  
H   -1.1844552   10.4948921   -7.4229331  
H   -0.5596786   13.6263233   -5.7653024  
H   -0.3006594   10.8335942   -2.4166693  
C    2.5128556    2.1077716    2.9199648  
C    1.9592212    1.6432552    4.0696553  
C    0.8915788    0.7479214    3.6910360  
C    0.8684491    0.7287414    2.2159470  
N    1.8754542    1.5738793    1.8102719  
C    0.0000000    0.0000000    1.4700000  
C   -0.9772830   -0.8200135    2.1664417  
O   -1.8021297   -1.5120829    1.5842315  
C   -0.9711318   -0.8147624    3.7284083  
O   -1.7894187   -1.5009653    4.3257297  
C    0.0140216    0.0115358    4.4216297  
H    2.2638494    1.8988021    5.0689105  
H    0.0117648    0.0094386    5.5031631  
H    3.3327358    2.7953732    2.7900019  
H    2.1123206    1.7707734    0.8551938  
