62

C   -3.3039187    0.0371450   -1.5420422  
C   -2.5843676    0.0296254   -0.3695845  
C   -1.2039244    0.0135790   -0.7283586  
C   -1.1421724    0.0122780   -2.1454371  
N   -2.4347393    0.0248487   -2.6077460  
C    0.0655031   -0.0016186   -2.8497917  
C    1.2320950   -0.0141285   -2.1101403  
O    2.4391243   -0.0276240   -2.7472529  
C    1.1910451   -0.0134322   -0.6955268  
O    2.4370003   -0.0272533   -0.1032870  
C    0.0000000    0.0000000    0.0000000  
H   -3.0029617    0.0339345    0.6222590  
H   -2.7052112    0.0376206   -3.5745253  
H    0.1193298   -0.0028304   -3.9297476  
H    3.1131015   -0.0350458   -2.0551796  
H    2.3198863   -0.0257573    0.8516402  
C   -6.6796741    0.0786716    1.2661404  
C   -7.7088159    0.0889356    0.3802301  
C   -7.1268895    0.0808264   -0.9411827  
C   -5.6638733    0.0648532   -0.7511336  
N   -5.4585738    0.0647035    0.6092859  
C   -4.7574256    0.0531429   -1.7610447  
C   -5.2560250    0.0567210   -3.1262998  
O   -4.5199627    0.0470375   -4.1042669  
C   -6.8016704    0.0738140   -3.3510068  
O   -7.2332125    0.0772722   -4.4960041  
C   -7.6786451    0.0851466   -2.1828287  
H   -8.7475871    0.0967511   -2.3469990  
H   -6.7105622    0.0803534    2.3436064  
H   -4.5601073    0.0538548    1.0561503  
C   -9.7167950    0.8318486    1.7302618  
C   -9.1402873    0.1054427    0.7141709  
C  -10.1900173   -0.6122263    0.0679373  
C  -11.3950428   -0.2810136    0.7388609  
N  -11.0716719    0.5963308    1.7440053  
C  -12.6362020   -0.8073678    0.3683689  
C  -12.6613951   -1.6838144   -0.6990507  
O  -13.8466685   -2.2269439   -1.1029714  
C  -11.4696546   -2.0268287   -1.3808949  
O  -11.6599525   -2.9119167   -2.4219279  
C  -10.2448309   -1.5081599   -1.0157704  
H  -11.7245496    1.0136601    2.3824163  
H  -13.5582241   -0.5590335    0.8757226  
H  -13.6423430   -2.8021865   -1.8517118  
H  -10.8066948   -3.0909637   -2.8287412  
H   -9.3489758   -1.7895440   -1.5568292  
H   -9.2685272    1.4982150    2.4471793  
C    2.5128556    2.1077716    2.9199648  
C    1.9592212    1.6432552    4.0696553  
C    0.8915788    0.7479214    3.6910360  
C    0.8684491    0.7287414    2.2159470  
N    1.8754542    1.5738793    1.8102719  
C    0.0000000    0.0000000    1.4700000  
C   -0.9772830   -0.8200135    2.1664417  
O   -1.8021297   -1.5120829    1.5842315  
C   -0.9711318   -0.8147624    3.7284083  
O   -1.7894187   -1.5009653    4.3257297  
C    0.0140216    0.0115358    4.4216297  
H    2.2638494    1.8988021    5.0689105  
H    0.0117648    0.0094386    5.5031631  
H    3.3327358    2.7953732    2.7900019  
H    2.1123206    1.7707734    0.8551938  
