62

C    1.1188644    0.0008220   -0.8003805  
C    0.0000000    0.0000000    0.0000000  
C   -1.1323861    0.0008897   -0.8673528  
C   -0.6382658    0.0019676   -2.1969280  
N    0.7324021    0.0038479   -2.1202235  
C   -1.4770908    0.0027313   -3.3154810  
C   -2.8395468    0.0020939   -3.0876860  
O   -3.7039193    0.0024420   -4.1440354  
C   -3.3517864    0.0013925   -1.7684331  
O   -4.7300488    0.0012361   -1.7073129  
C   -2.5248543    0.0009122   -0.6644820  
H    1.3576321   -0.0056170   -2.9057040  
H   -4.5940021    0.0021818   -3.7685138  
H   -4.9934598    0.0007257   -0.7819921  
H   -2.9462577    0.0005601    0.3339650  
H    2.1619891    0.0009354   -0.5342067  
C    1.9333069   -2.1182746   -5.2802154  
C    1.0133391   -1.6572496   -4.3672080  
C    0.1426192   -0.7691975   -5.0656425  
C    0.5838558   -0.7277679   -6.4130548  
N    1.6740003   -1.5566766   -6.5085135  
C   -0.0442374    0.0493809   -7.3909748  
C   -1.1378605    0.7981152   -7.0016649  
O   -1.7887531    1.5744837   -7.9163250  
C   -1.5929370    0.7702823   -5.6619077  
O   -2.6929646    1.5704859   -5.4317842  
C   -0.9736287    0.0040457   -4.6965766  
H    0.9752628   -1.9268942   -3.3256538  
H    2.1940570   -1.7371913   -7.3481186  
H   -2.5111336    2.0069650   -7.4426253  
H   -2.9358036    1.4942139   -4.5039824  
H    2.7547995   -2.8021595   -5.1521113  
C    1.4038756   -3.1361522   -9.9876735  
C    1.6580880   -2.4717827  -11.1390077  
C    1.3077067   -1.0878905  -10.8586953  
C    0.8476828   -1.0972044   -9.4533929  
N    0.9018883   -2.2950927   -8.9375298  
C    0.4064048    0.0983676   -8.7893386  
C    0.4242591    1.2509231   -9.4968918  
O    0.0402257    2.4405254   -9.0035304  
C    0.8833534    1.2928162  -10.9166239  
O    0.8728381    2.3769421  -11.4995312  
C    1.3311547    0.0529783  -11.5755632  
H    2.0367082   -2.8714439  -12.0642057  
H    0.1656619    3.0663720   -9.7395570  
H    1.6562279    0.1255446  -12.6047814  
H    1.5335190   -4.1873877   -9.7850166  
C    0.0000000    0.0000000    1.4700000  
C    1.0541688    0.0001722    2.3260392  
C    0.5103138    0.0000454    3.6635956  
C   -0.9576371   -0.0002459    3.5155732  
N   -1.2018458    0.0001392    2.1615969  
C   -1.8348311   -0.0008317    4.5510609  
C   -1.2972847   -0.0009736    5.9014604  
O   -2.0050672   -0.0014265    6.9001319  
C    0.2542623   -0.0004184    6.0817573  
O    0.7184670   -0.0002256    7.2139121  
C    1.0974552   -0.0000873    4.8889129  
H    2.0940752    0.0005483    2.0517982  
H   -2.9081052   -0.0011668    4.4207061  
H    2.1707277    0.0000911    5.0223670  
H   -2.1128194   -0.0014912    1.7406791  
