58

C    1.7720688   -2.0859335   -5.3149821  
C    0.8968264   -1.6247192   -4.3847633  
C   -0.0065338   -0.7270827   -5.0652222  
C    0.4171840   -0.7029978   -6.4782597  
N    1.5002593   -1.5471467   -6.5634081  
C   -0.1857668    0.0284589   -7.4494061  
C   -1.3281509    0.8467743   -7.0781197  
O   -1.9388961    1.5411255   -7.8800975  
C   -1.7940050    0.8367266   -5.5872527  
O   -2.7544408    1.5219332   -5.2627290  
C   -1.0641734    0.0073898   -4.6315339  
H    0.8854566   -1.8836207   -3.3409936  
H    0.1408069    0.0318498   -8.4800605  
H    2.5929129   -2.7739334   -5.1934838  
C    3.2138091   -5.2719890   -8.1358694  
C    3.7523166   -4.8017726   -9.2904171  
C    3.4645007   -3.3878668   -9.3439744  
C    2.7087782   -3.0706183   -8.1171792  
N    2.5901770   -4.2555933   -7.4282244  
C    2.2512042   -1.8345383   -7.7940133  
C    2.5208485   -0.7438635   -8.7161050  
O    2.1507087    0.4054031   -8.5148999  
C    3.3192616   -1.0570258  -10.0215834  
O    3.5520378   -0.1468752  -10.8056127  
C    3.7604113   -2.4290217  -10.2600482  
H    4.2896675   -5.3795014  -10.0212373  
H    4.3128353   -2.6374776  -11.1661929  
H    3.2198845   -6.2755579   -7.7425471  
H    2.1242908   -4.3648018   -6.5461410  
C    1.1319248    0.0015675   -0.8009270  
C    0.7969916    0.0034959   -2.1169404  
C   -0.6453336    0.0035703   -2.1842672  
C   -1.1266831    0.0015415   -0.7896027  
N    0.0000000    0.0000000    0.0000000  
C   -2.4346129    0.0013924   -0.4276297  
C   -3.4350110    0.0031352   -1.4820184  
O   -4.6384610    0.0030897   -1.2583919  
C   -2.9478958    0.0050460   -2.9661075  
O   -3.7809377    0.0062160   -3.8623775  
C   -1.5113821    0.0053068   -3.2312125  
H    1.4821240    0.0045436   -2.9459192  
H   -2.7664565    0.0000185    0.6013447  
H    2.1104318    0.0009428   -0.3488058  
C    2.5128556    2.1077716    2.9199648  
C    1.9592212    1.6432552    4.0696553  
C    0.8915788    0.7479214    3.6910360  
C    0.8684491    0.7287414    2.2159470  
N    1.8754542    1.5738793    1.8102719  
C    0.0000000    0.0000000    1.4700000  
C   -0.9772830   -0.8200135    2.1664417  
O   -1.8021297   -1.5120829    1.5842315  
C   -0.9711318   -0.8147624    3.7284083  
O   -1.7894187   -1.5009653    4.3257297  
C    0.0140216    0.0115358    4.4216297  
H    2.2638494    1.8988021    5.0689105  
H    0.0117648    0.0094386    5.5031631  
H    3.3327358    2.7953732    2.7900019  
H    2.1123206    1.7707734    0.8551938  
