62

C    1.1188644    0.0008220   -0.8003805  
C    0.0000000    0.0000000    0.0000000  
C   -1.1323861    0.0008897   -0.8673528  
C   -0.6382658    0.0019676   -2.1969280  
N    0.7324021    0.0038479   -2.1202235  
C   -1.4770908    0.0027313   -3.3154810  
C   -2.8395468    0.0020939   -3.0876860  
O   -3.7039193    0.0024420   -4.1440354  
C   -3.3517864    0.0013925   -1.7684331  
O   -4.7300488    0.0012361   -1.7073129  
C   -2.5248543    0.0009122   -0.6644820  
H    1.3576321   -0.0056170   -2.9057040  
H   -4.5940021    0.0021818   -3.7685138  
H   -4.9934598    0.0007257   -0.7819921  
H   -2.9462577    0.0005601    0.3339650  
H    2.1619891    0.0009354   -0.5342067  
C    1.9333069   -2.1182746   -5.2802154  
C    1.0133391   -1.6572496   -4.3672080  
C    0.1426192   -0.7691975   -5.0656425  
C    0.5838558   -0.7277679   -6.4130548  
N    1.6740003   -1.5566766   -6.5085135  
C   -0.0442374    0.0493809   -7.3909748  
C   -1.1378605    0.7981152   -7.0016649  
O   -1.7887531    1.5744837   -7.9163250  
C   -1.5929370    0.7702823   -5.6619077  
O   -2.6929646    1.5704859   -5.4317842  
C   -0.9736287    0.0040457   -4.6965766  
H    0.9752628   -1.9268942   -3.3256538  
H    2.1940570   -1.7371913   -7.3481186  
H   -2.5111336    2.0069650   -7.4426253  
H   -2.9358036    1.4942139   -4.5039824  
H    2.7547995   -2.8021595   -5.1521113  
C    1.4430323   -3.0569570  -10.1541483  
C    0.9633593   -2.3873244   -9.0745274  
C    0.8328058   -1.0025115   -9.4619348  
C    1.2789098   -0.9196660  -10.8658278  
N    1.6359470   -2.1986187  -11.2259591  
C    1.3063222    0.2228140  -11.5977390  
C    0.8673579    1.4529998  -10.9601743  
O    0.8548300    2.5335187  -11.5351725  
C    0.3910146    1.3886688   -9.4739832  
O    0.0194595    2.4180011   -8.9265506  
C    0.4064048    0.0983676   -8.7893386  
H    0.7280338   -2.8146639   -8.1160822  
H    1.6370731    0.2618426  -12.6263254  
H    1.6720313   -4.1052381  -10.2568928  
H    1.9813398   -2.4674731  -12.1289914  
C    0.8400945    0.7047457    2.2710304  
C    0.0000000    0.0000000    1.4700000  
C   -0.8844236   -0.7423113    2.3369512  
C   -0.4878984   -0.4098547    3.7186280  
N    0.5629682    0.4714286    3.6095011  
C   -1.0836927   -0.9095027    4.8308716  
C   -2.1891196   -1.8367527    4.6554461  
O   -2.7906899   -2.3413415    5.5944904  
C   -2.6257283   -2.2031529    3.2011665  
O   -3.5549479   -2.9829990    3.0410059  
C   -1.9068976   -1.5999348    2.0816745  
H   -0.7774656   -0.6525820    5.8354244  
H   -2.2155208   -1.8586617    1.0779135  
H    1.6384792    1.3747609    1.9961646  
H    1.0518368    0.8833920    4.3830260  
