58

C    5.1465027   -4.3855623   -6.8804452  
C    4.0733352   -3.5757446   -6.6891766  
C    3.7284678   -3.6574145   -5.2894508  
C    4.6956390   -4.5878427   -4.6765294  
N    5.5276348   -4.9940777   -5.6941958  
C    4.7062138   -4.9312033   -3.3636331  
C    3.6975809   -4.3454469   -2.4964045  
O    3.6236976   -4.5916874   -1.2996556  
C    2.6631378   -3.3577182   -3.1241974  
O    1.8090984   -2.8585453   -2.4039868  
C    2.7528554   -3.0647961   -4.5524827  
H    3.5795378   -2.9883656   -7.4426772  
H    5.4246000   -5.6155611   -2.9341165  
H    5.6908793   -4.5891811   -7.7882348  
H    6.2949107   -5.6325289   -5.5906735  
C    1.7744462   -2.1336756   -5.1326812  
C    1.6746901   -1.7240756   -6.4187042  
C    0.5405880   -0.8130115   -6.4352721  
C    0.0614873   -0.7888181   -5.0365368  
N    0.7809199   -1.5609927   -4.2683232  
C   -1.0641734    0.0073898   -4.6315339  
C   -1.6828412    0.7461574   -5.5806429  
O   -2.7449529    1.5348090   -5.3440238  
C   -1.2228405    0.7432055   -7.0006961  
O   -1.8334839    1.4397974   -7.8113104  
C   -0.0658199   -0.0818749   -7.3911696  
H    2.2942502   -2.0053647   -7.2530297  
H   -2.9590931    1.9284671   -6.2090843  
H    0.2361347   -0.0563396   -8.4296300  
C    1.1319248    0.0015675   -0.8009270  
C    0.7969916    0.0034959   -2.1169404  
C   -0.6453336    0.0035703   -2.1842672  
C   -1.1266831    0.0015415   -0.7896027  
N    0.0000000    0.0000000    0.0000000  
C   -2.4346129    0.0013924   -0.4276297  
C   -3.4350110    0.0031352   -1.4820184  
O   -4.6384610    0.0030897   -1.2583919  
C   -2.9478958    0.0050460   -2.9661075  
O   -3.7809377    0.0062160   -3.8623775  
C   -1.5113821    0.0053068   -3.2312125  
H    1.4821240    0.0045436   -2.9459192  
H   -2.7664565    0.0000185    0.6013447  
H    2.1104318    0.0009428   -0.3488058  
C    0.0000000    0.0000000    1.4700000  
C    1.0662921    0.0000102    2.3034270  
C    0.4961870   -0.0000064    3.6418889  
C   -0.9663858    0.0000850    3.4240247  
N   -1.2632773    0.0000084    2.1528658  
C   -1.8985362    0.0000517    4.5177257  
C   -1.3925775   -0.0004564    5.7720543  
O   -2.1456383   -0.0005410    6.8851312  
C    0.0786232   -0.0009323    6.0245000  
O    0.4683759   -0.0012588    7.1921102  
C    1.0143166   -0.0008442    4.8859032  
H    2.1107198   -0.0000632    2.0421868  
H   -2.9622183    0.0003270    4.3293377  
H   -1.5042274   -0.0009692    7.6184419  
H    2.0724152   -0.0013148    5.1109744  
