58

C    6.2756095   -3.2573147   -9.0471154  
C    6.5941320   -2.5205720  -10.1424818  
C    6.2113829   -1.1575158   -9.8589045  
C    5.6396913   -1.1605623   -8.4987749  
N    5.7074138   -2.4635588   -8.0623086  
C    5.1604424   -0.0611451   -7.8637113  
C    5.2108634    1.2099439   -8.5667935  
O    4.8041193    2.2568884   -8.0802067  
C    5.8119588    1.2364822  -10.0082462  
O    5.8593893    2.3007809  -10.6101427  
C    6.2970912   -0.0137708  -10.5873541  
H    7.0455149   -2.8898621  -11.0460809  
H    6.7120093    0.0131808  -11.5857737  
H    6.4079590   -4.3133823   -8.8765430  
H    5.3943547   -2.7875860   -7.1656214  
C    6.1745030   -2.1408798   -4.0544033  
C    6.2180775   -1.7334918   -5.3442539  
C    5.0926412   -0.8229053   -5.4882168  
C    4.4611851   -0.7965392   -4.1513731  
N    5.0910257   -1.5671311   -3.3066964  
C    3.2973506   -0.0000934   -3.8752374  
C    2.7877448    0.7368256   -4.8884437  
O    1.7057652    1.5254556   -4.7725803  
C    3.4025818    0.7316575   -6.2486310  
O    2.8855808    1.4266381   -7.1232352  
C    4.5959747   -0.0936239   -6.5067949  
H    6.9265058   -2.0159442   -6.1041390  
H    1.5889234    1.9175676   -5.6567462  
H    6.8407164   -2.8229591   -3.5505178  
C    3.3321174    0.0004714   -1.3379332  
C    2.6974186    0.0000115   -2.5332308  
C    1.2800441   -0.0002119   -2.2052838  
C    1.2395035    0.0000643   -0.7271293  
N    2.4394063    0.0005458   -0.2131034  
C    0.0000000    0.0000000    0.0000000  
C   -1.1468701    0.0000634   -0.7169542  
O   -2.3742201    0.0000072   -0.1695492  
C   -1.1388767    0.0001606   -2.2096354  
O   -2.2206229    0.0000903   -2.7970413  
C    0.1454526    0.0001815   -2.9324239  
H   -2.9844344    0.0001023   -0.9290168  
H    0.1083580    0.0003680   -4.0135594  
H    4.3940040    0.0007617   -1.1498630  
C    2.3971438    2.0127888    3.1728260  
C    1.9431056    1.6308205    1.9564670  
C    0.8496017    0.7127664    2.2356185  
C    0.7794028    0.6545384    3.7115134  
N    1.6840587    1.4146091    4.2663826  
C   -0.1885723   -0.1578550    4.3957118  
C   -1.0476298   -0.8789867    3.6398520  
O   -2.0015663   -1.6796266    4.1448486  
C   -1.0022026   -0.8410666    2.1483229  
O   -1.8147390   -1.5232959    1.5241687  
C    0.0000000    0.0000000    1.4700000  
H    2.3054237    1.9346118    0.9892483  
H   -0.2170646   -0.1815267    5.4753125  
H   -2.4487139   -2.0549881    3.3649027  
H    3.2048689    2.6911772    3.3971983  
