60

C    0.0000000    0.0000000    0.0000000  
C    1.0521658   -0.0011900   -0.8862345  
C    0.4917204   -0.0011956   -2.1979132  
C   -0.9187443    0.0003149   -2.0478678  
N   -1.1833182   -0.0009411   -0.7007907  
C   -1.7951716    0.0010350   -3.1372081  
C   -1.2375858    0.0005226   -4.4010417  
O   -2.0474243    0.0015365   -5.4997570  
C    0.1673557   -0.0013566   -4.5711965  
O    0.5673496   -0.0020684   -5.8915554  
C    1.0325749   -0.0023412   -3.4969894  
H    2.0953048   -0.0030647   -0.6200571  
H   -2.0989779    0.0102370   -0.2891817  
H   -2.8710946    0.0020420   -3.0295503  
H   -1.4634916    0.0006500   -6.2693587  
H    1.5290680   -0.0033148   -5.9180054  
C    4.2912341   -2.1142471   -1.4465426  
C    5.3462911   -1.6514995   -2.1654266  
C    4.8141488   -0.7556973   -3.1650258  
C    3.3521058   -0.7343149   -2.9681414  
N    3.0997468   -1.5787546   -1.9116728  
C    2.4861682   -0.0045381   -3.7159931  
C    3.0304393    0.8143457   -4.7863828  
O    2.3328532    1.5072096   -5.5155011  
C    4.5758813    0.8067608   -5.0130038  
O    5.0456306    1.4919964   -5.9113627  
C    5.4069261   -0.0204838   -4.1418643  
H    6.3794036   -1.9085118   -2.0129893  
H    6.4760553   -0.0200030   -4.3052258  
H    2.1903294   -1.7741997   -1.5350987  
C    7.5884588   -4.1673750    0.5284183  
C    6.9486099   -4.8792487    1.4851877  
C    5.5401541   -4.5583961    1.3125439  
C    5.5098863   -3.6128671    0.1760393  
N    6.7076246   -3.3799133   -0.2877986  
C    4.2811812   -3.0515971   -0.3142113  
C    3.1347864   -3.4185406    0.3026078  
O    1.9169477   -2.9728353   -0.0498922  
C    3.1325246   -4.3710568    1.4518982  
O    2.0518469   -4.6604172    1.9653437  
C    4.4058792   -4.9330538    1.9363076  
H    7.3792136   -5.5405004    2.2175828  
H    1.3043954   -3.4091537    0.5694291  
H    4.3615467   -5.6196663    2.7710702  
H    8.6466183   -4.1312579    0.3235569  
C    3.2798086   -0.0005857    2.9199648  
C    2.5571146   -0.0005566    4.0696553  
C    1.1637436   -0.0001548    3.6910360  
C    1.1336965    0.0000200    2.2159470  
N    2.4483514    0.0001428    1.8102719  
C    0.0000000    0.0000000    1.4700000  
C   -1.2757367    0.0000186    2.1664417  
O   -2.3524596    0.0000640    1.5842315  
C   -1.2676493    0.0000873    3.7284083  
O   -2.3355761    0.0004100    4.3257297  
C    0.0181563   -0.0001760    4.4216297  
H    2.9547357   -0.0006076    5.0689105  
H    0.0150794   -0.0003319    5.5031631  
H    4.3498549   -0.0008612    2.7900019  
H    2.7563627   -0.0012824    0.8551938  
