62

C    1.1243401    0.0100483   -0.7919007  
C    0.7474053    0.0234914   -2.1148547  
C   -0.6787405    0.0234146   -2.1414695  
C   -1.1201753    0.0098030   -0.7935540  
N    0.0000000    0.0000000    0.0000000  
C   -2.4730825    0.0062471   -0.4408226  
C   -3.3971975    0.0169279   -1.4675047  
O   -4.7313530    0.0143892   -1.1793449  
C   -2.9763681    0.0302012   -2.8186308  
O   -4.0166516    0.0393103   -3.7247604  
C   -1.6418596    0.0334433   -3.1673474  
H   -2.8160158   -0.0042520    0.5845977  
H   -5.1938843    0.0228267   -2.0274355  
H   -3.6464720    0.0480461   -4.6127323  
H   -1.3497512    0.0435186   -4.2109226  
H    2.1062461    0.0053870   -0.3505415  
C    2.8388809   -0.6742549   -3.3474595  
C    3.4422633   -0.4126037   -4.5557374  
C    2.5990617    0.5027998   -5.2526214  
C    1.4867033    0.7660554   -4.4128112  
N    1.6628917    0.0339729   -3.2649308  
C    0.4496687    1.6290828   -4.7795968  
C    0.5372983    2.2376732   -6.0165759  
O   -0.4477113    3.0899068   -6.4245804  
C    1.6390661    1.9874050   -6.8688026  
O    1.5808034    2.6684852   -8.0671677  
C    2.6623526    1.1359161   -6.5077242  
H    4.3748212   -0.8310021   -4.8937789  
H   -0.4009138    1.8338089   -4.1441454  
H   -0.1941610    3.3992672   -7.3039399  
H    2.3613307    2.4439419   -8.5828817  
H    3.1536194   -1.3111443   -2.5385896  
C    5.0896015   -2.4027903   -7.7120763  
C    4.1583142   -1.6341290   -7.1009757  
C    4.3749469   -0.2944655   -7.6252577  
C    5.5065205   -0.4408092   -8.5658458  
N    5.9296053   -1.6744816   -8.6209961  
C    6.0333256    0.6753654   -9.3018608  
C    5.4556848    1.8827760   -9.1073711  
O    5.8450548    3.0096985   -9.7274333  
C    4.3119384    2.0625842   -8.1652061  
O    3.8352604    3.1902915   -8.0376348  
C    3.7895901    0.9022014   -7.4218426  
H    3.4159656   -1.9386348   -6.3831520  
H    6.8611379    0.5395919   -9.9824498  
H    5.2480009    3.6996231   -9.3858447  
H    5.2596286   -3.4609990   -7.5926681  
C    0.0000000    0.0000000    1.4700000  
C    1.0541688    0.0001722    2.3260392  
C    0.5103138    0.0000454    3.6635956  
C   -0.9576371   -0.0002459    3.5155732  
N   -1.2018458    0.0001392    2.1615969  
C   -1.8348311   -0.0008317    4.5510609  
C   -1.2972847   -0.0009736    5.9014604  
O   -2.0050672   -0.0014265    6.9001319  
C    0.2542623   -0.0004184    6.0817573  
O    0.7184670   -0.0002256    7.2139121  
C    1.0974552   -0.0000873    4.8889129  
H    2.0940752    0.0005483    2.0517982  
H   -2.9081052   -0.0011668    4.4207061  
H    2.1707277    0.0000911    5.0223670  
H   -2.1128194   -0.0014912    1.7406791  
