58

C    9.1056900   -0.0009152   -2.2240565  
C   10.0879359   -0.0001190   -1.2863640  
C   11.3461530   -0.0005388   -1.9946903  
C   11.0140349   -0.0016235   -3.4322184  
N    9.6400643   -0.0022024   -3.5035807  
C   11.9305264   -0.0018897   -4.4330923  
C   13.3379740   -0.0012782   -4.0702870  
O   14.2393243   -0.0015170   -4.8984573  
C   13.7126583   -0.0003796   -2.5539046  
O   14.8943487   -0.0001660   -2.2363078  
C   12.6357772    0.0001134   -1.5668990  
H    9.9471409    0.0004896   -0.2201609  
H   11.6657498   -0.0025600   -5.4813305  
H   12.9036282    0.0009404   -0.5190543  
H    9.1075334   -0.0014172   -4.3541439  
C    6.5597220   -0.0008210    1.3835020  
C    7.6114511   -0.0009114    0.5244669  
C    7.0637930   -0.0009871   -0.8115365  
C    5.5962691   -0.0009037   -0.6593384  
N    5.3559132   -0.0012036    0.6953274  
C    4.7161325   -0.0005435   -1.6923264  
C    5.2498348   -0.0004422   -3.0442498  
O    4.5392139   -0.0001860   -4.0409037  
C    6.8008624   -0.0007797   -3.2289599  
O    7.2618442   -0.0010045   -4.3624309  
C    7.6474458   -0.0008762   -2.0385195  
H    8.6521340   -0.0011061    0.7957482  
H    6.5627892   -0.0007239    2.4614079  
H    4.4461407    0.0003273    1.1188351  
C    3.2573665   -0.0002920   -1.5109385  
C    2.5379463   -0.0001709   -0.3591964  
C    1.1435038    0.0000331   -0.7338500  
C    1.1092599   -0.0000083   -2.2088477  
N    2.4227553    0.0001909   -2.6182613  
C   -0.0265539   -0.0002524   -2.9515660  
C   -1.3003040   -0.0002640   -2.2514977  
O   -2.3786790   -0.0004133   -2.8306421  
C   -1.2877727    0.0000311   -0.6895603  
O   -2.3539959    0.0003306   -0.0892030  
C    0.0000000    0.0000000    0.0000000  
H    2.9384091   -0.0000367    0.6389234  
H   -0.0296303   -0.0004086   -4.0327229  
H    2.7280482   -0.0013407   -3.5742119  
C    2.5528530    2.1414826    2.8079335  
C    2.0663498    1.7338582    4.0032312  
C    0.9804344    0.8229586    3.6752840  
C    0.9495562    0.7966882    2.1971295  
N    1.8690446    1.5676019    1.6831036  
C    0.0000000    0.0000000    1.4700000  
C   -0.8785127   -0.7372425    2.1869543  
O   -1.8187535   -1.5261249    1.6395491  
C   -0.8723269   -0.7321790    3.6796354  
O   -1.7010379   -1.4274584    4.2670412  
C    0.1115397    0.0933559    4.4024240  
H    2.4028853    2.0163452    4.9860947  
H   -2.2861435   -1.9184361    2.3990168  
H    0.0832434    0.0693689    5.4835595  
H    3.3664920    2.8238276    2.6198634  
