58

C   -3.9842536    0.7274601   -1.9451207  
C   -5.3215327    0.5112358   -2.0400276  
C   -5.5219229   -0.4153213   -3.1291426  
C   -4.1821618   -0.7234082   -3.6647868  
N   -3.2941075    0.0012873   -2.9038235  
C   -3.9439561   -1.5635939   -4.7035602  
C   -5.0831558   -2.2072385   -5.3363964  
O   -4.9726034   -2.9803452   -6.2789384  
C   -6.5111638   -1.8953296   -4.7856590  
O   -7.4779449   -2.4310778   -5.3106044  
C   -6.6412925   -0.9726598   -3.6606704  
H   -6.0809397    0.9508052   -1.4181812  
H   -2.9533232   -1.7760295   -5.0809560  
H   -7.6334626   -0.7621530   -3.2851582  
H   -3.4448691    1.3563721   -1.2556109  
C    0.0000000    0.0000000    0.0000000  
C    1.0541688   -0.0001722   -0.8560392  
C    0.5103135   -0.0000454   -2.1935954  
C   -0.9576375    0.0002459   -2.0455728  
N   -1.2018462   -0.0001392   -0.6915966  
C   -1.8348315    0.0008316   -3.0810604  
C   -1.2972851    0.0009737   -4.4314603  
O   -2.0050681    0.0014265   -5.4301316  
C    0.2542617    0.0004185   -4.6117570  
O    0.7184664    0.0002257   -5.7439119  
C    1.0974549    0.0000874   -3.4189129  
H    2.0940751   -0.0005482   -0.5817983  
H   -2.1128195    0.0014911   -0.2706785  
C    4.3047786   -2.1086509   -1.2859251  
C    5.3774557   -1.6442172   -1.9771127  
C    4.8701577   -0.7486149   -2.9897237  
C    3.4034910   -0.7291871   -2.8306579  
N    3.1250152   -1.5744523   -1.7814356  
C    2.5562209   -0.0001551   -3.6003007  
C    3.1269041    0.8199321   -4.6559106  
O    2.4474928    1.5122568   -5.4024951  
C    4.6776923    0.8144222   -4.8425432  
O    5.1696068    1.5006845   -5.7281645  
C    5.4870223   -0.0121805   -3.9505988  
H    6.4066155   -1.8999876   -1.7981574  
H    6.5600124   -0.0102613   -4.0862917  
H    4.2768474   -2.7963892   -0.4563917  
H    2.2064267   -1.7712346   -1.4285630  
C    3.2573670    0.0002920    2.9809380  
C    2.5379467    0.0001709    1.8291961  
C    1.1435042   -0.0000331    2.2038498  
C    1.1092607    0.0000083    3.6788474  
N    2.4227561   -0.0001909    4.0882609  
C   -0.0265533    0.0002524    4.4215661  
C   -1.3003036    0.0002640    3.7214979  
O   -2.3786784    0.0004133    4.3006425  
C   -1.2877726   -0.0000311    2.1595606  
O   -2.3539958   -0.0003306    1.5592035  
C    0.0000000    0.0000000    1.4700000  
H    2.9384090    0.0000368    0.8310761  
H   -0.0296291    0.0004086    5.5027230  
H    4.3270393    0.0004765    3.1139444  
H    2.7280493    0.0013407    5.0442112  
