64

C    2.8320535   -0.6842462   -3.3638061  
C    1.6628945    0.0339172   -3.2649299  
C    1.5251283    0.7739972   -4.4765000  
C    2.6497195    0.4643214   -5.2835456  
N    3.4240287   -0.4223174   -4.5771929  
C    2.8441976    1.0160065   -6.5534315  
C    1.8857970    1.8961105   -7.0171810  
O    2.0260221    2.4635783   -8.2506025  
C    0.7569696    2.2178791   -6.2265923  
O   -0.1068563    3.1097690   -6.8279900  
C    0.5646030    1.6742142   -4.9736157  
H    3.6992250    0.7841691   -7.1734163  
H    1.2587970    3.0370522   -8.3761375  
H   -0.8411877    3.2733637   -6.2283245  
H   -0.3098401    1.9397123   -4.3910880  
H    3.2912523   -1.3614900   -2.6642093  
C    5.1295648   -4.5400102   -4.2230518  
C    4.3159848   -3.4342827   -4.1340381  
C    4.9872994   -2.3684539   -4.8033267  
C    6.2162708   -2.8878403   -5.2847755  
N    6.2717461   -4.2083402   -4.9135335  
C    7.1375899   -2.1135334   -5.9964001  
C    6.8122077   -0.7908922   -6.2264532  
O    7.6756481    0.0099662   -6.9164591  
C    5.5909727   -0.2542440   -5.7537898  
O    5.4128323    1.0784468   -6.0628932  
C    4.6817177   -1.0174624   -5.0514513  
H    3.3571579   -3.3998135   -3.6457200  
H    7.0231880   -4.8396211   -5.1251943  
H    8.0760375   -2.5033846   -6.3659040  
H    7.2612372    0.8813379   -6.9637868  
H    4.5648531    1.3622763   -5.7079639  
H    4.9861215   -5.5386429   -3.8473976  
C    1.1243410    0.0100105   -0.7919003  
C    0.7474072    0.0234665   -2.1148542  
C   -0.6787384    0.0234379   -2.1414698  
C   -1.1201748    0.0098411   -0.7935547  
N    0.0000000    0.0000000    0.0000000  
C   -2.4730818    0.0063307   -0.4408240  
C   -3.3971962    0.0170429   -1.4675058  
O   -4.7313520    0.0145490   -1.1793468  
C   -2.9763654    0.0303020   -2.8186325  
O   -4.0166484    0.0394464   -3.7247625  
C   -1.6418567    0.0334992   -3.1673480  
H   -2.8160166   -0.0041569    0.5845966  
H   -5.1938823    0.0230023   -2.0274386  
H   -3.6464680    0.0481700   -4.6127343  
H   -1.3497475    0.0435647   -4.2109234  
H    2.1062466    0.0053162   -0.3505405  
C    0.8400945    0.7047457    2.2710304  
C    0.0000000    0.0000000    1.4700000  
C   -0.8844236   -0.7423113    2.3369512  
C   -0.4878984   -0.4098547    3.7186280  
N    0.5629682    0.4714286    3.6095011  
C   -1.0836927   -0.9095027    4.8308716  
C   -2.1891196   -1.8367527    4.6554461  
O   -2.7906899   -2.3413415    5.5944904  
C   -2.6257283   -2.2031529    3.2011665  
O   -3.5549479   -2.9829990    3.0410059  
C   -1.9068976   -1.5999348    2.0816745  
H   -0.7774656   -0.6525820    5.8354244  
H   -2.2155208   -1.8586617    1.0779135  
H    1.6384792    1.3747609    1.9961646  
H    1.0518368    0.8833920    4.3830260  
