58

C    1.1319243    0.0015660   -0.8009270  
C    0.7969904    0.0034946   -2.1169400  
C   -0.6453351    0.0035711   -2.1842662  
C   -1.1266839    0.0015432   -0.7896019  
N    0.0000000    0.0000000    0.0000000  
C   -2.4346135    0.0013961   -0.4276281  
C   -3.4350118    0.0031404   -1.4820168  
O   -4.6384624    0.0030966   -1.2583893  
C   -2.9478972    0.0050503   -2.9661058  
O   -3.7809397    0.0062215   -3.8623756  
C   -1.5113841    0.0053090   -3.2312115  
H   -2.7664565    0.0000228    0.6013460  
H   -1.1823549    0.0068404   -4.2614841  
H    2.1104314    0.0009395   -0.3488063  
C    4.5548686   -2.1353257   -2.6566590  
C    4.9410965   -1.7265247   -3.8876298  
C    3.8945904   -0.8159143   -4.3259369  
C    2.9291011   -0.7910816   -3.2062061  
N    3.3108520   -1.5625208   -2.2248106  
C    1.7334678    0.0049252   -3.2500367  
C    1.5125992    0.7428896   -4.3617741  
O    0.4386461    1.5312652   -4.5382104  
C    2.4682968    0.7392785   -5.5084165  
O    2.2033111    1.4351525   -6.4886017  
C    3.6876285   -0.0855801   -5.4394042  
H    5.8268143   -2.0080645   -4.4310582  
H    0.5619666    1.9243279   -5.4210727  
H    4.3545508   -0.0605401   -6.2907666  
C    6.4182196   -3.7111712   -1.9611329  
C    5.2470053   -3.0657203   -1.7532142  
C    4.8132051   -3.4921432   -0.4316695  
C    5.8698700   -4.4197363    0.0261674  
N    6.8134005   -4.5520231   -0.8661555  
C    5.8110391   -5.0670459    1.3078131  
C    4.7452503   -4.7995397    2.0964001  
O    4.5613903   -5.3329033    3.3161373  
C    3.6627587   -3.8676982    1.6627584  
O    2.7220785   -3.6708615    2.4319112  
C    3.7459915   -3.2161132    0.3435035  
H    6.5972046   -5.7404494    1.6166518  
H    3.7192509   -4.9548857    3.6276757  
H    2.9416671   -2.5478110    0.0666192  
H    7.0589628   -3.6620072   -2.8271607  
C    2.4951002    2.0940188    2.9809380  
C    1.9440701    1.6314916    1.8291961  
C    0.8759964    0.7350050    2.2038498  
C    0.8497377    0.7130254    3.6788474  
N    1.8560616    1.5571714    4.0882609  
C   -0.0205033   -0.0168748    4.4215661  
C   -0.9962600   -0.8356168    3.7214979  
O   -1.8224391   -1.5286685    4.3006425  
C   -0.9864710   -0.8277881    2.1595606  
O   -1.8030528   -1.5133726    1.5592035  
C    0.0000000    0.0000000    1.4700000  
H    2.2509283    1.8888011    0.8310761  
H   -0.0229599   -0.0187323    5.5027230  
H    3.3143982    2.7817323    3.1139444  
H    2.0889452    1.7545833    5.0442112  
