58

C    5.4992129   -1.0738733   -6.5332720  
C    6.4608656   -1.9474252   -6.1380428  
C    7.2772770   -2.2268913   -7.2957165  
C    6.7083683   -1.4388754   -8.4057445  
N    5.6328015   -0.7625568   -7.8778817  
C    7.1977879   -1.4289273   -9.6714761  
C    8.3624690   -2.2492484   -9.9597942  
O    8.8777229   -2.3081990  -11.0685488  
C    8.9812168   -3.0921144   -8.7993924  
O    9.9617219   -3.7868014   -9.0302220  
C    8.3652162   -3.0204497   -7.4767971  
H    6.5841195   -2.3502107   -5.1485052  
H    6.7655853   -0.8436036  -10.4711679  
H    8.7997982   -3.6069244   -6.6787308  
H    5.0378716   -0.1373806   -8.3899953  
C    4.1774648   -0.7039258   -4.3991482  
C    3.1006054    0.0006263   -3.9654951  
C    2.5992399    0.7428152   -5.0980249  
C    3.4785673    0.4104979   -6.2351873  
N    4.4147925   -0.4705962   -5.7452433  
C    3.3361156    0.9100884   -7.4889105  
C    2.2439823    1.8371255   -7.7346382  
O    2.0321271    2.3416476   -8.8295700  
C    1.3005621    2.2033757   -6.5448377  
O    0.3778218    2.9830422   -6.7395972  
C    1.5546718    1.6002373   -5.2388880  
H    3.9920980    0.6532723   -8.3090581  
H    0.8967556    1.8588594   -4.4203622  
H    4.8177809   -1.3738061   -3.8485623  
C    3.2798083    0.0005857   -1.4499652  
C    2.5571142    0.0005565   -2.5996556  
C    1.1637432    0.0001548   -2.2210361  
C    1.1336964   -0.0000200   -0.7459473  
N    2.4483512   -0.0001428   -0.3402723  
C    0.0000000    0.0000000    0.0000000  
C   -1.2757368   -0.0000186   -0.6964415  
O   -2.3524598   -0.0000639   -0.1142311  
C   -1.2676497   -0.0000872   -2.2584083  
O   -2.3355766   -0.0004101   -2.8557295  
C    0.0181558    0.0001758   -2.9516296  
H    0.0150788    0.0003319   -4.0331631  
H    4.3498547    0.0008612   -1.3200026  
H    2.7563626    0.0012823    0.6148059  
C    2.5128556    2.1077716    2.9199648  
C    1.9592212    1.6432552    4.0696553  
C    0.8915788    0.7479214    3.6910360  
C    0.8684491    0.7287414    2.2159470  
N    1.8754542    1.5738793    1.8102719  
C    0.0000000    0.0000000    1.4700000  
C   -0.9772830   -0.8200135    2.1664417  
O   -1.8021297   -1.5120829    1.5842315  
C   -0.9711318   -0.8147624    3.7284083  
O   -1.7894187   -1.5009653    4.3257297  
C    0.0140216    0.0115358    4.4216297  
H    2.2638494    1.8988021    5.0689105  
H    0.0117648    0.0094386    5.5031631  
H    3.3327358    2.7953732    2.7900019  
H    2.1123206    1.7707734    0.8551938  
