62

C    2.8326037   -0.6833169   -3.3633887  
C    1.6628925    0.0340039   -3.2649298  
C    1.5245657    0.7732864   -4.4769228  
C    2.6494000    0.4640148   -5.2837844  
N    3.4243857   -0.4216253   -4.5769211  
C    2.8434623    1.0151249   -6.5539838  
C    1.8843885    1.8942270   -7.0182412  
O    2.0241860    2.4610989   -8.2519861  
C    0.7553092    2.2155784   -6.2278433  
O   -0.1091983    3.1064613   -6.8297557  
C    0.5633518    1.6724810   -4.9745581  
H    4.2836781   -0.8276226   -4.9005934  
H    1.2565215    3.0339106   -8.3778529  
H   -0.8436592    3.2698334   -6.2301885  
H   -0.3112987    1.9376388   -4.3921873  
H    3.2923186   -1.3598082   -2.6634028  
C    1.1243406    0.0100688   -0.7919002  
C    0.7474059    0.0235054   -2.1148541  
C   -0.6787399    0.0234027   -2.1414695  
C   -1.1201753    0.0097828   -0.7935544  
N    0.0000000    0.0000000    0.0000000  
C   -2.4730820    0.0062021   -0.4408240  
C   -3.3971973    0.0168663   -1.4675053  
O   -4.7313527    0.0143032   -1.1793467  
C   -2.9763671    0.0301476   -2.8186322  
O   -4.0166505    0.0392380   -3.7247624  
C   -1.6418583    0.0334141   -3.1673479  
H   -2.8160161   -0.0043035    0.5845968  
H   -5.1938832    0.0227323   -2.0274379  
H   -3.6464707    0.0479806   -4.6127339  
H   -1.3497499    0.0434950   -4.2109234  
H    2.1062463    0.0054254   -0.3505402  
C    4.0061024    0.7003593   -7.3966531  
C    5.0520276   -0.1262503   -7.1381352  
C    5.9196302   -0.0807384   -8.2914048  
C    5.2889187    0.8468175   -9.2498589  
N    4.1323768    1.2854439   -8.6474410  
C    5.8011723    1.1607401  -10.4667204  
C    7.0574316    0.5437203  -10.8586807  
O    7.5997955    0.7620619  -11.9340745  
C    7.7427963   -0.4419521   -9.8594154  
O    8.8006057   -0.9677474  -10.1785366  
C    7.0943144   -0.7012410   -8.5764142  
H    5.1989068   -0.7022911   -6.2419112  
H    5.3225946    1.8437426  -11.1547470  
H    7.5754216   -1.3847867   -7.8901015  
H    3.4814443    1.9326277   -9.0530114  
C    0.8175213    0.6860729    2.3021913  
C    0.0000000    0.0000000    1.4700000  
C   -0.8887526   -0.7456559    2.3478473  
C   -0.4549825   -0.3816753    3.7138435  
N    0.5448156    0.4573574    3.6934124  
C   -1.0945674   -0.9182058    4.8835240  
C   -2.1210866   -1.7789155    4.6970523  
O   -2.8083856   -2.3554314    5.6976972  
C   -2.5824069   -2.1655116    3.3310774  
O   -3.5227682   -2.9541547    3.2362962  
C   -1.9100805   -1.6015804    2.1470656  
H   -0.7567140   -0.6349833    5.8697035  
H   -3.4728268   -2.9124471    5.2533954  
H   -2.2742832   -1.9066565    1.1752040  
H    1.6189533    1.3585343    2.0405121  
