58

C    1.1319246    0.0015678   -0.8009270  
C    0.7969911    0.0034960   -2.1169403  
C   -0.6453343    0.0035697   -2.1842669  
C   -1.1266835    0.0015410   -0.7896023  
N    0.0000000    0.0000000    0.0000000  
C   -2.4346132    0.0013914   -0.4276288  
C   -3.4350114    0.0031337   -1.4820173  
O   -4.6384615    0.0030879   -1.2583905  
C   -2.9478966    0.0050445   -2.9661069  
O   -3.7809384    0.0062139   -3.8623765  
C   -1.5113836    0.0053058   -3.2312118  
H   -2.7664563    0.0000176    0.6013454  
H   -1.1823542    0.0068384   -4.2614845  
H    2.1104315    0.0009435   -0.3488062  
C    4.5953928   -2.1014960   -2.7684688  
C    4.9007862   -1.6358450   -4.0070079  
C    3.8360917   -0.7408523   -4.3946273  
C    2.8785316   -0.7231090   -3.2723282  
N    3.3968136   -1.5686684   -2.3187548  
C    1.7334687    0.0049282   -3.2500367  
C    1.4233475    0.8256459   -4.4088216  
O    0.4162258    1.5171695   -4.4849912  
C    2.4231581    0.8219166   -5.6088926  
O    2.1725282    1.5087229   -6.5900871  
C    3.6246479   -0.0037319   -5.5162703  
H    5.7723366   -1.8904262   -4.5833773  
H    5.1449867   -2.7892455   -2.1465067  
H    2.9710704   -1.7664994   -1.4318206  
C    5.9265176   -3.2250441   -7.4157128  
C    6.5588023   -2.5099982   -8.3816322  
C    6.1284540   -1.1389938   -8.2402717  
C    5.1868942   -1.1137318   -7.1046583  
N    5.1077633   -2.4095934   -6.6492791  
C    4.5587559    0.0005510   -6.6513143  
C    4.8278378    1.2589091   -7.3270841  
O    4.3114421    2.3175505   -6.9940447  
C    5.8214331    1.2554836   -8.5323072  
O    6.0555525    2.3088511   -9.1092514  
C    6.4369638   -0.0086989   -8.9283072  
H    7.2478779   -2.8986511   -9.1101493  
H    7.1239216   -0.0024908   -9.7636361  
H    5.9896317   -4.2791456   -7.1994336  
H    4.5438231   -2.7154548   -5.8776131  
C    0.8681109    0.7263879    2.2709268  
C    0.6127770    0.5096195    3.5869401  
C   -0.4920590   -0.4175482    3.6542670  
C   -0.8620974   -0.7254003    2.2596025  
N    0.0000000    0.0000000    1.4700000  
C   -1.8641242   -1.5660088    1.8976294  
C   -2.6293522   -2.2103885    2.9520183  
O   -3.5512764   -2.9839180    2.7283916  
C   -2.2549728   -1.8987399    4.4361073  
O   -2.8923672   -2.4351063    5.3323774  
C   -1.1543735   -0.9755647    4.7012123  
H    1.1382914    0.9492124    4.4159191  
H   -2.1192137   -1.7782617    0.8686553  
H   -0.9013378   -0.7652422    5.7314848  
H    1.6172880    1.3558399    1.8188057  
