58

C    0.6898379   -1.0789162   -9.5578186  
C    1.0334784   -0.7445975  -10.8283379  
C    0.8140996    0.6760917  -10.9638019  
C    0.3109020    1.1454199   -9.6586906  
N    0.2582589    0.0330691   -8.8507340  
C   -0.0160162    2.4323651   -9.3783340  
C    0.1377910    3.4212102  -10.4324039  
O   -0.1298722    4.6057113  -10.2787328  
C    0.6688483    2.9464635  -11.8225117  
O    0.8021794    3.7698934  -12.7177463  
C    0.9879888    1.5325987  -12.0041367  
H    1.3987637   -1.4165643  -11.5844067  
H   -0.3832845    2.7557135   -8.4142432  
H    1.3553300    1.2120534  -12.9695565  
H    0.7153603   -2.0441190   -9.0786300  
C    1.7720688   -2.0859335   -5.3149821  
C    0.8968264   -1.6247192   -4.3847633  
C   -0.0065336   -0.7270828   -5.0652227  
C    0.4171842   -0.7029982   -6.4782596  
N    1.5002594   -1.5471470   -6.5634086  
C   -0.1857664    0.0284587   -7.4494065  
C   -1.3281506    0.8467739   -7.0781196  
O   -1.9388951    1.5411249   -7.8800982  
C   -1.7940047    0.8367265   -5.5872531  
O   -2.7544404    1.5219333   -5.2627298  
C   -1.0641734    0.0073898   -4.6315339  
H    0.8854566   -1.8836209   -3.3409939  
H    2.5929126   -2.7739333   -5.1934844  
H    2.0129033   -1.7433394   -7.4034991  
C    1.1319248    0.0015675   -0.8009270  
C    0.7969916    0.0034959   -2.1169404  
C   -0.6453336    0.0035703   -2.1842672  
C   -1.1266831    0.0015415   -0.7896027  
N    0.0000000    0.0000000    0.0000000  
C   -2.4346129    0.0013924   -0.4276297  
C   -3.4350110    0.0031352   -1.4820184  
O   -4.6384610    0.0030897   -1.2583919  
C   -2.9478958    0.0050460   -2.9661075  
O   -3.7809377    0.0062160   -3.8623775  
C   -1.5113821    0.0053068   -3.2312125  
H    1.4821240    0.0045436   -2.9459192  
H   -2.7664565    0.0000185    0.6013447  
H    2.1104318    0.0009428   -0.3488058  
C    2.3971438    2.0127888    3.1728260  
C    1.9431056    1.6308205    1.9564670  
C    0.8496017    0.7127664    2.2356185  
C    0.7794028    0.6545384    3.7115134  
N    1.6840587    1.4146091    4.2663826  
C   -0.1885723   -0.1578550    4.3957118  
C   -1.0476298   -0.8789867    3.6398520  
O   -2.0015663   -1.6796266    4.1448486  
C   -1.0022026   -0.8410666    2.1483229  
O   -1.8147390   -1.5232959    1.5241687  
C    0.0000000    0.0000000    1.4700000  
H    2.3054237    1.9346118    0.9892483  
H   -0.2170646   -0.1815267    5.4753125  
H   -2.4487139   -2.0549881    3.3649027  
H    3.2048689    2.6911772    3.3971983  
