60

C   -3.3003048   -0.0180813   -1.4738990  
C   -2.5232434   -0.0137704   -2.6090748  
C   -1.1623041   -0.0060503   -2.1820101  
C   -1.1711715   -0.0062876   -0.7636139  
N   -2.4852029   -0.0117264   -0.3662359  
C    0.0000000    0.0000000    0.0000000  
C    1.2020219    0.0063413   -0.6806473  
O    2.3758929    0.0122874    0.0157751  
C    1.2314458    0.0070609   -2.0955504  
O    2.5053993    0.0141292   -2.6250173  
C    0.0764470    0.0011336   -2.8495193  
H   -2.8919567   -0.0148199   -3.6205303  
H   -2.8035400   -0.0237297    0.5858662  
H    3.0835203    0.0163658   -0.6418815  
H    2.4359652    0.0141089   -3.5845914  
H    0.1304016    0.0020356   -3.9319084  
C   -5.6726170   -0.0298386   -2.3740990  
C   -6.9487381   -0.0344181   -1.9098047  
C   -6.8721345   -0.0329309   -0.4679428  
C   -5.4364862   -0.0270381   -0.1278415  
N   -4.7629802   -0.0258089   -1.3275409  
C   -4.9461003   -0.0236820    1.1375498  
C   -5.8956468   -0.0262567    2.2379541  
O   -5.5533209   -0.0236523    3.4131595  
C   -7.4208477   -0.0327446    1.9010189  
O   -8.2297224   -0.0352658    2.8191569  
C   -7.8276502   -0.0356372    0.4980380  
H   -3.8892082   -0.0192401    1.3652972  
H   -8.8855550   -0.0399240    0.2732204  
H   -5.3201639   -0.0292852   -3.3927578  
C   -8.3637107   -0.7466758   -3.8720856  
C   -8.1694305   -0.0400901   -2.7288154  
C   -9.3850959    0.6975593   -2.4780844  
C  -10.3101809    0.3603619   -3.5768590  
N   -9.6305211   -0.5189357   -4.3879001  
C  -11.5677508    0.8548313   -3.7022505  
C  -12.0417007    1.7811124   -2.6874057  
O  -13.1586829    2.2811824   -2.7115074  
C  -11.0787951    2.1524740   -1.5149255  
O  -11.4666539    2.9315547   -0.6547747  
C   -9.7462397    1.5546455   -1.4875712  
H  -12.2302849    0.5944905   -4.5159955  
H   -9.0857051    1.8167859   -0.6722791  
H   -7.6879420   -1.4144417   -4.3813156  
H   -9.9988261   -0.9331559   -5.2244530  
C    2.4951002    2.0940188    2.9809380  
C    1.9440701    1.6314916    1.8291961  
C    0.8759964    0.7350050    2.2038498  
C    0.8497377    0.7130254    3.6788474  
N    1.8560616    1.5571714    4.0882609  
C   -0.0205033   -0.0168748    4.4215661  
C   -0.9962600   -0.8356168    3.7214979  
O   -1.8224391   -1.5286685    4.3006425  
C   -0.9864710   -0.8277881    2.1595606  
O   -1.8030528   -1.5133726    1.5592035  
C    0.0000000    0.0000000    1.4700000  
H    2.2509283    1.8888011    0.8310761  
H   -0.0229599   -0.0187323    5.5027230  
H    3.3143982    2.7817323    3.1139444  
H    2.0889452    1.7545833    5.0442112  
