58

C    0.8532103   -0.7025395   -5.2251466  
C    0.0139735    0.0003886   -4.4216231  
C   -0.8744136    0.7410332   -5.2859437  
C   -0.4811493    0.4095797   -6.6687925  
N    0.5718052   -0.4695906   -6.5627882  
C   -1.0811155    0.9081810   -7.7792619  
C   -2.1879133    1.8331660   -7.6005530  
O   -2.7931727    2.3366715   -8.5378062  
C   -2.6211229    2.1984714   -6.1449824  
O   -3.5514597    2.9764119   -5.9820615  
C   -1.8978910    1.5965482   -5.0276304  
H   -2.2041801    1.8545051   -4.0229567  
H    1.6537281   -1.3709767   -4.9526535  
H    1.0593038   -0.8804518   -7.3377627  
C    3.2798084    0.0005862   -1.4499651  
C    2.5571143    0.0005571   -2.5996555  
C    1.1637432    0.0001554   -2.2210362  
C    1.1336965   -0.0000198   -0.7459469  
N    2.4483512   -0.0001424   -0.3402720  
C    0.0000000    0.0000000    0.0000000  
C   -1.2757369   -0.0000185   -0.6964413  
O   -2.3524597   -0.0000641   -0.1142310  
C   -1.2676498   -0.0000869   -2.2584076  
O   -2.3355766   -0.0004097   -2.8557292  
C    0.0181558    0.0001765   -2.9516293  
H    2.9547351    0.0006082   -3.5989108  
H    4.3498545    0.0008619   -1.3200029  
H    2.7563630    0.0012825    0.6148063  
C   -0.2946453   -0.6712019   -9.5812111  
C   -0.6679357    0.5598997   -9.1463324  
C   -0.5799728    1.4510501  -10.2790057  
C   -0.1215776    0.6323336  -11.4175881  
N    0.0332348   -0.6441722  -10.9282460  
C    0.0858842    1.1071941  -12.6718496  
C   -0.1584043    2.5188979  -12.9167004  
O   -0.0005817    3.0420264  -14.0120225  
C   -0.6440699    3.4047438  -11.7253947  
O   -0.8527296    4.5947358  -11.9194076  
C   -0.8321012    2.7788206  -10.4189815  
H    0.4222188    0.4895905  -13.4930406  
H   -1.1687666    3.3990502   -9.5994107  
H   -0.2312839   -1.5958941   -9.0309207  
H    0.3356690   -1.4348296  -11.4671729  
C    0.0000000    0.0000000    1.4700000  
C    1.0662921    0.0000102    2.3034270  
C    0.4961870   -0.0000064    3.6418889  
C   -0.9663858    0.0000850    3.4240247  
N   -1.2632773    0.0000084    2.1528658  
C   -1.8985362    0.0000517    4.5177257  
C   -1.3925775   -0.0004564    5.7720543  
O   -2.1456383   -0.0005410    6.8851312  
C    0.0786232   -0.0009323    6.0245000  
O    0.4683759   -0.0012588    7.1921102  
C    1.0143166   -0.0008442    4.8859032  
H    2.1107198   -0.0000632    2.0421868  
H   -2.9622183    0.0003270    4.3293377  
H   -1.5042274   -0.0009692    7.6184419  
H    2.0724152   -0.0013148    5.1109744  
