62

C    3.3041283    0.0001171   -1.5420418  
C    2.5845377   -0.0004782   -0.3695842  
C    1.2040011   -0.0000010   -0.7283583  
C    1.1422387    0.0006032   -2.1454372  
N    2.4348655    0.0026102   -2.6077457  
C   -0.0655166    0.0008792   -2.8497924  
C   -1.2321758    0.0002321   -2.1101405  
O   -2.4392798    0.0001143   -2.7472530  
C   -1.1911203   -0.0000009   -0.6955271  
O   -2.4371529   -0.0002318   -0.1032872  
C    0.0000000    0.0000000    0.0000000  
H    3.0031535   -0.0000663    0.6222594  
H   -0.1193528    0.0014836   -3.9297473  
H   -3.1132976   -0.0000650   -2.0551803  
H   -2.3200285   -0.0004068    0.8516399  
H    4.3686633    0.0004068   -1.7024274  
C    5.6587049   -2.1482577   -4.5997605  
C    5.5107229   -1.7555993   -5.8864228  
C    4.3729248   -0.8490970   -5.8734377  
C    3.9446822   -0.8087297   -4.4586716  
N    4.6947132   -1.5682543   -3.7072961  
C    2.8310686   -0.0116229   -4.0232742  
C    2.1753270    0.7125516   -4.9586395  
O    1.1191558    1.5001773   -4.6937094  
C    2.5836206    0.6930782   -6.3942852  
O    1.9410908    1.3768911   -7.1910134  
C    3.7292216   -0.1325940   -6.8159344  
H    0.8721742    1.8818755   -5.5553699  
H    3.9932695   -0.1192724   -7.8649015  
H    6.3942996   -2.8231078   -4.1917764  
C    7.2867409   -5.6649369   -7.1324163  
C    6.6163713   -4.6747089   -6.4523280  
C    6.7612423   -3.4763082   -7.2122282  
C    7.5361701   -3.7995077   -8.3554503  
N    7.8401196   -5.1358219   -8.2748514  
C    7.8768310   -2.8561823   -9.3295528  
C    7.4267569   -1.5630991   -9.1463952  
O    7.7302552   -0.6023786  -10.0672201  
C    6.6527080   -1.2210599   -8.0120782  
O    6.2807831    0.1068990   -7.9728192  
C    6.3164885   -2.1510981   -7.0505634  
H    6.0888708   -4.8003919   -5.5223067  
H    8.3721568   -5.6518574   -8.9520700  
H    8.4672675   -3.0961142  -10.2030625  
H    7.3252740    0.2159511   -9.7516406  
H    5.7616305    0.2539281   -7.1762844  
H    7.4151371   -6.7064661   -6.8922278  
C    2.5128556    2.1077716    2.9199648  
C    1.9592212    1.6432552    4.0696553  
C    0.8915788    0.7479214    3.6910360  
C    0.8684491    0.7287414    2.2159470  
N    1.8754542    1.5738793    1.8102719  
C    0.0000000    0.0000000    1.4700000  
C   -0.9772830   -0.8200135    2.1664417  
O   -1.8021297   -1.5120829    1.5842315  
C   -0.9711318   -0.8147624    3.7284083  
O   -1.7894187   -1.5009653    4.3257297  
C    0.0140216    0.0115358    4.4216297  
H    2.2638494    1.8988021    5.0689105  
H    0.0117648    0.0094386    5.5031631  
H    3.3327358    2.7953732    2.7900019  
H    2.1123206    1.7707734    0.8551938  
