62

C   -1.0600880    0.3578720   -0.8003809  
C    0.0000000    0.0000000    0.0000000  
C    1.0723465   -0.3638283   -0.8673532  
C    0.6039544   -0.2064601   -2.1969283  
N   -0.6949886    0.2311254   -2.1202243  
C    1.3982713   -0.4760683   -3.3154816  
C    2.6890373   -0.9121986   -3.0876864  
O    3.5076868   -1.1896025   -4.1440359  
C    3.1744724   -1.0757325   -1.7684340  
O    4.4800566   -1.5173848   -1.7073138  
C    2.3913294   -0.8102044   -0.6644828  
H    1.0471682   -0.3582738   -4.3313815  
H    4.3508854   -1.4746720   -3.7685146  
H    4.7297315   -1.6013374   -0.7819926  
H    2.7906098   -0.9449513    0.3339647  
H   -2.0482056    0.6921376   -0.5342067  
C   -3.6619622    3.4892605   -2.8760568  
C   -2.7122822    2.6722983   -2.3075956  
C   -2.4221189    1.6479635   -3.2568813  
C   -3.2317754    1.8939913   -4.3952368  
N   -3.9736962    3.0181772   -4.1299509  
C   -3.2069868    1.0793735   -5.5312701  
C   -2.3490069   -0.0031571   -5.5180174  
O   -2.2847068   -0.8310567   -6.6012813  
C   -1.5335498   -0.2653645   -4.3914763  
O   -0.7335736   -1.3805686   -4.5318412  
C   -1.5576823    0.5376962   -3.2702998  
H   -2.2824358    2.7984258   -1.3286589  
H   -4.6322440    3.4407172   -4.7590424  
H   -3.8216741    1.2614028   -6.4020326  
H   -1.6337897   -1.5117954   -6.3864163  
H   -0.2155420   -1.4863912   -3.7280697  
C   -4.3183509    4.6917492   -2.3430693  
C   -4.1445990    5.3005980   -1.1417417  
C   -5.0287173    6.4418815   -1.1164082  
C   -5.7368905    6.4480544   -2.4107205  
N   -5.2608031    5.3618927   -3.1082039  
C   -6.6622312    7.3709135   -2.7764784  
C   -6.9818671    8.4288252   -1.8324486  
O   -7.8013410    9.3069377   -2.0684160  
C   -6.2438337    8.4419465   -0.4558805  
O   -6.5044502    9.3278866    0.3468965  
C   -5.2663426    7.3931728   -0.1758156  
H   -3.4735243    4.9862094   -0.3623621  
H   -7.1702099    7.3572546   -3.7307744  
H   -4.7598626    7.4092793    0.7796650  
H   -5.5543930    5.0957223   -4.0301614  
C    0.8400945    0.7047457    2.2710304  
C    0.0000000    0.0000000    1.4700000  
C   -0.8844236   -0.7423113    2.3369512  
C   -0.4878984   -0.4098547    3.7186280  
N    0.5629682    0.4714286    3.6095011  
C   -1.0836927   -0.9095027    4.8308716  
C   -2.1891196   -1.8367527    4.6554461  
O   -2.7906899   -2.3413415    5.5944904  
C   -2.6257283   -2.2031529    3.2011665  
O   -3.5549479   -2.9829990    3.0410059  
C   -1.9068976   -1.5999348    2.0816745  
H   -0.7774656   -0.6525820    5.8354244  
H   -2.2155208   -1.8586617    1.0779135  
H    1.6384792    1.3747609    1.9961646  
H    1.0518368    0.8833920    4.3830260  
