58

C    1.6030554    2.0931860   -8.0375008  
C    2.5469365    1.6315912   -7.1772133  
C    3.3976498    0.7369794   -7.9260740  
C    2.8682377    0.7150844   -9.3030385  
N    1.7804637    1.5574838   -9.3041052  
C    3.3971338   -0.0132767  -10.3186483  
C    4.5656619   -0.8303332  -10.0366976  
O    5.1150747   -1.5219269  -10.8841326  
C    5.1430033   -0.8225623   -8.5853454  
O    6.1263511   -1.5067366   -8.3359587  
C    4.4862643    0.0034850   -7.5753000  
H    2.6368567    1.8883386   -6.1367286  
H    2.9934955   -0.0151018  -11.3216355  
H    0.7926533    2.7794723   -7.8527051  
H    1.2053900    1.7545139  -10.1025519  
C    2.4521485    0.0014838   -3.7217479  
C    3.4891879    0.0014496   -2.8521911  
C    4.6797445    0.0022555   -3.6882979  
C    4.1623483    0.0025994   -5.0735361  
N    2.8572360    0.0022305   -5.0994557  
C    5.0381738    0.0034465   -6.2128407  
C    6.3703214    0.0043170   -5.9789268  
O    7.3023601    0.0051588   -6.9470923  
C    6.9233380    0.0043694   -4.5924444  
O    8.1464877    0.0050629   -4.4541510  
C    6.0043360    0.0034466   -3.4403333  
H    3.4509659    0.0010307   -1.7762664  
H    8.1530739    0.0056733   -6.4722887  
H    6.4446278    0.0036317   -2.4522171  
C    0.0000000    0.0000000    0.0000000  
C    1.0662924   -0.0000102   -0.8334267  
C    0.4961874    0.0000064   -2.1718888  
C   -0.9663853   -0.0000849   -1.9540250  
N   -1.2632772   -0.0000084   -0.6828660  
C   -1.8985357   -0.0000515   -3.0477261  
C   -1.3925767    0.0004566   -4.3020548  
O   -2.1456375    0.0005411   -5.4151316  
C    0.0786242    0.0009324   -4.5545000  
O    0.4683770    0.0012590   -5.7221099  
C    1.0143173    0.0008443   -3.4159029  
H    2.1107200    0.0000632   -0.5721862  
H   -2.9622180   -0.0003269   -2.8593382  
H   -1.5042262    0.0009694   -6.1484423  
C    1.0672568    0.0000697    2.3021913  
C    0.0000000    0.0000000    1.4700000  
C   -1.1601224    0.0000736    2.3478473  
C   -0.5938729    0.0000769    3.7138435  
N    0.7113367    0.0001554    3.6934124  
C   -1.4286986    0.0001879    4.8835240  
C   -2.7683114    0.0006799    4.6970523  
O   -3.6653903    0.0008304    5.6976972  
C   -3.3702025    0.0010610    3.3310774  
O   -4.5974910    0.0013779    3.2362962  
C   -2.4926826    0.0008943    2.1470656  
H   -0.9878360   -0.0000190    5.8697035  
H   -4.5324246    0.0012261    5.2533954  
H   -2.9677772    0.0012974    1.1752040  
H    2.1134392    0.0000545    2.0405121  
