60

C    3.3003541    0.0005278   -1.4738992  
C    2.5232807    0.0003501   -2.6090758  
C    1.1623196   -0.0001317   -2.1820111  
C    1.1711881    0.0000584   -0.7636150  
N    2.4852298   -0.0014917   -0.3662363  
C    0.0000000    0.0000000    0.0000000  
C   -1.2020384    0.0000521   -0.6806482  
O   -2.3759252    0.0003495    0.0157742  
C   -1.2314661   -0.0005110   -2.0955511  
O   -2.5054392   -0.0008035   -2.6250185  
C   -0.0764520   -0.0007270   -2.8495199  
H    2.8919952   -0.0005616   -3.6205308  
H    2.8036261    0.0088182    0.5858646  
H   -3.0835642    0.0000348   -0.6418824  
H   -2.4360052   -0.0011524   -3.5845926  
H    4.3715545    0.0004897   -1.3667141  
C   -0.1496419   -0.0015608   -4.3176963  
C    0.8738319   -0.0018367   -5.2031795  
C    0.2377931   -0.0026901   -6.5115962  
C   -1.2121183   -0.0029421   -6.2211815  
N   -1.4453517   -0.0022021   -4.9368177  
C   -2.1975670   -0.0037104   -7.2671149  
C   -1.7546879   -0.0038155   -8.5450795  
O   -2.5622338   -0.0045086   -9.6192818  
C   -0.2978811   -0.0031970   -8.8704626  
O    0.0332540   -0.0034571  -10.0560298  
C    0.6933416   -0.0024574   -7.7798652  
H    1.9299717   -0.0014121   -4.9942646  
H   -1.9581294   -0.0043718  -10.3836183  
H    1.7389215   -0.0019088   -8.0573394  
C   -4.2240850    0.7005526   -5.9415045  
C   -3.6304810   -0.0042208   -6.9390033  
C   -4.6726565   -0.7471551   -7.6073998  
C   -5.9311087   -0.4150339   -6.9125740  
N   -5.5905459    0.4666698   -5.9128210  
C   -7.1480665   -0.9152850   -7.2449395  
C   -7.2234143   -1.8428764   -8.3613766  
O   -8.2728297   -2.3480104   -8.7380304  
C   -5.9031237   -2.2089307   -9.1114720  
O   -5.9540828   -2.9890596  -10.0527807  
C   -4.6516815   -1.6050621   -8.6608197  
H   -8.0590324   -0.6586016   -6.7222883  
H   -3.7420216   -1.8635528   -9.1856298  
H   -3.7782314    1.3709539   -5.2247993  
H   -6.2356111    0.8785426   -5.2637452  
C    0.0000000    0.0000000    1.4700000  
C    1.0541688    0.0001722    2.3260392  
C    0.5103138    0.0000454    3.6635956  
C   -0.9576371   -0.0002459    3.5155732  
N   -1.2018458    0.0001392    2.1615969  
C   -1.8348311   -0.0008317    4.5510609  
C   -1.2972847   -0.0009736    5.9014604  
O   -2.0050672   -0.0014265    6.9001319  
C    0.2542623   -0.0004184    6.0817573  
O    0.7184670   -0.0002256    7.2139121  
C    1.0974552   -0.0000873    4.8889129  
H    2.0940752    0.0005483    2.0517982  
H   -2.9081052   -0.0011668    4.4207061  
H    2.1707277    0.0000911    5.0223670  
H   -2.1128194   -0.0014912    1.7406791  
