58

C    0.8077798   -0.7044869   -5.2248780  
C   -0.0307359   -0.0004648   -4.4215606  
C   -0.9183639    0.7408375   -5.2860964  
C   -0.5254396    0.4085778   -6.6688485  
N    0.5266135   -0.4716397   -6.5625875  
C   -1.1248948    0.9074697   -7.7794637  
C   -2.2307441    1.8336403   -7.6010249  
O   -2.8354876    2.3374923   -8.5384249  
C   -2.6635791    2.1998142   -6.1455606  
O   -3.5931183    2.9787549   -5.9828668  
C   -1.9409642    1.5974761   -5.0280329  
H   -0.8212707    0.6507099   -8.7848477  
H   -2.2469886    1.8560395   -4.0234346  
H    1.6076126   -1.3736643   -4.9521901  
H    1.0136908   -0.8832262   -7.3374423  
C    3.2573667   -0.0002920   -1.5109386  
C    2.5379466   -0.0001709   -0.3591965  
C    1.1435040    0.0000332   -0.7338503  
C    1.1092604   -0.0000083   -2.2088478  
N    2.4227557    0.0001908   -2.6182616  
C   -0.0265538   -0.0002523   -2.9515663  
C   -1.3003040   -0.0002641   -2.2514979  
O   -2.3786787   -0.0004133   -2.8306426  
C   -1.2877728    0.0000312   -0.6895607  
O   -2.3539959    0.0003306   -0.0892033  
C    0.0000000    0.0000000    0.0000000  
H    2.9384091   -0.0000368    0.6389234  
H    2.7280486   -0.0013408   -3.5742120  
C    4.7161330   -0.0005435   -1.6923266  
C    5.6747634   -0.0008964   -0.7370224  
C    6.9326495   -0.0010019   -1.4679276  
C    6.5359790   -0.0007817   -2.8924402  
N    5.2379003   -0.0004318   -3.0302108  
C    7.5063007   -0.0007607   -3.9524221  
C    8.8134760   -0.0005622   -3.6051057  
O    9.8251244   -0.0005268   -4.4897576  
C    9.2455282   -0.0004055   -2.1762981  
O   10.4523081   -0.0003519   -1.9335989  
C    8.2310911   -0.0004742   -1.1072604  
H    5.5443950   -0.0009742    0.3316590  
H    7.1881014   -0.0008042   -4.9847297  
H   10.6319768   -0.0003444   -3.9437340  
H    8.5850041   -0.0002407   -0.0850202  
C    0.8400945    0.7047457    2.2710304  
C    0.0000000    0.0000000    1.4700000  
C   -0.8844236   -0.7423113    2.3369512  
C   -0.4878984   -0.4098547    3.7186280  
N    0.5629682    0.4714286    3.6095011  
C   -1.0836927   -0.9095027    4.8308716  
C   -2.1891196   -1.8367527    4.6554461  
O   -2.7906899   -2.3413415    5.5944904  
C   -2.6257283   -2.2031529    3.2011665  
O   -3.5549479   -2.9829990    3.0410059  
C   -1.9068976   -1.5999348    2.0816745  
H   -0.7774656   -0.6525820    5.8354244  
H   -2.2155208   -1.8586617    1.0779135  
H    1.6384792    1.3747609    1.9961646  
H    1.0518368    0.8833920    4.3830260  
