62

C    3.3003540    0.0005278   -1.4738998  
C    2.5232805    0.0003501   -2.6090759  
C    1.1623190   -0.0001315   -2.1820106  
C    1.1711880    0.0000584   -0.7636147  
N    2.4852300   -0.0014918   -0.3662366  
C    0.0000000    0.0000000    0.0000000  
C   -1.2020387    0.0000521   -0.6806476  
O   -2.3759253    0.0003495    0.0157752  
C   -1.2314666   -0.0005110   -2.0955505  
O   -2.5054395   -0.0008035   -2.6250174  
C   -0.0764524   -0.0007269   -2.8495195  
H    2.8919942   -0.0005615   -3.6205312  
H    2.8036265    0.0088181    0.5858650  
H   -3.0835639    0.0000348   -0.6418810  
H   -2.4360058   -0.0011523   -3.5845915  
C    2.3021892   -2.1255945   -5.9826743  
C    1.8095055   -1.6629736   -4.7844624  
C    0.7354722   -0.7756715   -5.0906435  
C    0.6180392   -0.7363227   -6.5036503  
N    1.5855117   -1.5656955   -7.0142922  
C   -0.3411063    0.0395991   -7.1615055  
C   -1.1974987    0.7892236   -6.3786688  
O   -2.1530504    1.5644639   -6.9693768  
C   -1.0957968    0.7634648   -4.9673540  
O   -2.0200026    1.5643300   -4.3287602  
C   -0.1496428   -0.0015607   -4.3176960  
H    2.1795055   -1.9311003   -3.8096800  
H    1.7382175   -1.7475803   -7.9897811  
H   -0.4356876    0.0740456   -8.2381064  
H   -2.6345098    1.9978459   -6.2526892  
H   -1.8829388    1.4894726   -3.3794373  
H    3.1090410   -2.8095397   -6.1830936  
C    6.5907945    0.0037516   -4.4182877  
C    5.3731474    0.0030004   -3.8171140  
C    5.6071044    0.0014830   -2.3922992  
C    7.0713636    0.0014403   -2.2113701  
N    7.6095191    0.0024513   -3.4775763  
C    7.6973065    0.0005991   -1.0072526  
C    6.8738982   -0.0005522    0.1904671  
O    7.3427985   -0.0014289    1.3211449  
C    5.3209694   -0.0007804    0.0224866  
O    4.6174387   -0.0020528    1.0236376  
C    4.7630502    0.0004759   -1.3275418  
H    4.4198584    0.0032750   -4.3149629  
H    8.7727859    0.0007142   -0.8965483  
H    6.8296398    0.0049287   -5.4694022  
H    8.5911153    0.0042338   -3.6861733  
C    0.0000000    0.0000000    1.4700000  
C    1.0541688    0.0001722    2.3260392  
C    0.5103138    0.0000454    3.6635956  
C   -0.9576371   -0.0002459    3.5155732  
N   -1.2018458    0.0001392    2.1615969  
C   -1.8348311   -0.0008317    4.5510609  
C   -1.2972847   -0.0009736    5.9014604  
O   -2.0050672   -0.0014265    6.9001319  
C    0.2542623   -0.0004184    6.0817573  
O    0.7184670   -0.0002256    7.2139121  
C    1.0974552   -0.0000873    4.8889129  
H    2.0940752    0.0005483    2.0517982  
H   -2.9081052   -0.0011668    4.4207061  
H    2.1707277    0.0000911    5.0223670  
H   -2.1128194   -0.0014912    1.7406791  
