62

C    1.1243402    0.0100689   -0.7919007  
C    0.7474053    0.0235052   -2.1148548  
C   -0.6787403    0.0234026   -2.1414698  
C   -1.1201753    0.0097828   -0.7935546  
N    0.0000000    0.0000000    0.0000000  
C   -2.4730829    0.0062023   -0.4408232  
C   -3.3971971    0.0168662   -1.4675058  
O   -4.7313532    0.0143033   -1.1793458  
C   -2.9763678    0.0301476   -2.8186313  
O   -4.0166516    0.0392378   -3.7247615  
C   -1.6418599    0.0334139   -3.1673478  
H   -2.8160155   -0.0043031    0.5845969  
H   -5.1938842    0.0227325   -2.0274367  
H   -3.6464717    0.0479802   -4.6127334  
H   -1.3497512    0.0434945   -4.2109229  
H    2.1062459    0.0054255   -0.3505413  
C    4.5591040   -2.0908367   -2.8627791  
C    4.8002487   -1.5799956   -4.1171146  
C    3.7183613   -0.7026895   -4.4244489  
C    2.8404238   -0.7184132   -3.3104903  
N    3.3797220   -1.5727930   -2.3810763  
C    1.6628917    0.0340035   -3.2649306  
C    1.3663827    0.8167827   -4.3638010  
O    0.2292580    1.5716967   -4.3719361  
C    2.2296355    0.8455015   -5.4848660  
O    1.7956875    1.6734903   -6.4994928  
C    3.3913290    0.1032736   -5.5306120  
H    2.9827848   -1.7777778   -1.4819636  
H    0.2145592    2.0340902   -5.2200169  
H    2.4347302    1.6351441   -7.2176555  
H    4.0327708    0.1454529   -6.4031093  
H    5.1343445   -2.7848405   -2.2742080  
C    5.9614858   -1.8968882   -4.9609203  
C    7.0065295   -2.7248350   -4.7031168  
C    7.8728890   -2.6812076   -5.8573934  
C    7.2424089   -1.7533006   -6.8156595  
N    6.0871733   -1.3126919   -6.2121825  
C    7.7537286   -1.4407946   -8.0332783  
C    9.0086666   -2.0598186   -8.4263098  
O    9.5501214   -1.8428564   -9.5024403  
C    9.6937635   -3.0458966   -7.4272612  
O   10.7504639   -3.5733734   -7.7472805  
C    9.0463681   -3.3035382   -6.1433796  
H    7.1536063   -3.3005758   -3.8067326  
H    7.2753415   -0.7575036   -8.7211505  
H    9.5272822   -3.9873772   -5.4572237  
H    5.4367003   -0.6648146   -6.6173833  
C    0.8681109    0.7263879    2.2709268  
C    0.6127770    0.5096195    3.5869401  
C   -0.4920590   -0.4175482    3.6542670  
C   -0.8620974   -0.7254003    2.2596025  
N    0.0000000    0.0000000    1.4700000  
C   -1.8641242   -1.5660088    1.8976294  
C   -2.6293522   -2.2103885    2.9520183  
O   -3.5512764   -2.9839180    2.7283916  
C   -2.2549728   -1.8987399    4.4361073  
O   -2.8923672   -2.4351063    5.3323774  
C   -1.1543735   -0.9755647    4.7012123  
H    1.1382914    0.9492124    4.4159191  
H   -2.1192137   -1.7782617    0.8686553  
H   -0.9013378   -0.7652422    5.7314848  
H    1.6172880    1.3558399    1.8188057  
