58

C    7.9578876   -0.7274214    1.3892000  
C    8.5280131   -0.5114536    2.6026211  
C    9.6168709    0.4143437    2.3973811  
C    9.6344786    0.7222640    0.9545836  
N    8.6043389   -0.0017929    0.4001080  
C   10.5184127    1.5617869    0.3582889  
C   11.5193768    2.2048427    1.1932060  
O   12.3594431    2.9773328    0.7506577  
C   11.5194556    1.8930980    2.7237679  
O   12.3576172    2.4283545    3.4366803  
C   10.5161227    0.9711645    3.2502788  
H    8.2209599   -0.9507146    3.5350271  
H   10.5140075    1.7741116   -0.7018093  
H   10.5228393    0.7607670    4.3111333  
H    7.1200001   -1.3557931    1.1342814  
C    4.7161325   -0.0005435   -1.6923264  
C    5.6957067   -0.0010595   -0.7518430  
C    6.9559334   -0.0010594   -1.4565867  
C    6.6279075   -0.0004678   -2.8950543  
N    5.2541447   -0.0005756   -2.9703260  
C    7.5472423    0.0001052   -3.8933165  
C    8.9536518   -0.0000843   -3.5265082  
O    9.8573560    0.0003304   -4.3521108  
C    9.3240200   -0.0009609   -2.0090658  
O   10.5048029   -0.0014343   -1.6881086  
C    8.2443356   -0.0012461   -1.0251280  
H    5.5518787   -0.0015835    0.3139556  
H    7.2854490    0.0006637   -4.9423041  
H    4.7240364    0.0012972   -3.8223992  
C    3.2573665   -0.0002920   -1.5109385  
C    2.5379463   -0.0001709   -0.3591964  
C    1.1435038    0.0000331   -0.7338500  
C    1.1092599   -0.0000083   -2.2088477  
N    2.4227553    0.0001909   -2.6182613  
C   -0.0265539   -0.0002524   -2.9515660  
C   -1.3003040   -0.0002640   -2.2514977  
O   -2.3786790   -0.0004133   -2.8306421  
C   -1.2877727    0.0000311   -0.6895603  
O   -2.3539959    0.0003306   -0.0892030  
C    0.0000000    0.0000000    0.0000000  
H    2.9384091   -0.0000367    0.6389234  
H   -0.0296303   -0.0004086   -4.0327229  
H    2.7280482   -0.0013407   -3.5742119  
C    0.0000000    0.0000000    1.4700000  
C    1.0662921    0.0000102    2.3034270  
C    0.4961870   -0.0000064    3.6418889  
C   -0.9663858    0.0000850    3.4240247  
N   -1.2632773    0.0000084    2.1528658  
C   -1.8985362    0.0000517    4.5177257  
C   -1.3925775   -0.0004564    5.7720543  
O   -2.1456383   -0.0005410    6.8851312  
C    0.0786232   -0.0009323    6.0245000  
O    0.4683759   -0.0012588    7.1921102  
C    1.0143166   -0.0008442    4.8859032  
H    2.1107198   -0.0000632    2.0421868  
H   -2.9622183    0.0003270    4.3293377  
H   -1.5042274   -0.0009692    7.6184419  
H    2.0724152   -0.0013148    5.1109744  
