62

C   -3.3003284   -0.0132753   -1.4738976  
C   -2.5232619   -0.0100960   -2.6090741  
C   -1.1623133   -0.0043576   -2.1820095  
C   -1.1711796   -0.0045821   -0.7636135  
N   -2.4852176   -0.0081074   -0.3662350  
C    0.0000000    0.0000000    0.0000000  
C    1.2020289    0.0045909   -0.6806481  
O    2.3759077    0.0088277    0.0157742  
C    1.2314530    0.0052677   -2.0955513  
O    2.5054160    0.0104809   -2.6250183  
C    0.0764466    0.0010224   -2.8495191  
H   -2.8919774   -0.0106086   -3.6205293  
H   -2.8035713   -0.0196472    0.5858673  
H    3.0835406    0.0118757   -0.6418825  
H    2.4359807    0.0105618   -3.5845921  
H    0.1304027    0.0018456   -3.9319086  
C   -5.6708102   -0.0220601   -2.3611548  
C   -4.7630138   -0.0188731   -1.3275388  
C   -5.5133116   -0.0203130   -0.1144228  
C   -6.8854705   -0.0247226   -0.4737104  
N   -6.9456207   -0.0237281   -1.8452054  
C   -7.9149459   -0.0274972    0.4723137  
C   -7.5526339   -0.0260965    1.8053202  
O   -8.5176702   -0.0290281    2.7705720  
C   -6.1889440   -0.0213342    2.1836645  
O   -5.9909051   -0.0200734    3.5489934  
C   -5.1728145   -0.0183216    1.2509277  
H   -7.7894045   -0.0367212   -2.3891184  
H   -8.0553978   -0.0270931    3.6188440  
H   -5.0439614   -0.0168339    3.7189671  
H   -4.1373787   -0.0145095    1.5708280  
H   -5.5098161   -0.0218296   -3.4255986  
C  -10.1801240   -2.1291913   -2.6817757  
C   -9.2017758   -1.6634999   -1.8632151  
C   -9.8315663   -0.7686431   -0.9211800  
C  -11.2673203   -0.7510682   -1.2604318  
N  -11.4126746   -1.5959489   -2.3365072  
C  -12.2043326   -0.0237985   -0.6010447  
C  -11.7697157    0.7965585    0.5172829  
O  -12.5372273    1.4874880    1.1744297  
C  -10.2538361    0.7933855    0.8939848  
O   -9.8760770    1.4803646    1.8334630  
C   -9.3392994   -0.0318745    0.1088600  
H   -8.1580067   -1.9176896   -1.9136932  
H  -13.2525310   -0.0251616   -0.8659782  
H  -10.1043655   -2.8169066   -3.5083338  
H  -12.2807683   -1.7960954   -2.7984626  
C    2.5128556    2.1077716    2.9199648  
C    1.9592212    1.6432552    4.0696553  
C    0.8915788    0.7479214    3.6910360  
C    0.8684491    0.7287414    2.2159470  
N    1.8754542    1.5738793    1.8102719  
C    0.0000000    0.0000000    1.4700000  
C   -0.9772830   -0.8200135    2.1664417  
O   -1.8021297   -1.5120829    1.5842315  
C   -0.9711318   -0.8147624    3.7284083  
O   -1.7894187   -1.5009653    4.3257297  
C    0.0140216    0.0115358    4.4216297  
H    2.2638494    1.8988021    5.0689105  
H    0.0117648    0.0094386    5.5031631  
H    3.3327358    2.7953732    2.7900019  
H    2.1123206    1.7707734    0.8551938  
