62

C   -3.2981802    0.1197741   -1.4738994  
C   -2.5216166    0.0916266   -2.6090752  
C   -1.1615424    0.0424995   -2.1820105  
C   -1.1704126    0.0426327   -0.7636143  
N   -2.4835240    0.0920801   -0.3662364  
C    0.0000000    0.0000000    0.0000000  
C    1.2012382   -0.0438675   -0.6806477  
O    2.3743329   -0.0869542    0.0157750  
C    1.2306661   -0.0443775   -2.0955507  
O    2.5038037   -0.0905230   -2.6250172  
C    0.0764280   -0.0020603   -2.8495194  
H   -2.8900525    0.1059776   -3.6205313  
H   -2.8020850    0.0933829    0.5858655  
H    3.0815135   -0.1124340   -0.6418812  
H    2.4344290   -0.0876433   -3.5845914  
H    0.1303726   -0.0034127   -3.9319085  
C   -5.6585878    0.2228488   -2.3673695  
C   -6.9361731    0.2806538   -1.8605161  
C   -6.8210631    0.2676994   -0.4388333  
C   -5.4374208    0.2008757   -0.1338847  
N   -4.7599024    0.1731429   -1.3275415  
C   -4.9525005    0.1713832    1.1771345  
C   -5.8812648    0.2103599    2.1989250  
O   -5.4623760    0.1844102    3.4977224  
C   -7.2660674    0.2767623    1.9147970  
O   -8.0634843    0.3086641    3.0401652  
C   -7.7451806    0.3056168    0.6216826  
H   -7.8399712    0.3254118   -2.4437306  
H   -3.8991995    0.1203342    1.4162010  
H   -6.2594620    0.2191421    4.0424357  
H   -8.9828806    0.3532255    2.7602927  
H   -5.3173636    0.2116987   -3.3883502  
C   -9.8639696   -0.3162652   -0.6282610  
C  -11.1927129   -0.0372564   -0.6023696  
C  -11.4060260    0.8955141    0.4789593  
C  -10.0831482    1.1388252    1.0852472  
N   -9.1915655    0.3745112    0.3684534  
C   -9.8603857    1.9646892    2.1388272  
C  -10.9995942    2.6601773    2.7141836  
O  -10.9022857    3.4252685    3.6646932  
C  -12.4098889    2.4172515    2.0881963  
O  -13.3765365    2.9970334    2.5643314  
C  -12.5242107    1.5040623    0.9537943  
H  -11.9383565   -0.4391633   -1.2650164  
H   -8.8819819    2.1292843    2.5684139  
H  -13.5041563    1.3414628    0.5260162  
H   -9.3194224   -0.9685653   -1.2914820  
C    0.8681109    0.7263879    2.2709268  
C    0.6127770    0.5096195    3.5869401  
C   -0.4920590   -0.4175482    3.6542670  
C   -0.8620974   -0.7254003    2.2596025  
N    0.0000000    0.0000000    1.4700000  
C   -1.8641242   -1.5660088    1.8976294  
C   -2.6293522   -2.2103885    2.9520183  
O   -3.5512764   -2.9839180    2.7283916  
C   -2.2549728   -1.8987399    4.4361073  
O   -2.8923672   -2.4351063    5.3323774  
C   -1.1543735   -0.9755647    4.7012123  
H    1.1382914    0.9492124    4.4159191  
H   -2.1192137   -1.7782617    0.8686553  
H   -0.9013378   -0.7652422    5.7314848  
H    1.6172880    1.3558399    1.8188057  
