58

C    0.8077798   -0.7044869   -5.2248780  
C   -0.0307359   -0.0004648   -4.4215606  
C   -0.9183639    0.7408375   -5.2860964  
C   -0.5254396    0.4085778   -6.6688485  
N    0.5266135   -0.4716397   -6.5625875  
C   -1.1248948    0.9074697   -7.7794637  
C   -2.2307441    1.8336403   -7.6010249  
O   -2.8354876    2.3374923   -8.5384249  
C   -2.6635791    2.1998142   -6.1455606  
O   -3.5931183    2.9787549   -5.9828668  
C   -1.9409642    1.5974761   -5.0280329  
H   -0.8212707    0.6507099   -8.7848477  
H   -2.2469886    1.8560395   -4.0234346  
H    1.6076126   -1.3736643   -4.9521901  
H    1.0136908   -0.8832262   -7.3374423  
C    3.2573667   -0.0002920   -1.5109386  
C    2.5379466   -0.0001709   -0.3591965  
C    1.1435040    0.0000332   -0.7338503  
C    1.1092604   -0.0000083   -2.2088478  
N    2.4227557    0.0001908   -2.6182616  
C   -0.0265538   -0.0002523   -2.9515663  
C   -1.3003040   -0.0002641   -2.2514979  
O   -2.3786787   -0.0004133   -2.8306426  
C   -1.2877728    0.0000312   -0.6895607  
O   -2.3539959    0.0003306   -0.0892033  
C    0.0000000    0.0000000    0.0000000  
H    2.9384091   -0.0000368    0.6389234  
H    2.7280486   -0.0013408   -3.5742120  
C    6.4550022   -0.0009261    1.4492344  
C    7.5628473   -0.0014715    0.6718945  
C    7.0625120   -0.0013729   -0.6941819  
C    5.5906513   -0.0008361   -0.5520182  
N    5.2286137   -0.0004916    0.7021421  
C    4.7161330   -0.0005435   -1.6923266  
C    5.2860923   -0.0003876   -2.9188992  
O    4.5914238   -0.0001199   -4.0693238  
C    6.7683519   -0.0005474   -3.0951536  
O    7.2177890   -0.0005152   -4.2411148  
C    7.6440944   -0.0008911   -1.9098267  
H    8.5924160   -0.0017989    0.9866381  
H    5.2697912   -0.0000401   -4.7685878  
H    8.7123907   -0.0008826   -2.0800427  
H    6.3993987   -0.0008027    2.5262127  
C    2.5128556    2.1077716    2.9199648  
C    1.9592212    1.6432552    4.0696553  
C    0.8915788    0.7479214    3.6910360  
C    0.8684491    0.7287414    2.2159470  
N    1.8754542    1.5738793    1.8102719  
C    0.0000000    0.0000000    1.4700000  
C   -0.9772830   -0.8200135    2.1664417  
O   -1.8021297   -1.5120829    1.5842315  
C   -0.9711318   -0.8147624    3.7284083  
O   -1.7894187   -1.5009653    4.3257297  
C    0.0140216    0.0115358    4.4216297  
H    2.2638494    1.8988021    5.0689105  
H    0.0117648    0.0094386    5.5031631  
H    3.3327358    2.7953732    2.7900019  
H    2.1123206    1.7707734    0.8551938  
