58

C    4.1774648   -0.7039258   -4.3991482  
C    3.1006054    0.0006263   -3.9654951  
C    2.5992399    0.7428152   -5.0980249  
C    3.4785673    0.4104979   -6.2351873  
N    4.4147926   -0.4705963   -5.7452433  
C    3.3361155    0.9100885   -7.4889105  
C    2.2439822    1.8371256   -7.7346383  
O    2.0321271    2.3416476   -8.8295700  
C    1.3005621    2.2033757   -6.5448377  
O    0.3778222    2.9830419   -6.7395970  
C    1.5546721    1.6002371   -5.2388884  
H    3.9920980    0.6532722   -8.3090581  
H    0.8967557    1.8588592   -4.4203622  
H    4.8177812   -1.3738064   -3.8485622  
C    6.0955633   -4.5273863   -5.7735644  
C    7.0480448   -4.3693332   -6.7284850  
C    6.9697049   -2.9996242   -7.1785901  
C    5.8857548   -2.3681171   -6.4020333  
N    5.3965418   -3.3474904   -5.5687345  
C    5.4992131   -1.0738735   -6.5332719  
C    6.1972106   -0.2477860   -7.5043096  
O    5.9231861    0.9295865   -7.6966766  
C    7.3482620   -0.8958730   -8.3378993  
O    7.9429258   -0.2103123   -9.1586558  
C    7.6741269   -2.3009777   -8.1069342  
H    7.7278047   -5.1259650   -7.0778389  
H    8.4725222   -2.7421076   -8.6880473  
H    5.8453328   -5.4066075   -5.2023862  
H    4.6484362   -3.2236079   -4.9114386  
C    3.2798083    0.0005857   -1.4499652  
C    2.5571142    0.0005565   -2.5996556  
C    1.1637432    0.0001548   -2.2210361  
C    1.1336964   -0.0000200   -0.7459473  
N    2.4483512   -0.0001428   -0.3402723  
C    0.0000000    0.0000000    0.0000000  
C   -1.2757368   -0.0000186   -0.6964415  
O   -2.3524598   -0.0000639   -0.1142311  
C   -1.2676497   -0.0000872   -2.2584083  
O   -2.3355766   -0.0004101   -2.8557295  
C    0.0181558    0.0001758   -2.9516296  
H    0.0150788    0.0003319   -4.0331631  
H    4.3498547    0.0008612   -1.3200026  
H    2.7563626    0.0012823    0.6148059  
C    0.8400945    0.7047457    2.2710304  
C    0.0000000    0.0000000    1.4700000  
C   -0.8844236   -0.7423113    2.3369512  
C   -0.4878984   -0.4098547    3.7186280  
N    0.5629682    0.4714286    3.6095011  
C   -1.0836927   -0.9095027    4.8308716  
C   -2.1891196   -1.8367527    4.6554461  
O   -2.7906899   -2.3413415    5.5944904  
C   -2.6257283   -2.2031529    3.2011665  
O   -3.5549479   -2.9829990    3.0410059  
C   -1.9068976   -1.5999348    2.0816745  
H   -0.7774656   -0.6525820    5.8354244  
H   -2.2155208   -1.8586617    1.0779135  
H    1.6384792    1.3747609    1.9961646  
H    1.0518368    0.8833920    4.3830260  
