58

C    5.7656459   -0.0009911   -2.0564735  
C    7.0030818   -0.0024148   -1.4971657  
C    6.8178422   -0.0018250   -0.0652017  
C    5.3606046    0.0000435    0.1655479  
N    4.7795897    0.0008677   -1.0815734  
C    4.7760820    0.0006808    1.3903077  
C    5.6398485   -0.0003298    2.5592571  
O    5.2097731    0.0001945    3.7052654  
C    7.1861465   -0.0020588    2.3384253  
O    7.9234025   -0.0026142    3.3150065  
C    7.6977091   -0.0028917    0.9701579  
H    7.9388411   -0.0035461   -2.0272284  
H    3.7050034    0.0019261    1.5376173  
H    8.7695760   -0.0042939    0.8258467  
H    5.4911003   -0.0009264   -3.0988337  
C    3.3321166    0.0004717   -1.3379342  
C    2.6974176    0.0000121   -2.5332317  
C    1.2800432   -0.0002115   -2.2052842  
C    1.2395033    0.0000645   -0.7271297  
N    2.4394059    0.0005461   -0.2131042  
C    0.0000000    0.0000000    0.0000000  
C   -1.1468704    0.0000636   -0.7169540  
O   -2.3742206    0.0000073   -0.1695488  
C   -1.1388774    0.0001610   -2.2096351  
O   -2.2206238    0.0000908   -2.7970408  
C    0.1454514    0.0001820   -2.9324241  
H    3.1367977   -0.0000646   -3.5160953  
H   -2.9844351    0.0001027   -0.9290163  
C    2.6001984   -2.1411811   -5.8266044  
C    2.0730542   -1.7332808   -7.0044478  
C    0.9991586   -0.8222825   -6.6393045  
C    1.0189893   -0.7962628   -5.1609559  
N    1.9554486   -1.5673966   -4.6788912  
C    0.0950440    0.0004357   -4.4015596  
C   -0.8074272    0.7379275   -5.0878438  
O   -1.7282267    1.5268499   -4.5083867  
C   -0.8524309    0.7331206   -6.5798599  
O   -1.7006936    1.4286199   -7.1383865  
C    0.1059493   -0.0924302   -7.3360990  
H    2.3756466   -2.0156464   -7.9983205  
H   -2.2213262    1.9193589   -5.2513152  
H    0.0406002   -0.0682526   -8.4156246  
H    3.4197063   -2.8236747   -5.6666593  
C    2.5128556    2.1077716    2.9199648  
C    1.9592212    1.6432552    4.0696553  
C    0.8915788    0.7479214    3.6910360  
C    0.8684491    0.7287414    2.2159470  
N    1.8754542    1.5738793    1.8102719  
C    0.0000000    0.0000000    1.4700000  
C   -0.9772830   -0.8200135    2.1664417  
O   -1.8021297   -1.5120829    1.5842315  
C   -0.9711318   -0.8147624    3.7284083  
O   -1.7894187   -1.5009653    4.3257297  
C    0.0140216    0.0115358    4.4216297  
H    2.2638494    1.8988021    5.0689105  
H    0.0117648    0.0094386    5.5031631  
H    3.3327358    2.7953732    2.7900019  
H    2.1123206    1.7707734    0.8551938  
