60

C    1.1243411    0.0100026   -0.7919004  
C    0.7474071    0.0234613   -2.1148551  
C   -0.6787384    0.0234422   -2.1414704  
C   -1.1201745    0.0098483   -0.7935555  
N    0.0000000    0.0000000    0.0000000  
C   -2.4730816    0.0063472   -0.4408241  
C   -3.3971960    0.0170656   -1.4675060  
O   -4.7313522    0.0145808   -1.1793467  
C   -2.9763656    0.0303221   -2.8186324  
O   -4.0166481    0.0394731   -3.7247626  
C   -1.6418570    0.0335101   -3.1673484  
H    1.4178713    0.0311102   -2.9571212  
H   -2.8160166   -0.0041379    0.5845965  
H   -5.1938821    0.0230372   -2.0274390  
H   -3.6464680    0.0481939   -4.6127343  
H    2.1062466    0.0053018   -0.3505411  
C   -0.1936758   -0.6738947   -5.1271223  
C   -0.0848703   -0.4442870   -6.4611074  
C   -1.1307898    0.4861841   -6.8148177  
C   -1.8630904    0.7819826   -5.5686117  
N   -1.2456339    0.0471604   -4.5828770  
C   -2.9257077    1.6216592   -5.4820511  
C   -3.3784995    2.2776848   -6.6974298  
O   -4.3266797    3.0513724   -6.7231437  
C   -2.6179146    1.9789096   -8.0286130  
O   -2.9902086    2.5251438   -9.0583151  
C   -1.4864716    1.0555280   -7.9961202  
H    0.6446949   -0.8774561   -7.1219504  
H   -3.4487332    1.8249756   -4.5579212  
H    0.4059922   -1.3093613   -4.4958771  
C   -0.7778009    0.7818322   -9.2546023  
C    0.2855555   -0.0316339   -9.4524004  
C    0.5771040    0.0711330  -10.8739973  
C   -0.4354308    1.0145590  -11.3948672  
N   -1.2324002    1.4345800  -10.4501915  
C   -0.4864985    1.3864220  -12.7820214  
C    0.4324336    0.8409122  -13.6110663  
O    0.5018540    1.0986444  -14.9281830  
C    1.4672310   -0.1139852  -13.1155598  
O    2.2721454   -0.5717472  -13.9266007  
C    1.4988194   -0.4797184  -11.6882668  
H    0.8076719   -0.6277250   -8.7236025  
H   -1.2374468    2.0779607  -13.1352364  
H    1.2536009    0.5664577  -15.2456834  
H    2.2641083   -1.1744906  -11.3691206  
C    2.4951002    2.0940188    2.9809380  
C    1.9440701    1.6314916    1.8291961  
C    0.8759964    0.7350050    2.2038498  
C    0.8497377    0.7130254    3.6788474  
N    1.8560616    1.5571714    4.0882609  
C   -0.0205033   -0.0168748    4.4215661  
C   -0.9962600   -0.8356168    3.7214979  
O   -1.8224391   -1.5286685    4.3006425  
C   -0.9864710   -0.8277881    2.1595606  
O   -1.8030528   -1.5133726    1.5592035  
C    0.0000000    0.0000000    1.4700000  
H    2.2509283    1.8888011    0.8310761  
H   -0.0229599   -0.0187323    5.5027230  
H    3.3143982    2.7817323    3.1139444  
H    2.0889452    1.7545833    5.0442112  
