60

C    3.3041272    0.0001182   -1.5420430  
C    2.5845371   -0.0004777   -0.3695856  
C    1.2040006   -0.0000006   -0.7283593  
C    1.1422372    0.0006038   -2.1454372  
N    2.4348640    0.0026113   -2.6077468  
C   -0.0655182    0.0008798   -2.8497918  
C   -1.2321767    0.0002323   -2.1101399  
O   -2.4392815    0.0001145   -2.7472521  
C   -1.1911210   -0.0000006   -0.6955266  
O   -2.4371527   -0.0002323   -0.1032862  
C    0.0000000    0.0000000    0.0000000  
H    3.0031537   -0.0000657    0.6222579  
H    2.7054627   -0.0071095   -3.5745262  
H   -3.1132989   -0.0000651   -2.0551787  
H   -2.3200282   -0.0004073    0.8516412  
H    4.3686620    0.0004077   -1.7024292  
C    2.3446867   -2.1385760   -5.7825616  
C    1.7992123   -1.7303703   -6.9519226  
C    0.7308349   -0.8198484   -6.5697986  
C    0.7735870   -0.7944100   -5.0919257  
N    1.7176441   -1.5654466   -4.6247550  
C   -0.1387084    0.0017018   -4.3179686  
C   -1.0519392    0.7391880   -4.9898749  
O   -1.9638782    1.5275961   -4.3958874  
C   -1.1200798    0.7349601   -6.4810150  
O   -1.9771140    1.4304198   -7.0260372  
C   -0.1732961   -0.0899946   -7.2523611  
H    2.0864369   -2.0122475   -7.9504827  
H   -2.4685607    1.9202478   -5.1309194  
H   -0.2553896   -0.0654081   -8.3307333  
C    4.1682756   -3.6980161   -6.5588820  
C    3.4652987   -3.0686354   -5.5822665  
C    4.0287804   -3.4883028   -4.3208379  
C    5.1255433   -4.4204304   -4.6449351  
N    5.1577035   -4.5048561   -6.0177889  
C    5.9080322   -5.0371294   -3.7234695  
C    5.6528481   -4.7648100   -2.3187424  
O    6.3026170   -5.2711337   -1.4133482  
C    4.4961593   -3.7810626   -1.9525224  
O    4.2717528   -3.5443245   -0.7731765  
C    3.7218623   -3.1775456   -3.0342263  
H    6.7074980   -5.7173679   -3.9823901  
H    2.9228482   -2.4973536   -2.7722360  
H    4.0466315   -3.6404651   -7.6283585  
H    5.8021226   -5.0646317   -6.5454458  
C    2.5128556    2.1077716    2.9199648  
C    1.9592212    1.6432552    4.0696553  
C    0.8915788    0.7479214    3.6910360  
C    0.8684491    0.7287414    2.2159470  
N    1.8754542    1.5738793    1.8102719  
C    0.0000000    0.0000000    1.4700000  
C   -0.9772830   -0.8200135    2.1664417  
O   -1.8021297   -1.5120829    1.5842315  
C   -0.9711318   -0.8147624    3.7284083  
O   -1.7894187   -1.5009653    4.3257297  
C    0.0140216    0.0115358    4.4216297  
H    2.2638494    1.8988021    5.0689105  
H    0.0117648    0.0094386    5.5031631  
H    3.3327358    2.7953732    2.7900019  
H    2.1123206    1.7707734    0.8551938  
