60

C    0.0000000    0.0000000    0.0000000  
C    1.0521664   -0.0011910   -0.8862344  
C    0.4917221   -0.0011961   -2.1979133  
C   -0.9187424    0.0003153   -2.0478684  
N   -1.1833170   -0.0009405   -0.7007913  
C   -1.7951700    0.0010360   -3.1372091  
C   -1.2375836    0.0005230   -4.4010425  
O   -2.0474213    0.0015368   -5.4997581  
C    0.1673585   -0.0013572   -4.5711964  
O    0.5673527   -0.0020697   -5.8915552  
C    1.0325770   -0.0023421   -3.4969893  
H    2.0953058   -0.0030663   -0.6200561  
H   -2.0989775    0.0102384   -0.2891824  
H   -1.4634880    0.0006503   -6.2693595  
H    1.5290712   -0.0033167   -5.9180044  
H    2.1042146   -0.0039627   -3.6584458  
C   -3.9705527    0.7070960   -2.0745741  
C   -3.2578652    0.0024056   -2.9908508  
C   -4.2093229   -0.7382534   -3.7851986  
C   -5.5443146   -0.4048878   -3.2527945  
N   -5.3302022    0.4752907   -2.2172602  
C   -6.7108610   -0.9029308   -3.7353172  
C   -6.6473139   -1.8292886   -4.8535110  
O   -7.6421018   -2.3324281   -5.3590295  
C   -5.2441054   -2.1966276   -5.4330570  
O   -5.1780534   -2.9757355   -6.3742735  
C   -4.0579914   -1.5951387   -4.8287424  
H   -7.6796705   -0.6453661   -3.3303750  
H   -3.0902100   -1.8545061   -5.2359914  
H   -3.6168787    1.3760929   -1.3069497  
C   -5.8716244    4.5374610   -0.5734641  
C   -5.3977458    3.4376125   -1.2136577  
C   -6.3512769    2.3767088   -0.9898354  
C   -7.4272479    2.9527777   -0.1608473  
N   -7.0762679    4.2651310    0.0569411  
C   -8.5183187    2.2684853    0.2669535  
C   -8.6409856    0.8713122   -0.1143533  
O   -9.5863531    0.1698397    0.2210829  
C   -7.5131212    0.2405479   -0.9917719  
O   -7.6053469   -0.9349664   -1.3187595  
C   -6.3857525    1.0791266   -1.3913688  
H   -4.4843597    3.3764330   -1.7781012  
H   -9.2962423    2.7099577    0.8742807  
H   -5.4420618    5.5239743   -0.5089861  
H   -7.6135693    4.9241727    0.5898749  
C    3.2798086   -0.0005857    2.9199648  
C    2.5571146   -0.0005566    4.0696553  
C    1.1637436   -0.0001548    3.6910360  
C    1.1336965    0.0000200    2.2159470  
N    2.4483514    0.0001428    1.8102719  
C    0.0000000    0.0000000    1.4700000  
C   -1.2757367    0.0000186    2.1664417  
O   -2.3524596    0.0000640    1.5842315  
C   -1.2676493    0.0000873    3.7284083  
O   -2.3355761    0.0004100    4.3257297  
C    0.0181563   -0.0001760    4.4216297  
H    2.9547357   -0.0006076    5.0689105  
H    0.0150794   -0.0003319    5.5031631  
H    4.3498549   -0.0008612    2.7900019  
H    2.7563627   -0.0012824    0.8551938  
