60

C    1.1188649    0.0008221   -0.8003804  
C    0.0000000    0.0000000    0.0000000  
C   -1.1323857    0.0008896   -0.8673533  
C   -0.6382653    0.0019679   -2.1969282  
N    0.7324024    0.0038481   -2.1202234  
C   -1.4770903    0.0027316   -3.3154811  
C   -2.8395464    0.0020941   -3.0876863  
O   -3.7039188    0.0024421   -4.1440360  
C   -3.3517863    0.0013927   -1.7684336  
O   -4.7300487    0.0012365   -1.7073135  
C   -2.5248538    0.0009121   -0.6644827  
H    1.3576323   -0.0056167   -2.9057037  
H   -4.5940020    0.0021826   -3.7685144  
H   -4.9934599    0.0007260   -0.7819922  
H   -2.9462576    0.0005599    0.3339650  
H    2.1619893    0.0009354   -0.5342059  
C    1.8906719   -2.0861103   -5.2626200  
C    0.9779278   -1.6251677   -4.3690289  
C    0.1016446   -0.7294209   -5.0863858  
C    0.5821206   -0.7061488   -6.4811591  
N    1.6688588   -1.5489159   -6.5215724  
C    0.0179729    0.0235399   -7.4766474  
C   -1.1395617    0.8406737   -7.1527018  
O   -1.7182887    1.5334119   -7.9794364  
C   -1.6653046    0.8314581   -5.6818808  
O   -2.6389745    1.5156840   -5.3971660  
C   -0.9736282    0.0040461   -4.6965765  
H    0.9247018   -1.8830608   -3.3263057  
H    0.3859497    0.0263615   -8.4932573  
H    2.7068325   -2.7728804   -5.1073197  
C    2.9840719   -3.0253369   -8.1120179  
C    2.4693254   -1.8364986   -7.7205088  
C    2.8802713   -0.8929535   -8.7487825  
C    3.6568097   -1.7045604   -9.7104824  
N    3.7210102   -2.9553566   -9.3425462  
C    4.2454268   -1.1308426  -10.8892369  
C    4.0660960    0.1933941  -11.0979749  
O    4.5590388    0.8600211  -12.1556403  
C    3.2871887    1.0391869  -10.1460823  
O    3.1644207    2.2375357  -10.3992802  
C    2.6932798    0.4272392   -8.9441188  
H    4.8080747   -1.7475616  -11.5747985  
H    4.2666879    1.7803984  -12.0268416  
H    2.1362870    1.0740283   -8.2795489  
H    2.9020209   -3.9798997   -7.6169911  
C    0.8400945    0.7047457    2.2710304  
C    0.0000000    0.0000000    1.4700000  
C   -0.8844236   -0.7423113    2.3369512  
C   -0.4878984   -0.4098547    3.7186280  
N    0.5629682    0.4714286    3.6095011  
C   -1.0836927   -0.9095027    4.8308716  
C   -2.1891196   -1.8367527    4.6554461  
O   -2.7906899   -2.3413415    5.5944904  
C   -2.6257283   -2.2031529    3.2011665  
O   -3.5549479   -2.9829990    3.0410059  
C   -1.9068976   -1.5999348    2.0816745  
H   -0.7774656   -0.6525820    5.8354244  
H   -2.2155208   -1.8586617    1.0779135  
H    1.6384792    1.3747609    1.9961646  
H    1.0518368    0.8833920    4.3830260  
