58

C    0.9325845    0.0103071   -7.5332649  
C   -0.3318266    0.0094743   -7.0379479  
C   -1.2275872    0.0107298   -8.1704000  
C   -0.3752825    0.0123450   -9.3747104  
N    0.9231794    0.0124018   -8.9198609  
C   -0.8439187    0.0134441  -10.6483201  
C   -2.2838455    0.0132334  -10.8461739  
O   -2.8039463    0.0142192  -11.9542325  
C   -3.2054346    0.0117852   -9.5850328  
O   -4.4193187    0.0119021   -9.7391336  
C   -2.5831240    0.0104008   -8.2634506  
H   -0.6057489    0.0083158   -5.9979588  
H   -0.2015104    0.0144921  -11.5179306  
H   -3.2282274    0.0091976   -7.3953706  
H    1.7384139    0.0117947   -9.5050441  
C    1.7334697    0.0049246   -3.2500361  
C    3.0863255    0.0047397   -3.2131616  
C    3.4995612    0.0065858   -4.6080573  
C    2.2333965    0.0076343   -5.3718701  
N    1.1947440    0.0067484   -4.5811811  
C    2.2116347    0.0095933   -6.8087448  
C    3.4007174    0.0108544   -7.4532722  
O    3.5293445    0.0127180   -8.7909914  
C    4.6955627    0.0102160   -6.7106176  
O    5.7398275    0.0113184   -7.3623314  
C    4.6914543    0.0081551   -5.2368798  
H    3.7249597    0.0035937   -2.3464319  
H    4.4909160    0.0132669   -8.9476200  
H    5.6504359    0.0078667   -4.7362957  
C    1.1319247    0.0015655   -0.8009267  
C    0.7969916    0.0034943   -2.1169401  
C   -0.6453337    0.0035710   -2.1842668  
C   -1.1266832    0.0015433   -0.7896026  
N    0.0000000    0.0000000    0.0000000  
C   -2.4346130    0.0013964   -0.4276294  
C   -3.4350109    0.0031408   -1.4820183  
O   -4.6384610    0.0030973   -1.2583915  
C   -2.9478956    0.0050505   -2.9661075  
O   -3.7809378    0.0062218   -3.8623775  
C   -1.5113821    0.0053090   -3.2312122  
H   -2.7664565    0.0000232    0.6013446  
H   -1.1823527    0.0068407   -4.2614846  
H    2.1104317    0.0009391   -0.3488056  
C    2.4951002    2.0940188    2.9809380  
C    1.9440701    1.6314916    1.8291961  
C    0.8759964    0.7350050    2.2038498  
C    0.8497377    0.7130254    3.6788474  
N    1.8560616    1.5571714    4.0882609  
C   -0.0205033   -0.0168748    4.4215661  
C   -0.9962600   -0.8356168    3.7214979  
O   -1.8224391   -1.5286685    4.3006425  
C   -0.9864710   -0.8277881    2.1595606  
O   -1.8030528   -1.5133726    1.5592035  
C    0.0000000    0.0000000    1.4700000  
H    2.2509283    1.8888011    0.8310761  
H   -0.0229599   -0.0187323    5.5027230  
H    3.3143982    2.7817323    3.1139444  
H    2.0889452    1.7545833    5.0442112  
