58

C    0.8353407   -0.7266722   -5.2248496  
C    0.5761897   -0.5101812   -6.5401622  
C   -0.5291500    0.4165998   -6.6044784  
C   -0.8953242    0.7245273   -5.2088111  
N   -0.0307359   -0.0004648   -4.4215606  
C   -1.8966041    1.5648462   -4.8441094  
C   -2.6650489    2.2088125   -5.8964093  
O   -3.5865974    2.9820599   -5.6702711  
C   -2.2947869    1.8970770   -7.3815126  
O   -2.9349117    2.4330964   -8.2760428  
C   -1.1946309    0.9742393   -7.6496151  
H    1.0994937   -0.9497145   -7.3705699  
H   -2.1488378    1.7771609   -3.8144438  
H   -0.9444559    0.7638543   -8.6805735  
H    1.5860162   -1.3558034   -4.7747714  
C    3.2573667   -0.0002920   -1.5109386  
C    2.5379466   -0.0001709   -0.3591965  
C    1.1435040    0.0000332   -0.7338503  
C    1.1092604   -0.0000083   -2.2088478  
N    2.4227557    0.0001908   -2.6182616  
C   -0.0265538   -0.0002523   -2.9515663  
C   -1.3003040   -0.0002641   -2.2514979  
O   -2.3786787   -0.0004133   -2.8306426  
C   -1.2877728    0.0000312   -0.6895607  
O   -2.3539959    0.0003306   -0.0892033  
C    0.0000000    0.0000000    0.0000000  
H    2.9384091   -0.0000368    0.6389234  
H    2.7280486   -0.0013408   -3.5742120  
C    6.6174604   -0.0017052    1.3537075  
C    5.3857487   -0.0012520    0.7819025  
C    5.5854748   -0.0008506   -0.6481132  
C    7.0449748   -0.0011380   -0.8640996  
N    7.6133361   -0.0012552    0.3888392  
C    7.6418659   -0.0012961   -2.0828799  
C    6.7899759   -0.0009490   -3.2605124  
O    7.2316304   -0.0009951   -4.4021085  
C    5.2415214   -0.0003889   -3.0553448  
O    4.5141878    0.0002134   -4.0393397  
C    4.7161330   -0.0005435   -1.6923266  
H    4.4446710   -0.0010222    1.3024656  
H    8.7143816   -0.0016368   -2.2193397  
H    6.8814402   -0.0021131    2.3987935  
H    8.5996517   -0.0030077    0.5738412  
C    2.5128556    2.1077716    2.9199648  
C    1.9592212    1.6432552    4.0696553  
C    0.8915788    0.7479214    3.6910360  
C    0.8684491    0.7287414    2.2159470  
N    1.8754542    1.5738793    1.8102719  
C    0.0000000    0.0000000    1.4700000  
C   -0.9772830   -0.8200135    2.1664417  
O   -1.8021297   -1.5120829    1.5842315  
C   -0.9711318   -0.8147624    3.7284083  
O   -1.7894187   -1.5009653    4.3257297  
C    0.0140216    0.0115358    4.4216297  
H    2.2638494    1.8988021    5.0689105  
H    0.0117648    0.0094386    5.5031631  
H    3.3327358    2.7953732    2.7900019  
H    2.1123206    1.7707734    0.8551938  
