58

C   -3.7360894   -0.0009301   -7.0698328  
C   -4.3540671   -0.0009198   -5.8606271  
C   -5.7755067   -0.0011039   -6.1142911  
C   -5.9361428   -0.0012523   -7.5809153  
N   -4.6626056   -0.0007382   -8.1014852  
C   -7.1314771   -0.0018417   -8.2234716  
C   -8.3404848   -0.0021385   -7.4167278  
O   -9.4645612   -0.0026072   -7.9012390  
C   -8.1940242   -0.0017362   -5.8616214  
O   -9.2048219   -0.0016745   -5.1720209  
C   -6.8518503   -0.0013860   -5.2850612  
H   -3.8694671   -0.0006149   -4.9005355  
H   -7.2272784   -0.0020705   -9.3003801  
H   -6.7590810   -0.0013141   -4.2075096  
H   -4.4404341   -0.0022539   -9.0800997  
C   -0.2963294   -0.0005341   -4.3948471  
C    0.7407565   -0.0008427   -5.2643478  
C    0.1250899   -0.0009653   -6.5824732  
C   -1.3291521   -0.0008025   -6.3145841  
N   -1.5822799   -0.0004688   -5.0339923  
C   -2.2982581   -0.0008138   -7.3756781  
C   -1.8356090   -0.0005910   -8.6466189  
O   -2.6263952   -0.0005808   -9.7332175  
C   -0.3739300   -0.0003763   -8.9493643  
O   -0.0244446   -0.0003034  -10.1296528  
C    0.6002566   -0.0004130   -7.8435231  
H    1.7935280   -0.0008808   -5.0390752  
H   -2.0105071   -0.0003709  -10.4880914  
H    1.6500152   -0.0001376   -8.1047447  
C    3.1301143   -0.0010313   -1.7028257  
C    2.5367765   -0.0002767   -0.4864669  
C    1.1089900    0.0001027   -0.7656184  
C    1.0177864   -0.0004150   -2.2415133  
N    2.1993571   -0.0011613   -2.7963824  
C   -0.2459220   -0.0002879   -2.9257116  
C   -1.3675327   -0.0000606   -2.1698519  
O   -2.6129319    0.0000866   -2.6748482  
C   -1.3083588    0.0000910   -0.6783229  
O   -2.3693264    0.0004206   -0.0541685  
C    0.0000000    0.0000000    0.0000000  
H    3.0096014   -0.0001008    0.4807517  
H   -3.1967445    0.0002093   -1.8949025  
H    4.1849272   -0.0015113   -1.9271980  
C    2.5528530    2.1414826    2.8079335  
C    2.0663498    1.7338582    4.0032312  
C    0.9804344    0.8229586    3.6752840  
C    0.9495562    0.7966882    2.1971295  
N    1.8690446    1.5676019    1.6831036  
C    0.0000000    0.0000000    1.4700000  
C   -0.8785127   -0.7372425    2.1869543  
O   -1.8187535   -1.5261249    1.6395491  
C   -0.8723269   -0.7321790    3.6796354  
O   -1.7010379   -1.4274584    4.2670412  
C    0.1115397    0.0933559    4.4024240  
H    2.4028853    2.0163452    4.9860947  
H   -2.2861435   -1.9184361    2.3990168  
H    0.0832434    0.0693689    5.4835595  
H    3.3664920    2.8238276    2.6198634  
