58

C    3.4166198   -0.7237139   -3.0386504  
C    4.6505742   -0.5066207   -3.5623899  
C    4.4859769    0.4195039   -4.6578516  
C    3.0446499    0.7263903   -4.7298857  
N    2.4521480    0.0014830   -3.7217483  
C    2.4815918    1.5658684   -5.6353935  
C    3.3532913    2.2099643   -6.6038029  
O    2.9422598    2.9825017   -7.4596885  
C    4.8829911    1.8993248   -6.5461255  
O    5.6266962    2.4354621   -7.3565073  
C    5.3718613    0.9773332   -5.5239760  
H    5.5710251   -0.9453430   -3.2204743  
H    1.4219288    1.7774263   -5.6709974  
H    6.4323652    0.7677044   -5.4906539  
H    3.1306602   -1.3526353   -2.2112606  
C    0.0000000    0.0000000    0.0000000  
C    1.0662921   -0.0000106   -0.8334269  
C    0.4961870    0.0000059   -2.1718889  
C   -0.9663856   -0.0000854   -1.9540246  
N   -1.2632773   -0.0000087   -0.6828657  
C   -1.8985362   -0.0000522   -3.0477258  
C   -1.3925773    0.0004558   -4.3020541  
O   -2.1456384    0.0005402   -5.4151311  
C    0.0786236    0.0009315   -4.5544999  
O    0.4683762    0.0012578   -5.7221098  
C    1.0143167    0.0008435   -3.4159031  
H    2.1107198    0.0000631   -0.5721865  
H   -1.5042271    0.0009682   -6.1484419  
C   -4.2186864    2.1401319   -0.0437265  
C   -5.4804249    1.7323140   -0.3144300  
C   -5.3466896    0.8217459   -1.4411421  
C   -3.8965661    0.7958593   -1.7293375  
N   -3.2302258    1.5666940   -0.9133757  
C   -3.3460094   -0.0004268   -2.7913647  
C   -4.2050296   -0.7376515   -3.5315797  
O   -3.8298203   -1.5261798   -4.5530893  
C   -5.6737587   -0.7329698   -3.2651711  
O   -6.3965398   -1.4282098   -3.9789290  
C   -6.2140638    0.0921563   -2.1701083  
H   -6.3895960    2.0144738    0.1884311  
H   -4.6590776   -1.9185778   -4.8809749  
H   -7.2835615    0.0679002   -2.0094324  
H   -3.8917479    2.8223390    0.7248291  
C    1.0672568    0.0000697    2.3021913  
C    0.0000000    0.0000000    1.4700000  
C   -1.1601224    0.0000736    2.3478473  
C   -0.5938729    0.0000769    3.7138435  
N    0.7113367    0.0001554    3.6934124  
C   -1.4286986    0.0001879    4.8835240  
C   -2.7683114    0.0006799    4.6970523  
O   -3.6653903    0.0008304    5.6976972  
C   -3.3702025    0.0010610    3.3310774  
O   -4.5974910    0.0013779    3.2362962  
C   -2.4926826    0.0008943    2.1470656  
H   -0.9878360   -0.0000190    5.8697035  
H   -4.5324246    0.0012261    5.2533954  
H   -2.9677772    0.0012974    1.1752040  
H    2.1134392    0.0000545    2.0405121  
