60

C    3.3041274    0.0001178   -1.5420431  
C    2.5845372   -0.0004778   -0.3695856  
C    1.2040005   -0.0000006   -0.7283589  
C    1.1422373    0.0006040   -2.1454374  
N    2.4348641    0.0026114   -2.6077463  
C   -0.0655182    0.0008802   -2.8497917  
C   -1.2321768    0.0002328   -2.1101399  
O   -2.4392813    0.0001150   -2.7472522  
C   -1.1911211   -0.0000006   -0.6955264  
O   -2.4371522   -0.0002319   -0.1032865  
C    0.0000000    0.0000000    0.0000000  
H    3.0031537   -0.0000663    0.6222576  
H    2.7054629   -0.0071094   -3.5745259  
H   -3.1132989   -0.0000645   -2.0551791  
H   -2.3200278   -0.0004071    0.8516404  
H    4.3686619    0.0004073   -1.7024298  
C    2.2991554   -2.1048091   -5.8924436  
C    1.6888958   -1.6397487   -7.0128797  
C    0.6412938   -0.7448175   -6.5810647  
C    0.6916334   -0.7264666   -5.1066431  
N    1.7177149   -1.5716513   -4.7520884  
C   -0.1387083    0.0017024   -4.3179685  
C   -1.1495780    0.8219306   -4.9644229  
O   -1.9445181    1.5135270   -4.3414736  
C   -1.2212028    0.8175542   -6.5247612  
O   -2.0683181    1.5039448   -7.0802109  
C   -0.2716614   -0.0081802   -7.2666419  
H   -0.3277647   -0.0054785   -8.3467201  
H    3.1245930   -2.7923366   -5.8038531  
H    2.0018701   -1.7690374   -3.8101006  
C    2.0368114   -1.9882065   -8.3979546  
C    3.0119163   -2.8225420   -8.8276442  
C    2.9128197   -2.7993516  -10.2788995  
C    1.7942530   -1.8743602  -10.5613586  
N    1.2768660   -1.3956810   -9.4626481  
C    1.3731261   -1.5769315  -11.9027285  
C    2.0394194   -2.1760239  -12.9158814  
O    1.7535570   -1.9900975  -14.2157874  
C    3.1727115   -3.1140704  -12.6631405  
O    3.7335918   -3.6233498  -13.6333305  
C    3.5857620   -3.4030145  -11.2782850  
H    3.7120424   -3.3842701   -8.2332026  
H    0.5524081   -0.8972775  -12.0799337  
H    2.3952981   -2.5466349  -14.6928485  
H    4.4112145   -4.0878803  -11.1375127  
C    2.4951002    2.0940188    2.9809380  
C    1.9440701    1.6314916    1.8291961  
C    0.8759964    0.7350050    2.2038498  
C    0.8497377    0.7130254    3.6788474  
N    1.8560616    1.5571714    4.0882609  
C   -0.0205033   -0.0168748    4.4215661  
C   -0.9962600   -0.8356168    3.7214979  
O   -1.8224391   -1.5286685    4.3006425  
C   -0.9864710   -0.8277881    2.1595606  
O   -1.8030528   -1.5133726    1.5592035  
C    0.0000000    0.0000000    1.4700000  
H    2.2509283    1.8888011    0.8310761  
H   -0.0229599   -0.0187323    5.5027230  
H    3.3143982    2.7817323    3.1139444  
H    2.0889452    1.7545833    5.0442112  
