58

C   -7.6979663    0.0071297   -2.0094656  
C   -8.4033462    0.6818914   -1.0654258  
C   -9.7919998    0.3298440   -1.2458149  
C   -9.8381439   -0.6121041   -2.3804490  
N   -8.5364111   -0.7655586   -2.7985808  
C  -10.9727922   -1.1777593   -2.8645058  
C  -12.2326667   -0.8358629   -2.2254732  
O  -13.3089075   -1.2926165   -2.5879373  
C  -12.2074094    0.1598642   -1.0222716  
O  -13.2619326    0.4554297   -0.4764860  
C  -10.9221766    0.7038494   -0.5908669  
H   -7.9972489    1.3501354   -0.3270848  
H  -10.9847173   -1.8664985   -3.6978164  
H  -10.9132873    1.3924600    0.2430755  
H   -8.2407499   -1.3504982   -3.5585003  
C   -4.3359695    2.1064019   -0.0635820  
C   -5.5644951    1.6417188   -0.4083569  
C   -5.3776807    0.7467255   -1.5259088  
C   -3.9292261    0.7279266   -1.8059380  
N   -3.3543288    1.5729381   -0.8848846  
C   -3.3460097   -0.0004262   -2.7913647  
C   -4.2020390   -0.8203939   -3.6324361  
O   -3.7724544   -1.5121265   -4.5463637  
C   -5.7389983   -0.8155422   -3.3539782  
O   -6.4697262   -1.5017101   -4.0557400  
C   -6.2499650    0.0103542   -2.2628046  
H   -6.4953656    1.8969415    0.0659372  
H   -4.0651600    2.7938494    0.7212547  
H   -2.3726197    1.7700214   -0.8181561  
C    0.0000000    0.0000000    0.0000000  
C    1.0662919   -0.0000103   -0.8334272  
C    0.4961868    0.0000066   -2.1718889  
C   -0.9663860   -0.0000849   -1.9540248  
N   -1.2632775   -0.0000084   -0.6828659  
C   -1.8985364   -0.0000515   -3.0477258  
C   -1.3925778    0.0004567   -4.3020543  
O   -2.1456385    0.0005412   -5.4151314  
C    0.0786229    0.0009326   -4.5544999  
O    0.4683756    0.0012594   -5.7221104  
C    1.0143162    0.0008443   -3.4159034  
H    2.1107195    0.0000631   -0.5721869  
H   -1.5042277    0.0009692   -6.1484420  
H    2.0724151    0.0013151   -3.6409746  
C    1.0965515   -0.0001358    2.2710304  
C    0.0000000    0.0000000    1.4700000  
C   -1.1546562   -0.0001469    2.3369512  
C   -0.6372014   -0.0003519    3.7186280  
N    0.7342871   -0.0007337    3.6095011  
C   -1.4147739   -0.0001353    4.8308716  
C   -2.8576048    0.0001048    4.6554461  
O   -3.6427778    0.0002493    5.5944904  
C   -3.4275839    0.0000726    3.2011665  
O   -4.6406829   -0.0000333    3.0410059  
C   -2.4891866    0.0001091    2.0816745  
H   -1.0150448   -0.0001615    5.8354244  
H   -2.8919121    0.0002919    1.0779135  
H    2.1388271   -0.0000662    1.9961646  
H    1.3735872    0.0006099    4.3830260  
