58

C    0.7572363    0.1909462   -8.8604862  
C    1.8373398   -0.4673854   -9.3545025  
C    1.9629658   -0.0884003  -10.7420993  
C    0.8596197    0.8514500  -11.0179601  
N    0.1656193    0.9780953   -9.8367672  
C    0.6318998    1.4382228  -12.2202683  
C    1.5335462    1.1228948  -13.3157770  
O    1.4124154    1.5999354  -14.4365175  
C    2.7087311    0.1298597  -13.0462832  
O    3.4741249   -0.1434386  -13.9610182  
C    2.8519643   -0.4383555  -11.7081997  
H    2.4733625   -1.1416892   -8.8091561  
H   -0.1832203    2.1249875  -12.4014990  
H    3.6683637   -1.1249302  -11.5297890  
H   -0.6445291    1.5551820   -9.7038068  
C    2.0552328   -2.0117599   -5.3319189  
C    1.1441931   -1.6301400   -4.4067424  
C    0.2595427   -0.7123099   -5.1078001  
C    0.7977759   -0.6538170   -6.4838335  
N    1.8503501   -1.4135518   -6.6212388  
C    0.1930639    0.1584618   -7.5034477  
C   -0.8998977    0.8792305   -7.1639457  
O   -1.5649252    1.6797249   -8.0142325  
C   -1.4671326    0.8410360   -5.7837474  
O   -2.4638604    1.5229394   -5.5454999  
C   -0.8287665    0.0000939   -4.7555305  
H    1.0803196   -1.9340246   -3.3758935  
H   -2.2915648    2.0548233   -7.4846580  
H    2.8844091   -2.6899001   -5.2071572  
C    1.0672569   -0.0000698   -0.8321910  
C    0.0000000    0.0000000    0.0000000  
C   -1.1601223   -0.0000736   -0.8778472  
C   -0.5938729   -0.0000768   -2.2438435  
N    0.7113367   -0.0001553   -2.2234123  
C   -1.4286985   -0.0001877   -3.4135239  
C   -2.7683113   -0.0006798   -3.2270524  
O   -3.6653902   -0.0008302   -4.2276970  
C   -3.3702024   -0.0010610   -1.8610774  
O   -4.5974910   -0.0013779   -1.7662963  
C   -2.4926825   -0.0008943   -0.6770658  
H   -4.5324245   -0.0012258   -3.7833954  
H   -2.9677772   -0.0012974    0.2947961  
H    2.1134391   -0.0000547   -0.5705119  
C    0.8175213    0.6860729    2.3021913  
C    0.0000000    0.0000000    1.4700000  
C   -0.8887526   -0.7456559    2.3478473  
C   -0.4549825   -0.3816753    3.7138435  
N    0.5448156    0.4573574    3.6934124  
C   -1.0945674   -0.9182058    4.8835240  
C   -2.1210866   -1.7789155    4.6970523  
O   -2.8083856   -2.3554314    5.6976972  
C   -2.5824069   -2.1655116    3.3310774  
O   -3.5227682   -2.9541547    3.2362962  
C   -1.9100805   -1.6015804    2.1470656  
H   -0.7567140   -0.6349833    5.8697035  
H   -3.4728268   -2.9124471    5.2533954  
H   -2.2742832   -1.9066565    1.1752040  
H    1.6189533    1.3585343    2.0405121  
