62

C    3.3041269    0.0001180   -1.5420440  
C    2.5845369   -0.0004778   -0.3695863  
C    1.2040001   -0.0000004   -0.7283596  
C    1.1422367    0.0006041   -2.1454377  
N    2.4348632    0.0026118   -2.6077472  
C   -0.0655191    0.0008805   -2.8497920  
C   -1.2321774    0.0002330   -2.1101397  
O   -2.4392828    0.0001156   -2.7472515  
C   -1.1911212   -0.0000004   -0.6955259  
O   -2.4371524   -0.0002317   -0.1032858  
C    0.0000000    0.0000000    0.0000000  
H    3.0031536   -0.0000660    0.6222569  
H    2.7054620   -0.0071092   -3.5745270  
H   -3.1132995   -0.0000643   -2.0551781  
H   -2.3200275   -0.0004071    0.8516414  
H    4.3686615    0.0004074   -1.7024307  
C    2.3129701   -2.1206335   -5.9853346  
C    1.8203197   -1.6593250   -4.7866029  
C    0.7463499   -0.7716021   -5.0917862  
C    0.6289197   -0.7306562   -6.5047477  
N    1.5963326   -1.5595237   -7.0163222  
C   -0.3301700    0.0460735   -7.1617302  
C   -1.1865083    0.7948790   -6.3780511  
O   -2.1420048    1.5708512   -6.9678864  
C   -1.0848083    0.7675257   -4.9667656  
O   -2.0089569    1.5677390   -4.3272717  
C   -0.1387095    0.0017026   -4.3179683  
H    2.1903004   -1.9285739   -3.8121224  
H    1.7490254   -1.7403223   -7.9920158  
H   -0.4247493    0.0817375   -8.2382915  
H   -2.6234336    2.0034617   -6.2507119  
H   -1.8718982    1.4918044   -3.3780339  
C    4.9584254   -4.2283454   -3.2382243  
C    5.7509171   -4.9260696   -4.0848153  
C    5.2749638   -4.5798703   -5.4152721  
C    4.1607821   -3.6368502   -5.1788464  
N    3.9706032   -3.4268824   -3.9045876  
C    3.4146383   -3.0543135   -6.2600520  
C    3.7658558   -3.3979211   -7.5201768  
O    3.1563808   -2.9307147   -8.6230360  
C    4.8858810   -4.3467107   -7.7912870  
O    5.1504944   -4.6144816   -8.9632508  
C    5.6360194   -4.9308908   -6.6652533  
H    6.5587692   -5.5932022   -3.8370561  
H    3.6265771   -3.3535786   -9.3641527  
H    6.4403587   -5.6138244   -6.9037288  
H    4.9900062   -4.2121120   -2.1603965  
C    0.8400945    0.7047457    2.2710304  
C    0.0000000    0.0000000    1.4700000  
C   -0.8844236   -0.7423113    2.3369512  
C   -0.4878984   -0.4098547    3.7186280  
N    0.5629682    0.4714286    3.6095011  
C   -1.0836927   -0.9095027    4.8308716  
C   -2.1891196   -1.8367527    4.6554461  
O   -2.7906899   -2.3413415    5.5944904  
C   -2.6257283   -2.2031529    3.2011665  
O   -3.5549479   -2.9829990    3.0410059  
C   -1.9068976   -1.5999348    2.0816745  
H   -0.7774656   -0.6525820    5.8354244  
H   -2.2155208   -1.8586617    1.0779135  
H    1.6384792    1.3747609    1.9961646  
H    1.0518368    0.8833920    4.3830260  
