60

C   -1.1187828    0.0135304   -0.8003805  
C    0.0000000    0.0000000    0.0000000  
C    1.1322818   -0.0154155   -0.8673525  
C    0.6381884   -0.0101550   -2.1969277  
N   -0.7323907    0.0055474   -2.1202239  
C    1.4769347   -0.0216789   -3.3154806  
C    2.8392870   -0.0385187   -3.0876856  
O    3.7035839   -0.0499545   -4.1440346  
C    3.3514932   -0.0443882   -1.7684330  
O    4.7296441   -0.0619116   -1.7073123  
C    2.5246348   -0.0333000   -0.6644816  
H   -1.3574476    0.0230317   -2.9057039  
H    4.5935974   -0.0611124   -3.7685130  
H    4.9930397   -0.0647802   -0.7819912  
H    2.9460084   -0.0383537    0.3339657  
H   -2.1618233    0.0267980   -0.5342064  
C    0.9734975   -0.0165350   -4.6965757  
C   -0.3136508   -0.0007371   -5.1144023  
C   -0.2364583   -0.0029520   -6.5671710  
C    1.2121601   -0.0212779   -6.8634010  
N    1.9264113   -0.0293864   -5.7708039  
C    1.7132980   -0.0287362   -8.2102090  
C    0.8083966   -0.0187476   -9.2153902  
O    1.1346533   -0.0240276  -10.5190657  
C   -0.6601756   -0.0005809   -8.9486948  
O   -1.4262068    0.0078831   -9.9122012  
C   -1.1492653    0.0068178   -7.5584926  
H   -1.2053650    0.0108828   -4.5112542  
H    0.2809386   -0.0141472  -10.9883483  
H   -2.2203760    0.0199073   -7.4075620  
C    3.1609189   -0.0467314   -8.4650997  
C    4.1867113   -0.0585552   -7.5753327  
C    5.4096052   -0.0741975   -8.3428748  
C    5.0093048   -0.0704616   -9.7629227  
N    3.6335919   -0.0540002   -9.7686594  
C    5.8769349   -0.0815763  -10.8063783  
C    7.2999856   -0.0985633  -10.5111278  
O    8.1607336   -0.1095487  -11.3813532  
C    7.7465608   -0.1030511   -9.0143454  
O    8.9419678   -0.1176196   -8.7534828  
C    6.7180770   -0.0897176   -7.9770920  
H    4.0969549   -0.0567307   -6.5036264  
H    5.5624693   -0.0784519  -11.8407913  
H    7.0355971   -0.0927233   -6.9432176  
H    3.0611444   -0.0462041  -10.5928500  
C    0.8400945    0.7047457    2.2710304  
C    0.0000000    0.0000000    1.4700000  
C   -0.8844236   -0.7423113    2.3369512  
C   -0.4878984   -0.4098547    3.7186280  
N    0.5629682    0.4714286    3.6095011  
C   -1.0836927   -0.9095027    4.8308716  
C   -2.1891196   -1.8367527    4.6554461  
O   -2.7906899   -2.3413415    5.5944904  
C   -2.6257283   -2.2031529    3.2011665  
O   -3.5549479   -2.9829990    3.0410059  
C   -1.9068976   -1.5999348    2.0816745  
H   -0.7774656   -0.6525820    5.8354244  
H   -2.2155208   -1.8586617    1.0779135  
H    1.6384792    1.3747609    1.9961646  
H    1.0518368    0.8833920    4.3830260  
