58

C    4.3050455   -2.1060734   -1.2837814  
C    5.3776643   -1.6422071   -1.9754413  
C    4.8702530   -0.7476996   -2.9889626  
C    3.4035842   -0.7282960   -2.8299163  
N    3.1252151   -1.5725288   -1.7798349  
C    2.5562214   -0.0001544   -3.6003003  
C    3.1268007    0.8189311   -4.6567442  
O    2.4473016    1.5104100   -5.4040322  
C    4.6775894    0.8134277   -4.8433711  
O    5.1694169    1.4988510   -5.7296899  
C    5.4870240   -0.0121647   -3.9505863  
H    6.4068563   -1.8976650   -1.7962261  
H    4.2772018   -2.7929712   -0.4535488  
H    2.2066515   -1.7690685   -1.4267625  
C    0.0000000    0.0000000    0.0000000  
C    1.0541685   -0.0001720   -0.8560390  
C    0.5103140   -0.0000452   -2.1935956  
C   -0.9576367    0.0002459   -2.0455733  
N   -1.2018465   -0.0001393   -0.6915970  
C   -1.8348309    0.0008314   -3.0810611  
C   -1.2972847    0.0009735   -4.4314606  
O   -2.0050669    0.0014264   -5.4301319  
C    0.2542621    0.0004186   -4.6117571  
O    0.7184673    0.0002261   -5.7439123  
C    1.0974553    0.0000877   -3.4189130  
H    2.0940750   -0.0005479   -0.5817981  
H   -2.9081054    0.0011665   -2.9507061  
H   -2.1128196    0.0014908   -0.2706793  
C    8.4614981   -3.2363276   -3.7490517  
C    9.5850184   -2.5226992   -4.0183314  
C    9.1764112   -1.1514672   -4.2122348  
C    7.7122488   -1.1245268   -4.0325312  
N    7.3408351   -2.4197332   -3.7543547  
C    6.9454062   -0.0095590   -4.1350194  
C    7.6061904    1.2478177   -4.4430830  
O    7.0031284    2.3069657   -4.5563235  
C    9.1559950    1.2426111   -4.6377229  
O    9.7233154    2.2951404   -4.8977020  
C    9.8741584   -0.0221738   -4.5020322  
H   10.5857797   -2.9124339   -4.0748754  
H   10.9470904   -0.0171997   -4.6381063  
H    8.3578858   -4.2901238   -3.5473888  
H    6.4007606   -2.7244586   -3.5798566  
C    3.3321173   -0.0004715    2.8079335  
C    2.6974184   -0.0000116    4.0032312  
C    1.2800439    0.0002118    3.6752840  
C    1.2395035   -0.0000644    2.1971295  
N    2.4394063   -0.0005460    1.6831036  
C    0.0000000    0.0000000    1.4700000  
C   -1.1468701   -0.0000635    2.1869543  
O   -2.3742202   -0.0000073    1.6395491  
C   -1.1388768   -0.0001607    3.6796354  
O   -2.2206231   -0.0000905    4.2670412  
C    0.1454524   -0.0001816    4.4024240  
H    3.1367986    0.0000651    4.9860947  
H   -2.9844344   -0.0001026    2.3990168  
H    0.1083576   -0.0003682    5.4835595  
H    4.3940039   -0.0007619    2.6198634  
