58

C    2.1715025   -3.2317157   -9.9846606  
C    1.6062800   -2.5494494   -8.9555293  
C    1.5117745   -1.1687369   -9.3672793  
C    2.0722630   -1.1020655  -10.7304359  
N    2.4543612   -2.3855145  -11.0461109  
C    2.1629295    0.0322757  -11.4698653  
C    1.6761925    1.2701451  -10.8839448  
O    1.7139603    2.3443185  -11.4696293  
C    1.0788353    1.2229421   -9.4414670  
O    0.6661721    2.2588636   -8.9376465  
C    1.0343283   -0.0598046   -8.7440205  
H    1.2916425   -2.9658453   -8.0151942  
H    2.5774151    0.0594485  -12.4680495  
H    2.4054027   -4.2814611  -10.0568794  
H    2.8722752   -2.6648558  -11.9146517  
C    2.0485059   -2.1404838   -4.9352596  
C    2.0920573   -1.7327542   -6.2250031  
C    0.9665701   -0.8221932   -6.3687265  
C    0.3351125   -0.7962139   -5.0318758  
N    0.9649966   -1.5669927   -4.1874018  
C   -0.8287665    0.0000939   -4.7555305  
C   -1.3384137    0.7372507   -5.7685430  
O   -2.4204376    1.5257895   -5.6524722  
C   -0.7235766    0.7324748   -7.1287316  
O   -1.2406169    1.4276564   -8.0031532  
C    0.4698625   -0.0926719   -7.3871127  
H    2.8005017   -2.0149674   -6.9849629  
H   -2.5373015    1.9181275   -6.5365349  
H    2.7147577   -2.8226585   -4.4315535  
C    1.0672569   -0.0000698   -0.8321910  
C    0.0000000    0.0000000    0.0000000  
C   -1.1601223   -0.0000736   -0.8778472  
C   -0.5938729   -0.0000768   -2.2438435  
N    0.7113367   -0.0001553   -2.2234123  
C   -1.4286985   -0.0001877   -3.4135239  
C   -2.7683113   -0.0006798   -3.2270524  
O   -3.6653902   -0.0008302   -4.2276970  
C   -3.3702024   -0.0010610   -1.8610774  
O   -4.5974910   -0.0013779   -1.7662963  
C   -2.4926825   -0.0008943   -0.6770658  
H   -4.5324245   -0.0012258   -3.7833954  
H   -2.9677772   -0.0012974    0.2947961  
H    2.1134391   -0.0000547   -0.5705119  
C    2.5528530    2.1414826    2.8079335  
C    2.0663498    1.7338582    4.0032312  
C    0.9804344    0.8229586    3.6752840  
C    0.9495562    0.7966882    2.1971295  
N    1.8690446    1.5676019    1.6831036  
C    0.0000000    0.0000000    1.4700000  
C   -0.8785127   -0.7372425    2.1869543  
O   -1.8187535   -1.5261249    1.6395491  
C   -0.8723269   -0.7321790    3.6796354  
O   -1.7010379   -1.4274584    4.2670412  
C    0.1115397    0.0933559    4.4024240  
H    2.4028853    2.0163452    4.9860947  
H   -2.2861435   -1.9184361    2.3990168  
H    0.0832434    0.0693689    5.4835595  
H    3.3664920    2.8238276    2.6198634  
