60

C    0.0000000    0.0000000    0.0000000  
C    1.0521663   -0.0011848   -0.8862345  
C    0.4917204   -0.0011931   -2.1979132  
C   -0.9187440    0.0003103   -2.0478677  
N   -1.1833178   -0.0009469   -0.7007906  
C   -1.7951715    0.0010260   -3.1372080  
C   -1.2375860    0.0005162   -4.4010418  
O   -2.0474246    0.0015258   -5.4997565  
C    0.1673554   -0.0013555   -4.5711965  
O    0.5673495   -0.0020658   -5.8915552  
C    1.0325749   -0.0023359   -3.4969894  
H    2.0953051   -0.0030544   -0.6200571  
H   -2.0989782    0.0102266   -0.2891815  
H   -2.8710950    0.0020277   -3.0295498  
H   -1.4634918    0.0006423   -6.2693584  
H    1.5290678   -0.0033073   -5.9180051  
C    4.3492359   -2.0980064   -1.4710681  
C    3.1288583   -1.6343795   -1.8449721  
C    3.3413761   -0.7396446   -2.9581301  
C    4.7960275   -0.7198915   -3.2038732  
N    5.3496945   -1.5635224   -2.2686574  
C    5.4017582    0.0079301   -4.1760207  
C    4.5652013    0.8266244   -5.0376746  
O    5.0157004    1.5178902   -5.9418338  
C    3.0221456    0.8211333   -4.7952838  
O    2.3077276    1.5066991   -5.5142178  
C    2.4861679   -0.0045255   -3.7159933  
H    2.1872594   -1.8898593   -1.3924955  
H    4.6019212   -2.7850026   -0.6798181  
H    6.3294132   -1.7620983   -2.1805306  
C    8.6213937   -3.0734302   -4.1159620  
C    7.4033177   -2.4893752   -4.0338071  
C    7.6412471   -1.0834536   -4.3223788  
C    9.0976582   -0.9934118   -4.5618438  
N    9.6775372   -2.1567861   -4.4423050  
C    9.7403130    0.2510067   -4.8835638  
C    8.9632765    1.3552086   -4.9628502  
O    9.4292814    2.5815630   -5.2542859  
C    7.4905021    1.2966357   -4.7269121  
O    6.8452881    2.3411765   -4.8155379  
C    6.8548512    0.0082622   -4.3983299  
H    6.4598561   -2.9551044   -3.8056572  
H   10.8064826    0.2876905   -5.0534097  
H    8.6427582    3.1562278   -5.2370990  
H    8.8712371   -4.1120277   -3.9680872  
C    1.1319247   -0.0015655    2.2709268  
C    0.7969915   -0.0034943    3.5869401  
C   -0.6453339   -0.0035710    3.6542670  
C   -1.1266833   -0.0015433    2.2596025  
N    0.0000000    0.0000000    1.4700000  
C   -2.4346130   -0.0013964    1.8976294  
C   -3.4350110   -0.0031408    2.9520183  
O   -4.6384611   -0.0030974    2.7283916  
C   -2.9478959   -0.0050506    4.4361073  
O   -3.7809380   -0.0062218    5.3323774  
C   -1.5113823   -0.0053090    4.7012123  
H    1.4821238   -0.0045407    4.4159191  
H   -2.7664565   -0.0000232    0.8686553  
H   -1.1823530   -0.0068408    5.7314848  
H    2.1104316   -0.0009391    1.8188057  
