64

C    6.7748111   -0.0038151    1.2764663  
C    5.5082322   -0.0036675    0.7395818  
C    5.6573263   -0.0010632   -0.6789964  
C    7.0493884    0.0000129   -0.9511882  
N    7.6991164    0.0002432    0.2581382  
C    7.5659486    0.0022548   -2.2503994  
C    6.6607399    0.0031247   -3.2938430  
O    7.1109049    0.0049537   -4.5823933  
C    5.2680304    0.0024511   -3.0424943  
O    4.4967633    0.0038934   -4.1863859  
C    4.7577216    0.0005129   -1.7610467  
H    4.5898234   -0.0041378    1.3012932  
H    8.6258306    0.0032289   -2.4645281  
H    6.3261382    0.0055797   -5.1457817  
H    3.5699424    0.0032894   -3.9283021  
H    7.0920038   -0.0050485    2.3052258  
C   10.2874235   -2.1358369    3.1385396  
C   11.4923465   -1.6508890    2.6852700  
C   11.2059170   -0.7779680    1.5941385  
C    9.7974600   -0.7695563    1.4265036  
N    9.2706290   -1.6059825    2.3791097  
C    9.1578759   -0.0141921    0.4390093  
C    9.9546126    0.7467752   -0.3942460  
O    9.3819535    1.5034764   -1.3753056  
C   11.3617059    0.7512397   -0.2429621  
O   12.0157033    1.5593636   -1.1499172  
C   11.9933709    0.0060879    0.7308320  
H   12.4589248   -1.8969804    3.0904350  
H    8.2929452   -1.7920249    2.5114107  
H   10.1060111    1.9486683   -1.8344449  
H   12.9609574    1.5053320   -0.9790996  
H   13.0729717    0.0294428    0.8224559  
H   10.0729639   -2.8188730    3.9425469  
C    3.3041270    0.0001177   -1.5420435  
C    2.5845370   -0.0004780   -0.3695856  
C    1.2040004   -0.0000007   -0.7283590  
C    1.1422370    0.0006038   -2.1454373  
N    2.4348634    0.0026110   -2.6077469  
C   -0.0655187    0.0008799   -2.8497918  
C   -1.2321769    0.0002326   -2.1101398  
O   -2.4392822    0.0001149   -2.7472517  
C   -1.1911211   -0.0000007   -0.6955263  
O   -2.4371526   -0.0002319   -0.1032858  
C    0.0000000    0.0000000    0.0000000  
H    3.0031534   -0.0000661    0.6222578  
H    2.7054623   -0.0071098   -3.5745266  
H   -0.1193555    0.0014846   -3.9297472  
H   -3.1132992   -0.0000646   -2.0551783  
H   -2.3200279   -0.0004070    0.8516411  
C    2.4951002    2.0940188    2.9809380  
C    1.9440701    1.6314916    1.8291961  
C    0.8759964    0.7350050    2.2038498  
C    0.8497377    0.7130254    3.6788474  
N    1.8560616    1.5571714    4.0882609  
C   -0.0205033   -0.0168748    4.4215661  
C   -0.9962600   -0.8356168    3.7214979  
O   -1.8224391   -1.5286685    4.3006425  
C   -0.9864710   -0.8277881    2.1595606  
O   -1.8030528   -1.5133726    1.5592035  
C    0.0000000    0.0000000    1.4700000  
H    2.2509283    1.8888011    0.8310761  
H   -0.0229599   -0.0187323    5.5027230  
H    3.3143982    2.7817323    3.1139444  
H    2.0889452    1.7545833    5.0442112  
