58

C    0.1432666   -2.9352636   -9.4605527  
C    0.3702055   -2.5558061  -10.7445255  
C    0.0775558   -1.1441307  -10.8242996  
C   -0.3414573   -0.7292824   -9.4718508  
N   -0.2803697   -1.8613760   -8.6924134  
C   -0.7023856    0.5341389   -9.1324357  
C   -0.6766457    1.5533407  -10.1683415  
O   -0.9839916    2.7201690   -9.9625481  
C   -0.2363593    1.1363588  -11.6078131  
O   -0.2110754    1.9857199  -12.4882723  
C    0.1302917   -0.2564695  -11.8516331  
H    0.7042929   -3.1922259  -11.5445048  
H    0.4341902   -0.5369792  -12.8509752  
H    0.2496561   -3.9091132   -9.0108993  
H   -0.5065433   -1.9009189   -7.7155154  
C    0.8834465   -0.6856113   -5.2614096  
C    0.0950446    0.0004351   -4.4015596  
C   -0.8231764    0.7463694   -5.2482896  
C   -0.4365567    0.3825625   -6.6284179  
N    0.5632291   -0.4566167   -6.6424233  
C   -1.1157948    0.9193863   -7.7753883  
C   -2.1351879    1.7802104   -7.5536826  
O   -2.8563098    2.3569973   -8.5300741  
C   -2.5493389    2.1666368   -6.1726267  
O   -3.4857795    2.9553980   -6.0455236  
C   -1.8368911    1.6024053   -5.0124607  
H   -3.5050417    2.9140315   -8.0631562  
H   -2.1675083    1.9073660   -4.0286305  
H    1.6932801   -1.3582325   -5.0274788  
C    3.3321173    0.0004713   -1.3379338  
C    2.6974181    0.0000116   -2.5332314  
C    1.2800438   -0.0002119   -2.2052841  
C    1.2395034    0.0000643   -0.7271299  
N    2.4394062    0.0005460   -0.2131038  
C    0.0000000    0.0000000    0.0000000  
C   -1.1468702    0.0000634   -0.7169543  
O   -2.3742203    0.0000074   -0.1695487  
C   -1.1388770    0.0001607   -2.2096355  
O   -2.2206234    0.0000905   -2.7970411  
C    0.1454522    0.0001815   -2.9324241  
H    3.1367984   -0.0000653   -3.5160950  
H   -2.9844346    0.0001026   -0.9290167  
H    4.3940038    0.0007618   -1.1498640  
C    2.5128556    2.1077716    2.9199648  
C    1.9592212    1.6432552    4.0696553  
C    0.8915788    0.7479214    3.6910360  
C    0.8684491    0.7287414    2.2159470  
N    1.8754542    1.5738793    1.8102719  
C    0.0000000    0.0000000    1.4700000  
C   -0.9772830   -0.8200135    2.1664417  
O   -1.8021297   -1.5120829    1.5842315  
C   -0.9711318   -0.8147624    3.7284083  
O   -1.7894187   -1.5009653    4.3257297  
C    0.0140216    0.0115358    4.4216297  
H    2.2638494    1.8988021    5.0689105  
H    0.0117648    0.0094386    5.5031631  
H    3.3327358    2.7953732    2.7900019  
H    2.1123206    1.7707734    0.8551938  
