58

C    6.2303957   -2.3589464   -6.2373743  
C    5.8009416   -1.0748222   -6.3406657  
C    6.6478539   -0.4245750   -7.3126491  
C    7.6128161   -1.4424383   -7.7704641  
N    7.3063605   -2.5924928   -7.0802829  
C    8.5842416   -1.2215069   -8.6919976  
C    8.6863335    0.1075314   -9.2714542  
O    9.5275134    0.4061896  -10.1090228  
C    7.6749567    1.2010192   -8.8011292  
O    7.7513672    2.3237256   -9.2817040  
C    6.6716207    0.8428723   -7.8016804  
H    9.2819061   -1.9820659   -9.0140607  
H    5.9749479    1.6056749   -7.4815182  
H    5.8515162   -3.1542637   -5.6162378  
H    7.7886166   -3.4673338   -7.1758302  
C    4.3913909   -0.7046358   -4.2635300  
C    3.2973506   -0.0000934   -3.8752374  
C    2.8435632    0.7418821   -5.0277931  
C    3.7695327    0.4094499   -6.1272744  
N    4.6845872   -0.4714999   -5.5986041  
C    3.6794132    0.9088338   -7.3859241  
C    2.5984068    1.8357538   -7.6770942  
O    2.4323273    2.3400889   -8.7799829  
C    1.6062047    2.2021224   -6.5276970  
O    0.6923301    2.9816918   -6.7608611  
C    1.8057158    1.5992068   -5.2121969  
H    4.3690172    0.6519365   -8.1779845  
H    1.1142468    1.8579094   -4.4218375  
H    5.0082527   -1.3743839   -3.6866343  
C    3.3321174    0.0004714   -1.3379332  
C    2.6974186    0.0000115   -2.5332308  
C    1.2800441   -0.0002119   -2.2052838  
C    1.2395035    0.0000643   -0.7271293  
N    2.4394063    0.0005458   -0.2131034  
C    0.0000000    0.0000000    0.0000000  
C   -1.1468701    0.0000634   -0.7169542  
O   -2.3742201    0.0000072   -0.1695492  
C   -1.1388767    0.0001606   -2.2096354  
O   -2.2206229    0.0000903   -2.7970413  
C    0.1454526    0.0001815   -2.9324239  
H   -2.9844344    0.0001023   -0.9290168  
H    0.1083580    0.0003680   -4.0135594  
H    4.3940040    0.0007617   -1.1498630  
C    0.8400945    0.7047457    2.2710304  
C    0.0000000    0.0000000    1.4700000  
C   -0.8844236   -0.7423113    2.3369512  
C   -0.4878984   -0.4098547    3.7186280  
N    0.5629682    0.4714286    3.6095011  
C   -1.0836927   -0.9095027    4.8308716  
C   -2.1891196   -1.8367527    4.6554461  
O   -2.7906899   -2.3413415    5.5944904  
C   -2.6257283   -2.2031529    3.2011665  
O   -3.5549479   -2.9829990    3.0410059  
C   -1.9068976   -1.5999348    2.0816745  
H   -0.7774656   -0.6525820    5.8354244  
H   -2.2155208   -1.8586617    1.0779135  
H    1.6384792    1.3747609    1.9961646  
H    1.0518368    0.8833920    4.3830260  
