58

C    6.3890371    0.0020110   -5.8870487  
C    7.3950747    0.0024104   -6.7991687  
C    6.7792594    0.0022852   -8.1051575  
C    5.3215353    0.0018058   -7.8774956  
N    5.1513473    0.0012603   -6.5122392  
C    4.3893078    0.0019581   -8.8637288  
C    4.8525940    0.0024136  -10.2413723  
O    4.0915304    0.0025206  -11.2000603  
C    6.3920348    0.0026736  -10.5058081  
O    6.7939616    0.0027507  -11.6615411  
C    7.2988717    0.0027544   -9.3606020  
H    8.4483598    0.0025711   -6.5819068  
H    3.3247145    0.0017291   -8.6751794  
H    8.3632948    0.0031402   -9.5522472  
H    4.2646204    0.0024044   -6.0423861  
C    6.4690072    0.0019754   -4.4192254  
C    7.5790601    0.0025228   -3.6450408  
C    7.0826136    0.0021759   -2.2775463  
C    5.6103549    0.0015082   -2.4155215  
N    5.2447501    0.0013071   -3.6686466  
C    4.7390840    0.0009613   -1.2727298  
C    5.3125312    0.0006873   -0.0477836  
O    4.6211392    0.0001822    1.1046130  
C    6.7952868    0.0009743    0.1242526  
O    7.2479824    0.0008233    1.2689304  
C    7.6676528    0.0015789   -1.0635611  
H    8.6077290    0.0030016   -3.9627129  
H    5.3014936    0.0000716    1.8019441  
H    8.7364287    0.0016559   -0.8963857  
C    3.2798077    0.0005856   -1.4499661  
C    2.5571132    0.0005565   -2.5996564  
C    1.1637425    0.0001547   -2.2210366  
C    1.1336959   -0.0000200   -0.7459475  
N    2.4483509   -0.0001429   -0.3402730  
C    0.0000000    0.0000000    0.0000000  
C   -1.2757370   -0.0000187   -0.6964411  
O   -2.3524597   -0.0000640   -0.1142306  
C   -1.2676502   -0.0000874   -2.2584078  
O   -2.3355774   -0.0004102   -2.8557287  
C    0.0181551    0.0001758   -2.9516297  
H    2.9547342    0.0006074   -3.5989118  
H    0.0150776    0.0003317   -4.0331632  
H    2.7563626    0.0012823    0.6148051  
C    2.4951002    2.0940188    2.9809380  
C    1.9440701    1.6314916    1.8291961  
C    0.8759964    0.7350050    2.2038498  
C    0.8497377    0.7130254    3.6788474  
N    1.8560616    1.5571714    4.0882609  
C   -0.0205033   -0.0168748    4.4215661  
C   -0.9962600   -0.8356168    3.7214979  
O   -1.8224391   -1.5286685    4.3006425  
C   -0.9864710   -0.8277881    2.1595606  
O   -1.8030528   -1.5133726    1.5592035  
C    0.0000000    0.0000000    1.4700000  
H    2.2509283    1.8888011    0.8310761  
H   -0.0229599   -0.0187323    5.5027230  
H    3.3143982    2.7817323    3.1139444  
H    2.0889452    1.7545833    5.0442112  
