58

C    1.4554336   -1.0577621   -9.4578209  
C    0.9539741    0.0203355   -8.8018333  
C    1.1207065    1.1588761   -9.6740493  
C    1.7650013    0.6520707  -10.9007615  
N    1.9412715   -0.6984213  -10.7058490  
C    2.0915584    1.4197440  -11.9711552  
C    1.7884196    2.8399598  -11.9109149  
O    2.0434950    3.6147988  -12.8235282  
C    1.1064241    3.3983834  -10.6213999  
O    0.8466855    4.5924975  -10.5590521  
C    0.8025224    2.4723056   -9.5333400  
H    2.5636603    1.0280984  -12.8614602  
H    0.3301198    2.8668756   -8.6440286  
H    1.5111352   -2.0845103   -9.1344401  
H    2.3568054   -1.3266258  -11.3689764  
C    2.0663728   -2.0930018   -5.1167673  
C    1.0931323   -1.6308353   -4.2901597  
C    0.2706810   -0.7345479   -5.0680273  
C    0.8486737   -0.7122925   -6.4253117  
N    1.9347265   -1.5561046   -6.3884397  
C    0.3570947    0.0175291   -7.4584692  
C   -0.8196660    0.8358892   -7.2175209  
O   -1.3377655    1.5288423   -8.0833674  
C   -1.4481800    0.8277637   -5.7875875  
O   -2.4388901    1.5130258   -5.5727158  
C   -0.8287665    0.0000939   -4.7555305  
H    0.9660022   -1.8882583   -3.2537306  
H    2.8688295   -2.7804818   -4.9038726  
H    2.5375336   -1.7532742   -7.1661248  
C    1.0672569   -0.0000698   -0.8321910  
C    0.0000000    0.0000000    0.0000000  
C   -1.1601223   -0.0000736   -0.8778472  
C   -0.5938729   -0.0000768   -2.2438435  
N    0.7113367   -0.0001553   -2.2234123  
C   -1.4286985   -0.0001877   -3.4135239  
C   -2.7683113   -0.0006798   -3.2270524  
O   -3.6653902   -0.0008302   -4.2276970  
C   -3.3702024   -0.0010610   -1.8610774  
O   -4.5974910   -0.0013779   -1.7662963  
C   -2.4926825   -0.0008943   -0.6770658  
H   -4.5324245   -0.0012258   -3.7833954  
H   -2.9677772   -0.0012974    0.2947961  
H    2.1134391   -0.0000547   -0.5705119  
C    2.3971438    2.0127888    3.1728260  
C    1.9431056    1.6308205    1.9564670  
C    0.8496017    0.7127664    2.2356185  
C    0.7794028    0.6545384    3.7115134  
N    1.6840587    1.4146091    4.2663826  
C   -0.1885723   -0.1578550    4.3957118  
C   -1.0476298   -0.8789867    3.6398520  
O   -2.0015663   -1.6796266    4.1448486  
C   -1.0022026   -0.8410666    2.1483229  
O   -1.8147390   -1.5232959    1.5241687  
C    0.0000000    0.0000000    1.4700000  
H    2.3054237    1.9346118    0.9892483  
H   -0.2170646   -0.1815267    5.4753125  
H   -2.4487139   -2.0549881    3.3649027  
H    3.2048689    2.6911772    3.3971983  
