60

C   -3.3041240    0.0049520   -1.5420425  
C   -2.5845334    0.0044435   -0.3695848  
C   -1.2039991    0.0018481   -0.7283584  
C   -1.1422380    0.0011489   -2.1454370  
N   -2.4348657    0.0011250   -2.6077460  
C    0.0655162   -0.0009804   -2.8497916  
C    1.2321739   -0.0021232   -2.1101402  
O    2.4392781   -0.0038575   -2.7472522  
C    1.1911200   -0.0018268   -0.6955266  
O    2.4371498   -0.0035075   -0.1032865  
C    0.0000000    0.0000000    0.0000000  
H   -3.0031496    0.0046740    0.6222586  
H   -2.7054491    0.0112610   -3.5745257  
H    0.1193520   -0.0016676   -3.9297469  
H    3.1132955   -0.0047121   -2.0551789  
H    2.3200266   -0.0031527    0.8516406  
C   -4.7577172    0.0067872   -1.7610451  
C   -5.7612518    0.0098196   -0.8461764  
C   -7.0028569    0.0104384   -1.5832321  
C   -6.6377930    0.0074674   -3.0127462  
N   -5.2625454    0.0057472   -3.0525123  
C   -7.5310404    0.0066836   -4.0344173  
C   -8.9464517    0.0091411   -3.7040547  
O   -9.8285333    0.0087321   -4.5527205  
C   -9.3558844    0.0125582   -2.1966867  
O  -10.5445594    0.0149533   -1.9063335  
C   -8.3019706    0.0128332   -1.1851936  
H   -5.6449956    0.0116207    0.2229797  
H   -8.5938305    0.0150022   -0.1437824  
H   -4.7106113    0.0020432   -3.8906069  
C   -7.1383809    0.0035267   -5.4510008  
C   -5.8938557    0.0007368   -5.9943466  
C   -6.0606670   -0.0016068   -7.4285719  
C   -7.5148166    0.0000876   -7.6780442  
N   -8.1118205    0.0027908   -6.4385003  
C   -8.0835417   -0.0009019   -8.9102194  
C   -7.2048156   -0.0040575  -10.0679603  
O   -7.6201182   -0.0052260  -11.2194039  
C   -5.6614866   -0.0061469   -9.8272594  
O   -4.9117335   -0.0091142  -10.7942773  
C   -5.1675595   -0.0045397   -8.4525283  
H   -4.9649901    0.0001808   -5.4522927  
H   -9.1526359    0.0005066   -9.0712920  
H   -4.0976380   -0.0057981   -8.2944430  
H   -9.1021242    0.0059986   -6.2762175  
C    0.8681109    0.7263879    2.2709268  
C    0.6127770    0.5096195    3.5869401  
C   -0.4920590   -0.4175482    3.6542670  
C   -0.8620974   -0.7254003    2.2596025  
N    0.0000000    0.0000000    1.4700000  
C   -1.8641242   -1.5660088    1.8976294  
C   -2.6293522   -2.2103885    2.9520183  
O   -3.5512764   -2.9839180    2.7283916  
C   -2.2549728   -1.8987399    4.4361073  
O   -2.8923672   -2.4351063    5.3323774  
C   -1.1543735   -0.9755647    4.7012123  
H    1.1382914    0.9492124    4.4159191  
H   -2.1192137   -1.7782617    0.8686553  
H   -0.9013378   -0.7652422    5.7314848  
H    1.6172880    1.3558399    1.8188057  
