60

C    3.3003542    0.0005276   -1.4738995  
C    2.5232807    0.0003499   -2.6090754  
C    1.1623196   -0.0001317   -2.1820105  
C    1.1711880    0.0000584   -0.7636143  
N    2.4852302   -0.0014919   -0.3662359  
C    0.0000000    0.0000000    0.0000000  
C   -1.2020385    0.0000520   -0.6806476  
O   -2.3759251    0.0003495    0.0157751  
C   -1.2314662   -0.0005111   -2.0955503  
O   -2.5054392   -0.0008035   -2.6250176  
C   -0.0764521   -0.0007270   -2.8495195  
H    2.8919946   -0.0005618   -3.6205304  
H    2.8036265    0.0088180    0.5858656  
H   -3.0835641    0.0000348   -0.6418810  
H   -2.4360054   -0.0011524   -3.5845918  
H    4.3715548    0.0004895   -1.3667143  
C   -0.1496421   -0.0015610   -4.3176959  
C    0.8738319   -0.0018368   -5.2031789  
C    0.2377927   -0.0026902   -6.5115958  
C   -1.2121187   -0.0029422   -6.2211808  
N   -1.4453520   -0.0022021   -4.9368174  
C   -2.1975674   -0.0037104   -7.2671140  
C   -1.7546887   -0.0038155   -8.5450789  
O   -2.5622342   -0.0045087   -9.6192803  
C   -0.2978817   -0.0031970   -8.8704617  
O    0.0332533   -0.0034571  -10.0560291  
C    0.6933411   -0.0024574   -7.7798648  
H    1.9299710   -0.0014123   -4.9942643  
H   -3.2505505   -0.0040854   -7.0259997  
H   -1.9581302   -0.0043718  -10.3836179  
C    4.1613212   -2.1081633   -6.0998483  
C    5.1302857   -1.6431930   -6.9298996  
C    4.4899914   -0.7482998   -7.8647929  
C    3.0583094   -0.7298730   -7.5087906  
N    2.9249672   -1.5749820   -6.4313395  
C    2.1141613   -0.0017121   -8.1569193  
C    2.5361795    0.8184268   -9.2802216  
O    1.7614938    1.5100089   -9.9282019  
C    4.0474697    0.8139691   -9.6749195  
O    4.4145399    1.5002842  -10.6191080  
C    4.9706446   -0.0117482   -8.9004579  
H    6.1743876   -1.8981622   -6.8917471  
H    6.0154146   -0.0091031   -9.1800519  
H    4.2463832   -2.7956398   -5.2739971  
H    2.0627065   -1.7723053   -5.9574022  
C    0.8681109    0.7263879    2.2709268  
C    0.6127770    0.5096195    3.5869401  
C   -0.4920590   -0.4175482    3.6542670  
C   -0.8620974   -0.7254003    2.2596025  
N    0.0000000    0.0000000    1.4700000  
C   -1.8641242   -1.5660088    1.8976294  
C   -2.6293522   -2.2103885    2.9520183  
O   -3.5512764   -2.9839180    2.7283916  
C   -2.2549728   -1.8987399    4.4361073  
O   -2.8923672   -2.4351063    5.3323774  
C   -1.1543735   -0.9755647    4.7012123  
H    1.1382914    0.9492124    4.4159191  
H   -2.1192137   -1.7782617    0.8686553  
H   -0.9013378   -0.7652422    5.7314848  
H    1.6172880    1.3558399    1.8188057  
