58

C    0.1013055   -3.2347409  -10.4091469  
C    0.0457527   -2.5520160   -9.2365961  
C   -0.2194453   -1.1713223   -9.5655210  
C   -0.3145513   -1.1051620  -11.0363595  
N   -0.1104147   -2.3888589  -11.4872936  
C   -0.5573985    0.0290116  -11.7409033  
C   -0.7368732    1.2672268  -11.0012087  
O   -0.9597458    2.3412849  -11.5443738  
C   -0.6400459    1.2205668   -9.4429234  
O   -0.7891087    2.2567828   -8.8094439  
C   -0.3742253   -0.0620427   -8.7963141  
H    0.1758990   -2.9680963   -8.2534630  
H   -0.6233994    0.0558080  -12.8197148  
H    0.2793143   -4.2846182  -10.5763616  
H   -0.1165181   -2.6685570  -12.4510251  
C    2.2088376   -2.1426205   -5.8191636  
C    1.6816910   -1.7351242   -6.9971456  
C    0.6077899   -0.8240080   -6.6323121  
C    0.6276207   -0.7974855   -5.1539730  
N    1.5640846   -1.5684500   -4.6716456  
C   -0.2963293   -0.0005341   -4.3948471  
C   -1.1988048    0.7367190   -5.0813825  
O   -2.1196088    1.5258329   -4.5021932  
C   -1.2438086    0.7314045   -6.5733969  
O   -2.0920753    1.4267087   -7.1321599  
C   -0.2854235   -0.0943979   -7.3293552  
H    1.9842853   -2.0178258   -7.9909228  
H   -2.6127106    1.9180864   -5.2452551  
H    3.0283493   -2.8250551   -5.6589865  
C    3.1301146   -0.0010313   -1.7028256  
C    2.5367765   -0.0002766   -0.4864669  
C    1.1089901    0.0001027   -0.7656184  
C    1.0177865   -0.0004150   -2.2415133  
N    2.1993571   -0.0011612   -2.7963824  
C   -0.2459219   -0.0002879   -2.9257116  
C   -1.3675326   -0.0000606   -2.1698520  
O   -2.6129318    0.0000865   -2.6748483  
C   -1.3083588    0.0000910   -0.6783229  
O   -2.3693264    0.0004206   -0.0541685  
C    0.0000000    0.0000000    0.0000000  
H    3.0096016   -0.0001007    0.4807518  
H   -3.1967444    0.0002093   -1.8949026  
H    4.1849275   -0.0015114   -1.9271979  
C    2.5528530    2.1414826    2.8079335  
C    2.0663498    1.7338582    4.0032312  
C    0.9804344    0.8229586    3.6752840  
C    0.9495562    0.7966882    2.1971295  
N    1.8690446    1.5676019    1.6831036  
C    0.0000000    0.0000000    1.4700000  
C   -0.8785127   -0.7372425    2.1869543  
O   -1.8187535   -1.5261249    1.6395491  
C   -0.8723269   -0.7321790    3.6796354  
O   -1.7010379   -1.4274584    4.2670412  
C    0.1115397    0.0933559    4.4024240  
H    2.4028853    2.0163452    4.9860947  
H   -2.2861435   -1.9184361    2.3990168  
H    0.0832434    0.0693689    5.4835595  
H    3.3664920    2.8238276    2.6198634  
