60

C    3.2573672   -0.0002920   -1.5109380  
C    2.5379470   -0.0001710   -0.3591959  
C    1.1435044    0.0000331   -0.7338498  
C    1.1092609   -0.0000083   -2.2088475  
N    2.4227564    0.0001909   -2.6182609  
C   -0.0265532   -0.0002524   -2.9515660  
C   -1.3003037   -0.0002640   -2.2514978  
O   -2.3786783   -0.0004133   -2.8306423  
C   -1.2877723    0.0000311   -0.6895608  
O   -2.3539957    0.0003306   -0.0892035  
C    0.0000000    0.0000000    0.0000000  
H    2.9384091   -0.0000368    0.6389235  
H    2.7280494   -0.0013407   -3.5742112  
C    6.6174609    0.0016339    1.3537082  
C    5.3857491    0.0013495    0.7819026  
C    5.5854753    0.0003216   -0.6481124  
C    7.0449755   -0.0000008   -0.8640984  
N    7.6133367    0.0012282    0.3888398  
C    7.6418663   -0.0013232   -2.0828783  
C    6.7899767   -0.0022819   -3.2605105  
O    7.2316313   -0.0034333   -4.4021063  
C    5.2415223   -0.0017089   -3.0553434  
O    4.5141883   -0.0021996   -4.0393383  
C    4.7161333   -0.0005436   -1.6923256  
H    4.4446717    0.0019900    1.3024652  
H    8.7143818   -0.0016670   -2.2193376  
H    6.8814410    0.0023224    2.3987939  
H    8.5996527   -0.0002112    0.5738435  
C    2.4602722   -2.0944457   -5.9392884  
C    1.9124733   -1.6318086   -4.7860502  
C    0.8432456   -0.7354859   -5.1577931  
C    0.8127885   -0.7137220   -6.6327131  
N    1.8180306   -1.5578237   -7.0448665  
C   -0.0596371    0.0159817   -7.3730582  
C   -1.0334826    0.8347246   -6.6703351  
O   -1.8613773    1.5276079   -7.2472267  
C   -1.0192493    0.8271225   -5.1084308  
O   -1.8341903    1.5127099   -4.5058519  
C   -0.0307352   -0.0004647   -4.4215603  
H    2.2221964   -1.8889425   -3.7887703  
H   -0.0651697    0.0176827   -8.4542048  
H    3.2792594   -2.7820944   -6.0745257  
H    2.0482140   -1.7553499   -8.0014469  
C    2.5311839    2.1237619    3.0120429  
C    1.9795631    1.6616747    1.8395852  
C    0.9223175    0.7739173    2.1983588  
C    0.8753926    0.7337535    3.6154372  
N    1.8668922    1.5631002    4.0777464  
C   -0.0496243   -0.0427881    4.3197917  
C   -0.9437528   -0.7922060    3.5801400  
O   -1.8685244   -1.5680278    4.2172520  
C   -0.9124520   -0.7656372    2.1655264  
O   -1.8671164   -1.5663939    1.5732860  
C    0.0000000    0.0000000    1.4700000  
H    2.3005065    1.9304404    0.8477417  
H    2.0679347    1.7444845    5.0445261  
H   -0.0904770   -0.0778569    5.3997470  
H   -2.3849669   -2.0011402    3.5251786  
H   -1.7775064   -1.4909735    0.6183591  
H    3.3468514    2.8078103    3.1724291  
