60

C   -3.3002320   -0.0285289   -1.4738976  
C   -2.5231883   -0.0217580   -2.6090739  
C   -1.1622799   -0.0097295   -2.1820099  
C   -1.1711460   -0.0099952   -0.7636137  
N   -2.4851535   -0.0195937   -0.3662349  
C    0.0000000    0.0000000    0.0000000  
C    1.2019955    0.0101465   -0.6806482  
O    2.3758423    0.0198089    0.0157738  
C    1.2314163    0.0109595   -2.0955512  
O    2.5053411    0.0220609   -2.6250187  
C    0.0764420    0.0013760   -2.8495194  
H   -2.8034508   -0.0326048    0.5858670  
H    3.0834531    0.0261274   -0.6418821  
H    2.4359061    0.0218208   -3.5845928  
H    0.1303923    0.0024486   -3.9319086  
H   -4.3713939   -0.0375792   -1.3667124  
C   -3.0266435   -0.0247848   -3.9901693  
C   -4.3138414   -0.0357853   -4.4079954  
C   -4.2366436   -0.0335883   -5.8607638  
C   -2.7879700   -0.0202992   -6.1569935  
N   -2.0736910   -0.0151705   -5.0643966  
C   -2.2868100   -0.0144590   -7.5038012  
C   -3.1917345   -0.0219601   -8.5089828  
O   -2.8654613   -0.0177722   -9.8126582  
C   -4.6603541   -0.0357801   -8.2422886  
O   -5.4264069   -0.0419081   -9.2057955  
C   -5.1494669   -0.0415040   -6.8520870  
H   -5.2055895   -0.0444251   -3.8048477  
H   -3.7191995   -0.0253014  -10.2819416  
H   -6.2206098   -0.0516614   -6.7011574  
C   -0.8391400   -0.0009390   -7.7586910  
C    0.1866848    0.0075374   -6.8689234  
C    1.4096202    0.0195660   -7.6364646  
C    1.0093081    0.0174161   -9.0565130  
N   -0.3664416    0.0043985   -9.0622504  
C    1.8769595    0.0268803  -10.0999660  
C    3.3000526    0.0398375   -9.8047143  
O    4.1608236    0.0489548  -10.6749393  
C    3.7466464    0.0420819   -8.3079329  
O    4.9420955    0.0526433   -8.0470694  
C    2.7181302    0.0314002   -7.2706806  
H    0.0969276    0.0054040   -5.7972178  
H    1.5624816    0.0252270  -11.1343797  
H    3.0356593    0.0332387   -6.2368062  
H   -0.9389388    0.0014875   -9.8864384  
C    0.8681109    0.7263879    2.2709268  
C    0.6127770    0.5096195    3.5869401  
C   -0.4920590   -0.4175482    3.6542670  
C   -0.8620974   -0.7254003    2.2596025  
N    0.0000000    0.0000000    1.4700000  
C   -1.8641242   -1.5660088    1.8976294  
C   -2.6293522   -2.2103885    2.9520183  
O   -3.5512764   -2.9839180    2.7283916  
C   -2.2549728   -1.8987399    4.4361073  
O   -2.8923672   -2.4351063    5.3323774  
C   -1.1543735   -0.9755647    4.7012123  
H    1.1382914    0.9492124    4.4159191  
H   -2.1192137   -1.7782617    0.8686553  
H   -0.9013378   -0.7652422    5.7314848  
H    1.6172880    1.3558399    1.8188057  
