62

C   -3.3003336   -0.0116859   -1.4738995  
C   -2.5232652   -0.0088807   -2.6090753  
C   -1.1623132   -0.0037977   -2.1820103  
C   -1.1711820   -0.0040180   -0.7636147  
N   -2.4852208   -0.0069105   -0.3662363  
C    0.0000000    0.0000000    0.0000000  
C    1.2020317    0.0040121   -0.6806479  
O    2.3759123    0.0076835    0.0157751  
C    1.2314569    0.0046749   -2.0955507  
O    2.5054224    0.0092746   -2.6250177  
C    0.0764494    0.0009858   -2.8495196  
H   -2.8919801   -0.0092157   -3.6205311  
H   -2.8035809   -0.0182971    0.5858655  
H    3.0835471    0.0103907   -0.6418812  
H    2.4359883    0.0093889   -3.5845917  
H    0.1304050    0.0017832   -3.9319086  
C   -6.6263522   -0.0256428   -4.4617188  
C   -5.3880822   -0.0214541   -3.8624378  
C   -5.6076268   -0.0204797   -2.4530411  
C   -7.0115092   -0.0245167   -2.2504960  
N   -7.6002195   -0.0256321   -3.4906722  
C   -7.5921172   -0.0251055   -0.9786146  
C   -6.7399904   -0.0218614    0.1086050  
O   -7.2537533   -0.0226210    1.3731449  
C   -5.3365001   -0.0174359   -0.0730905  
O   -4.6231504   -0.0141690    1.1077841  
C   -4.7630214   -0.0165792   -1.3275413  
H   -4.4428513   -0.0182533   -4.3777255  
H   -8.5890976   -0.0389025   -3.6636619  
H   -8.6613421   -0.0280300   -0.8175220  
H   -6.4980170   -0.0196709    1.9749078  
H   -3.6846338   -0.0113089    0.8961664  
C   -6.9889867   -0.0277576   -5.8862858  
C   -6.1612496   -0.0272199   -6.9570008  
C   -7.0439191   -0.0300628   -8.1134549  
C   -8.4075425   -0.0322369   -7.5415186  
N   -8.3816753   -0.0308179   -6.2364060  
C   -9.5806876   -0.0353041   -8.3714621  
C   -9.3997985   -0.0357716   -9.7118403  
O  -10.4041694   -0.0385220  -10.6047417  
C   -8.0363457   -0.0332487  -10.3194187  
O   -7.9466781   -0.0339634  -11.5470912  
C   -6.8486914   -0.0301659   -9.4468398  
H   -5.0846570   -0.0250597   -6.9614874  
H  -10.5650199   -0.0370509   -7.9264942  
H   -9.9634843   -0.0380979  -11.4736198  
H   -5.8788198   -0.0282857   -9.9259798  
C    0.8681109    0.7263879    2.2709268  
C    0.6127770    0.5096195    3.5869401  
C   -0.4920590   -0.4175482    3.6542670  
C   -0.8620974   -0.7254003    2.2596025  
N    0.0000000    0.0000000    1.4700000  
C   -1.8641242   -1.5660088    1.8976294  
C   -2.6293522   -2.2103885    2.9520183  
O   -3.5512764   -2.9839180    2.7283916  
C   -2.2549728   -1.8987399    4.4361073  
O   -2.8923672   -2.4351063    5.3323774  
C   -1.1543735   -0.9755647    4.7012123  
H    1.1382914    0.9492124    4.4159191  
H   -2.1192137   -1.7782617    0.8686553  
H   -0.9013378   -0.7652422    5.7314848  
H    1.6172880    1.3558399    1.8188057  
