58

C    0.0000000    0.0000000    0.0000000  
C    1.0541688   -0.0001718   -0.8560387  
C    0.5103144   -0.0000448   -2.1935956  
C   -0.9576364    0.0002467   -2.0455734  
N   -1.2018455   -0.0001388   -0.6915972  
C   -1.8348302    0.0008328   -3.0810616  
C   -1.2972835    0.0009751   -4.4314609  
O   -2.0050655    0.0014279   -5.4301327  
C    0.2542638    0.0004199   -4.6117572  
O    0.7184690    0.0002275   -5.7439119  
C    1.0974562    0.0000881   -3.4189129  
H    2.0940753   -0.0005481   -0.5817981  
H    2.1707289   -0.0000902   -3.5523664  
H   -2.1128193    0.0014914   -0.2706800  
C   -4.0213993    0.6871366   -1.9915551  
C   -3.2941063    0.0012884   -2.9038252  
C   -4.2729881   -0.7435710   -3.6806623  
C   -5.5765823   -0.3794228   -3.0851599  
N   -5.4354376    0.4590134   -2.0946586  
C   -6.8150469   -0.9152132   -3.5793460  
C   -6.7540279   -1.7753746   -4.6213313  
O   -7.8304581   -2.3511744   -5.1832856  
C   -5.4537852   -2.1621219   -5.2441925  
O   -5.4733724   -2.9502394   -6.1895536  
C   -4.1971357   -1.5989547   -4.7192164  
H   -7.4697200   -2.9079363   -5.8967545  
H   -3.2763909   -1.9041169   -5.1981058  
H   -3.6647466    1.3590437   -1.2271513  
C   -8.1689285    2.9591635   -2.1152053  
C   -9.4137492    2.6750444   -1.6665674  
C   -9.5903448    1.2542729   -1.9248746  
C   -8.3197160    0.8283397   -2.5499092  
N   -7.4825851    1.8234179   -2.6640141  
C   -8.0916854   -0.5296554   -2.9609286  
C   -9.0875876   -1.4216805   -2.7564664  
O   -9.0116810   -2.7210930   -3.0908393  
C  -10.3812849   -1.0226667   -2.1277420  
O  -11.2435333   -1.8873122   -1.9723801  
C  -10.5909730    0.3764135   -1.7147884  
H  -10.1243493    3.3466333   -1.2159110  
H   -9.8698238   -3.0965820   -2.8229748  
H  -11.5419014    0.6250050   -1.2629390  
H   -7.6598695    3.9097994   -2.1040545  
C    1.1319247   -0.0015655    2.2709268  
C    0.7969915   -0.0034943    3.5869401  
C   -0.6453339   -0.0035710    3.6542670  
C   -1.1266833   -0.0015433    2.2596025  
N    0.0000000    0.0000000    1.4700000  
C   -2.4346130   -0.0013964    1.8976294  
C   -3.4350110   -0.0031408    2.9520183  
O   -4.6384611   -0.0030974    2.7283916  
C   -2.9478959   -0.0050506    4.4361073  
O   -3.7809380   -0.0062218    5.3323774  
C   -1.5113823   -0.0053090    4.7012123  
H    1.4821238   -0.0045407    4.4159191  
H   -2.7664565   -0.0000232    0.8686553  
H   -1.1823530   -0.0068408    5.7314848  
H    2.1104316   -0.0009391    1.8188057  
