60

C    3.3041272    0.0001175   -1.5420434  
C    2.5845371   -0.0004781   -0.3695851  
C    1.2040007   -0.0000010   -0.7283590  
C    1.1422374    0.0006034   -2.1454375  
N    2.4348638    0.0026106   -2.6077465  
C   -0.0655183    0.0008793   -2.8497921  
C   -1.2321772    0.0002320   -2.1101397  
O   -2.4392815    0.0001142   -2.7472517  
C   -1.1911208   -0.0000010   -0.6955262  
O   -2.4371526   -0.0002321   -0.1032860  
C    0.0000000    0.0000000    0.0000000  
H    3.0031534   -0.0000660    0.6222582  
H   -0.1193550    0.0014839   -3.9297469  
H   -3.1132987   -0.0000652   -2.0551785  
H   -2.3200278   -0.0004072    0.8516410  
H    4.3686624    0.0004070   -1.7024295  
C    5.6086916   -2.0215433   -4.9939693  
C    4.8416738   -1.6314637   -3.9494120  
C    3.8592057   -0.7249419   -4.5234101  
C    4.1890997   -0.6815707   -5.9641988  
N    5.2136949   -1.4397095   -6.2460165  
C    3.4372231    0.1163823   -6.8931980  
C    2.4025652    0.8378960   -6.4051039  
O    1.6159680    1.6259441   -7.1576240  
C    2.0444992    0.8147843   -4.9561681  
O    1.0903368    1.4964963   -4.5819175  
C    2.8310663   -0.0116224   -4.0232753  
H    4.9314389   -1.9229650   -2.9169169  
H    0.9732435    2.0052470   -6.5313751  
H    6.4504502   -2.6955823   -4.9845927  
C    4.7463538   -3.0509123   -9.6772331  
C    4.3369619   -2.3573073   -8.5838962  
C    4.1791602   -0.9815613   -8.9928659  
C    4.5326836   -0.9301609  -10.4243580  
N    4.8675939   -2.2168083  -10.7782837  
C    4.5104578    0.1956112  -11.1818856  
C    4.1119560    1.4397152  -10.5447537  
O    4.0602038    2.5070558  -11.1417527  
C    3.7335909    1.4086662   -9.0296031  
O    3.3968112    2.4499568   -8.4822881  
C    3.7956909    0.1340573   -8.3187117  
H    4.1653044   -2.7630731   -7.6028242  
H    4.7734050    0.2116071  -12.2304619  
H    4.9698939   -4.1011934   -9.7711997  
H    5.1538409   -2.5057975  -11.6956681  
C    0.0000000    0.0000000    1.4700000  
C    1.0541688    0.0001722    2.3260392  
C    0.5103138    0.0000454    3.6635956  
C   -0.9576371   -0.0002459    3.5155732  
N   -1.2018458    0.0001392    2.1615969  
C   -1.8348311   -0.0008317    4.5510609  
C   -1.2972847   -0.0009736    5.9014604  
O   -2.0050672   -0.0014265    6.9001319  
C    0.2542623   -0.0004184    6.0817573  
O    0.7184670   -0.0002256    7.2139121  
C    1.0974552   -0.0000873    4.8889129  
H    2.0940752    0.0005483    2.0517982  
H   -2.9081052   -0.0011668    4.4207061  
H    2.1707277    0.0000911    5.0223670  
H   -2.1128194   -0.0014912    1.7406791  
