58

C    1.0965516    0.0001358   -0.8010306  
C    0.0000000    0.0000000    0.0000000  
C   -1.1546562    0.0001470   -0.8669514  
C   -0.6372014    0.0003521   -2.2486283  
N    0.7342871    0.0007338   -2.1395008  
C   -1.4147739    0.0001353   -3.3608717  
C   -2.8576050   -0.0001047   -3.1854460  
O   -3.6427777   -0.0002490   -4.1244903  
C   -3.4275843   -0.0000725   -1.7311663  
O   -4.6406829    0.0000331   -1.5710055  
C   -2.4891867   -0.0001091   -0.6116746  
H   -2.8919122   -0.0002919    0.3920862  
H    2.1388268    0.0000664   -0.5261644  
H    1.3735872   -0.0006096   -2.9130260  
C    1.9957415   -2.1407949   -5.0258942  
C    1.9855629   -1.7332337   -6.3163861  
C    0.8551750   -0.8225478   -6.4132066  
C    0.2799736   -0.7963193   -5.0512081  
N    0.9444051   -1.5670712   -4.2336131  
C   -0.8712825    0.0001712   -4.7267109  
C   -1.4226086    0.7372647   -5.7177042  
O   -2.4987598    1.5259555   -5.5567521  
C   -0.8649830    0.7322387   -7.1023300  
O   -1.4179254    1.4273753   -7.9545392  
C    0.3165528   -0.0930920   -7.4101072  
H    2.6616910   -2.0156328   -7.1051683  
H   -2.6523125    1.9181966   -6.4352284  
H    2.6823207   -2.8229901   -4.5502976  
C    1.2935097   -1.0927331   -9.5279822  
C    0.8239917   -0.0604680   -8.7893609  
C    0.9287775    1.1011501   -9.6589375  
C    1.4970405    0.5739890  -10.9182082  
N    1.7128757   -0.7114664  -10.8474302  
C    1.7580998    1.4218202  -12.0487463  
C    1.4644386    2.7364547  -11.9269505  
O    1.6564766    3.6418163  -12.9013640  
C    0.8897395    3.2986391  -10.6692417  
O    0.6470788    4.5047549  -10.6289730  
C    0.6310779    2.4084663   -9.5235492  
H    2.1740263    1.0097103  -12.9565349  
H    1.3546301    4.4854885  -12.5189263  
H    0.2140651    2.8545615   -8.6306159  
H    1.3819059   -2.1285120   -9.2410647  
C    2.4951002    2.0940188    2.9809380  
C    1.9440701    1.6314916    1.8291961  
C    0.8759964    0.7350050    2.2038498  
C    0.8497377    0.7130254    3.6788474  
N    1.8560616    1.5571714    4.0882609  
C   -0.0205033   -0.0168748    4.4215661  
C   -0.9962600   -0.8356168    3.7214979  
O   -1.8224391   -1.5286685    4.3006425  
C   -0.9864710   -0.8277881    2.1595606  
O   -1.8030528   -1.5133726    1.5592035  
C    0.0000000    0.0000000    1.4700000  
H    2.2509283    1.8888011    0.8310761  
H   -0.0229599   -0.0187323    5.5027230  
H    3.3143982    2.7817323    3.1139444  
H    2.0889452    1.7545833    5.0442112  
