60

C   -3.3460099   -0.0004264   -2.7913642  
C   -4.0050887   -0.0007132   -1.6040605  
C   -5.4169941   -0.0010567   -1.9063173  
C   -5.5272438   -0.0009751   -3.3775875  
N   -4.2366052   -0.0001891   -3.8541809  
C   -6.6998416   -0.0016246   -4.0607549  
C   -7.9358028   -0.0022335   -3.2959425  
O   -9.0426036   -0.0027794   -3.8187153  
C   -7.8427533   -0.0020785   -1.7367289  
O   -8.8766032   -0.0022804   -1.0821953  
C   -6.5211392   -0.0016359   -1.1144840  
H   -3.5536960   -0.0005046   -0.6279162  
H   -6.7586587   -0.0016814   -5.1403157  
H   -6.4653744   -0.0017366   -0.0343851  
H   -3.9810069   -0.0015042   -4.8246013  
C    0.0000000    0.0000000    0.0000000  
C    1.0662919   -0.0000103   -0.8334270  
C    0.4961866    0.0000065   -2.1718889  
C   -0.9663862   -0.0000850   -1.9540246  
N   -1.2632775   -0.0000084   -0.6828656  
C   -1.8985367   -0.0000517   -3.0477255  
C   -1.3925784    0.0004565   -4.3020543  
O   -2.1456390    0.0005410   -5.4151309  
C    0.0786224    0.0009324   -4.5544999  
O    0.4683751    0.0012590   -5.7221101  
C    1.0143159    0.0008443   -3.4159032  
H    2.1107193    0.0000633   -0.5721870  
H   -1.5042281    0.0009693   -6.1484413  
C    4.4498795   -2.0927816   -1.5965450  
C    3.2085337   -1.6305558   -1.8956816  
C    3.3524530   -0.7335192   -3.0179327  
C    4.7897012   -0.7108883   -3.3504921  
N    5.3998252   -1.5552208   -2.4517478  
C    5.3348502    0.0196504   -4.3558928  
C    4.4468013    0.8384414   -5.1642771  
O    4.8411359    1.5320445   -6.0925636  
C    2.9210842    0.8299295   -4.8297321  
O    2.1637285    1.5155486   -5.5032298  
C    2.4521472    0.0014839   -3.7217486  
H    2.2961906   -1.8884108   -1.3879860  
H    6.3918359    0.0219792   -4.5832384  
H    4.7506779   -2.7807343   -0.8231554  
H    6.3833782   -1.7523012   -2.4229416  
C    0.0000000    0.0000000    1.4700000  
C    1.0521667    0.0011902    2.3562342  
C    0.4917218    0.0011957    3.6679131  
C   -0.9187428   -0.0003148    3.5178682  
N   -1.1833171    0.0009411    2.1707914  
C   -1.7951701   -0.0010350    4.6072090  
C   -1.2375837   -0.0005224    5.8710424  
O   -2.0474215   -0.0015360    6.9697579  
C    0.1673580    0.0013566    6.0411963  
O    0.5673524    0.0020687    7.3615553  
C    1.0325770    0.0023412    4.9669890  
H    2.0953057    0.0030649    2.0900562  
H   -2.0989778   -0.0102372    1.7591824  
H   -2.8710934   -0.0020419    4.4995513  
H   -1.4634884   -0.0006497    7.7393593  
H    1.5290710    0.0033153    7.3880045  
H    2.1042148    0.0039609    5.1284455  
