58

C   -6.9435647    1.9943670   -0.0669232  
C   -7.2261765    2.8264599    0.9683672  
C   -8.6605301    2.8202764    1.1339882  
C   -9.1942167    1.9098227    0.1029482  
N   -8.1023961    1.4425446   -0.5916522  
C  -10.5113030    1.6327494   -0.0708844  
C  -11.4670463    2.2742187    0.8165897  
O  -12.6746788    2.0894757    0.7404857  
C  -10.9241627    3.2423805    1.9155642  
O  -11.7193339    3.7884849    2.6683807  
C   -9.4827097    3.4615681    2.0051371  
H   -6.5114311    3.3814035    1.5495640  
H  -10.8818381    0.9617260   -0.8333417  
H   -9.1149167    4.1332076    2.7689123  
H   -8.1412301    0.7981712   -1.3599764  
C   -4.4297978    2.1087671   -0.2339396  
C   -5.6380117    1.6447705   -0.6450366  
C   -5.3911869    0.7496343   -1.7507692  
C   -3.9296544    0.7300039   -1.9515854  
N   -3.4052348    1.5747190   -1.0006226  
C   -3.2941076    0.0012878   -2.9038237  
C   -4.1035805   -0.8182213   -3.7902174  
O   -3.6253061   -1.5102279   -4.6794206  
C   -5.6534092   -0.8124879   -3.5957846  
O   -6.3452690   -1.4982636   -4.3362584  
C   -6.2225101    0.0137343   -2.5340255  
H   -7.2964264    0.0119731   -2.4058665  
H   -4.2016950    2.7960859    0.5644654  
H   -2.4284974    1.7712469   -0.8805869  
C    0.0000000    0.0000000    0.0000000  
C    1.0541688   -0.0001723   -0.8560392  
C    0.5103136   -0.0000455   -2.1935956  
C   -0.9576373    0.0002461   -2.0455730  
N   -1.2018460   -0.0001389   -0.6915968  
C   -1.8348314    0.0008319   -3.0810607  
C   -1.2972851    0.0009739   -4.4314603  
O   -2.0050676    0.0014268   -5.4301316  
C    0.2542619    0.0004184   -4.6117572  
O    0.7184666    0.0002257   -5.7439122  
C    1.0974551    0.0000873   -3.4189129  
H    2.0940752   -0.0005484   -0.5817983  
H    2.1707276   -0.0000912   -3.5523673  
H   -2.1128194    0.0014915   -0.2706789  
C    3.2573670    0.0002920    2.9809380  
C    2.5379467    0.0001709    1.8291961  
C    1.1435042   -0.0000331    2.2038498  
C    1.1092607    0.0000083    3.6788474  
N    2.4227561   -0.0001909    4.0882609  
C   -0.0265533    0.0002524    4.4215661  
C   -1.3003036    0.0002640    3.7214979  
O   -2.3786784    0.0004133    4.3006425  
C   -1.2877726   -0.0000311    2.1595606  
O   -2.3539958   -0.0003306    1.5592035  
C    0.0000000    0.0000000    1.4700000  
H    2.9384090    0.0000368    0.8310761  
H   -0.0296291    0.0004086    5.5027230  
H    4.3270393    0.0004765    3.1139444  
H    2.7280493    0.0013407    5.0442112  
