58

C   -6.5599413    0.0018041    0.0678360  
C   -5.5082123    0.0006597    0.9268704  
C   -6.0558702    0.0010526    2.2628746  
C   -7.5233934    0.0025009    2.1106766  
N   -7.7637484    0.0032946    0.7560114  
C   -8.4035297    0.0028538    3.1436648  
C   -7.8698270    0.0019587    4.4955886  
O   -8.5804486    0.0022486    5.4922422  
C   -6.3188000    0.0006731    4.6802979  
O   -5.8578177    0.0002184    5.8137681  
C   -5.4722172    0.0001195    3.4898567  
H   -4.4675306   -0.0001625    0.6555890  
H   -9.4764285    0.0037927    3.0102578  
H   -4.3993295   -0.0009762    3.6263637  
H   -8.6735221    0.0027733    0.3325038  
C   -3.2941076    0.0012874   -2.9038237  
C   -4.0168015    0.0014137   -1.7541332  
C   -5.4101727    0.0018621   -2.1327521  
C   -5.4402197    0.0019581   -3.6078411  
N   -4.1255649    0.0019955   -4.0135163  
C   -6.5739167    0.0019522   -4.3537877  
C   -7.8496528    0.0020701   -3.6573459  
O   -8.9263767    0.0021357   -4.2395556  
C   -7.8415653    0.0022233   -2.0953791  
O   -8.9094925    0.0026300   -1.4980574  
C   -6.5557596    0.0019358   -1.4021581  
H   -3.6191800    0.0013980   -0.7548779  
H   -6.5739168    0.0018934   -5.4349496  
H   -3.8175540    0.0005036   -4.9685944  
C    0.0000000    0.0000000    0.0000000  
C    1.0541688   -0.0001722   -0.8560393  
C    0.5103135   -0.0000454   -2.1935957  
C   -0.9576374    0.0002459   -2.0455730  
N   -1.2018460   -0.0001391   -0.6915968  
C   -1.8348314    0.0008317   -3.0810607  
C   -1.2972851    0.0009737   -4.4314604  
O   -2.0050676    0.0014265   -5.4301315  
C    0.2542619    0.0004184   -4.6117571  
O    0.7184666    0.0002257   -5.7439121  
C    1.0974550    0.0000874   -3.4189130  
H    2.0940752   -0.0005483   -0.5817984  
H    2.1707276   -0.0000911   -3.5523671  
H   -2.1128194    0.0014912   -0.2706789  
C    1.0965515   -0.0001358    2.2710304  
C    0.0000000    0.0000000    1.4700000  
C   -1.1546562   -0.0001469    2.3369512  
C   -0.6372014   -0.0003519    3.7186280  
N    0.7342871   -0.0007337    3.6095011  
C   -1.4147739   -0.0001353    4.8308716  
C   -2.8576048    0.0001048    4.6554461  
O   -3.6427778    0.0002493    5.5944904  
C   -3.4275839    0.0000726    3.2011665  
O   -4.6406829   -0.0000333    3.0410059  
C   -2.4891866    0.0001091    2.0816745  
H   -1.0150448   -0.0001615    5.8354244  
H   -2.8919121    0.0002919    1.0779135  
H    2.1388271   -0.0000662    1.9961646  
H    1.3735872    0.0006099    4.3830260  
