60

C   -1.1036577    0.2149000   -0.7919005  
C   -0.7370180    0.1263823   -2.1148551  
C    0.6603606   -0.1586160   -2.1414705  
C    1.0956081   -0.2335182   -0.7935553  
N    0.0000000    0.0000000    0.0000000  
C    2.4219217   -0.5004679   -0.4408238  
C    3.3252509   -0.6956555   -1.4675061  
O    4.6329886   -0.9598538   -1.1793472  
C    2.9102609   -0.6245410   -2.8186325  
O    3.9277282   -0.8414095   -3.7247626  
C    1.6020371   -0.3609613   -3.1673484  
H   -1.3954850    0.2528809   -2.9571209  
H    2.7600341   -0.5587304    0.5845971  
H    5.0844978   -1.0605767   -2.0274390  
H    3.5632731   -0.7759735   -4.6127346  
H   -2.0648150    0.4157414   -0.3505407  
C    1.2110792   -0.2951505   -4.5828766  
C   -0.0161122   -0.0497932   -5.0980274  
C    0.1655320   -0.1011160   -6.5405501  
C    1.6027315   -0.3961304   -6.7249610  
N    2.2207661   -0.5110384   -5.5809250  
C    2.1908854   -0.5290631   -8.0293729  
C    1.3800550   -0.3746921   -9.1008482  
O    1.7941598   -0.4718668  -10.3756484  
C   -0.0745550   -0.0768228   -8.9474073  
O   -0.7527009    0.0511718   -9.9667000  
C   -0.6540986    0.0548447   -7.5988094  
H   -0.9315671    0.1422090   -4.5649662  
H    0.9941798   -0.3143162  -10.9089048  
H   -1.7118625    0.2708967   -7.5303509  
C    4.3782272   -1.6690048   -7.4333946  
C    3.6241413   -0.8225776   -8.1726470  
C    4.5423027   -0.2585124   -9.1500464  
C    5.8437584   -0.8921598   -8.8479065  
N    5.7537598   -1.7200090   -7.8426424  
C    7.0289896   -0.5937195   -9.6037150  
C    6.9189811    0.2969440  -10.6156203  
O    7.9427343    0.6687833  -11.4028331  
C    5.6193767    0.9530172  -10.9454028  
O    5.5927749    1.7539138  -11.8797888  
C    4.4178926    0.6302686  -10.1553429  
H    7.9668981   -1.0714577   -9.3608088  
H    7.5559941    1.3098034  -12.0262735  
H    3.4957394    1.1268196  -10.4260827  
H    4.0669350   -2.2835244   -6.6036737  
C    2.5128556    2.1077716    2.9199648  
C    1.9592212    1.6432552    4.0696553  
C    0.8915788    0.7479214    3.6910360  
C    0.8684491    0.7287414    2.2159470  
N    1.8754542    1.5738793    1.8102719  
C    0.0000000    0.0000000    1.4700000  
C   -0.9772830   -0.8200135    2.1664417  
O   -1.8021297   -1.5120829    1.5842315  
C   -0.9711318   -0.8147624    3.7284083  
O   -1.7894187   -1.5009653    4.3257297  
C    0.0140216    0.0115358    4.4216297  
H    2.2638494    1.8988021    5.0689105  
H    0.0117648    0.0094386    5.5031631  
H    3.3327358    2.7953732    2.7900019  
H    2.1123206    1.7707734    0.8551938  
