58

C    0.8353425   -0.7266722   -5.2248492  
C    0.5761920   -0.5101811   -6.5401620  
C   -0.5291476    0.4165999   -6.6044789  
C   -0.8953224    0.7245274   -5.2088117  
N   -0.0307344   -0.0004648   -4.4215605  
C   -1.8966021    1.5648462   -4.8441100  
C   -2.6650470    2.2088127   -5.8964105  
O   -3.5865954    2.9820601   -5.6702727  
C   -2.2947844    1.8970774   -7.3815134  
O   -2.9349086    2.4330965   -8.2760437  
C   -1.1946283    0.9742392   -7.6496156  
H    1.0994961   -0.9497146   -7.3705698  
H   -2.1488361    1.7771609   -3.8144446  
H    1.5860180   -1.3558036   -4.7747706  
C    3.2573671   -0.0002923   -1.5109378  
C    2.5379468   -0.0001709   -0.3591957  
C    1.1435045    0.0000331   -0.7338504  
C    1.1092613   -0.0000084   -2.2088481  
N    2.4227569    0.0001905   -2.6182610  
C   -0.0265528   -0.0002524   -2.9515665  
C   -1.3003030   -0.0002641   -2.2514988  
O   -2.3786778   -0.0004133   -2.8306435  
C   -1.2877722    0.0000311   -0.6895611  
O   -2.3539956    0.0003306   -0.0892041  
C    0.0000000    0.0000000    0.0000000  
H    2.9384092   -0.0000370    0.6389245  
H    4.3270397   -0.0004769   -1.6439440  
H    2.7280500   -0.0013408   -3.5742112  
C   -0.0382269   -2.7477602   -9.6726813  
C    0.1218295   -2.2764117  -10.9361241  
C   -0.1702301   -0.8628690  -10.8982598  
C   -0.5160092   -0.5470669   -9.4991542  
N   -0.4174026   -1.7324476   -8.8077505  
C   -0.8545957    0.6882889   -9.0508690  
C   -0.8803792    1.7796547  -10.0104478  
O   -1.1728085    2.9283568   -9.7050481  
C   -0.5179549    1.4680238  -11.4975056  
O   -0.5365201    2.3787666  -12.3144895  
C   -0.1690119    0.0966996  -11.8602184  
H    0.4112622   -2.8531632  -11.7964728  
H    0.0808619   -0.1106956  -12.8918551  
H    0.0887101   -3.7514628   -9.3007162  
H   -0.5918398   -1.8425932   -7.8256671  
C    0.8175213    0.6860729    2.3021913  
C    0.0000000    0.0000000    1.4700000  
C   -0.8887526   -0.7456559    2.3478473  
C   -0.4549825   -0.3816753    3.7138435  
N    0.5448156    0.4573574    3.6934124  
C   -1.0945674   -0.9182058    4.8835240  
C   -2.1210866   -1.7789155    4.6970523  
O   -2.8083856   -2.3554314    5.6976972  
C   -2.5824069   -2.1655116    3.3310774  
O   -3.5227682   -2.9541547    3.2362962  
C   -1.9100805   -1.6015804    2.1470656  
H   -0.7567140   -0.6349833    5.8697035  
H   -3.4728268   -2.9124471    5.2533954  
H   -2.2742832   -1.9066565    1.1752040  
H    1.6189533    1.3585343    2.0405121  
