58

C    2.8285899   -0.7061765   -3.3536583  
C    1.6707635   -0.0012348   -3.2725971  
C    1.5413726    0.7389929   -4.5055435  
C    2.7272134    0.4051002   -5.3173858  
N    3.4676731   -0.4749406   -4.5623111  
C    2.9765558    0.9026373   -6.5551213  
C    2.0127657    1.8289686   -7.1256949  
O    2.1473180    2.3316723   -8.2336141  
C    0.7497775    2.1968602   -6.2834825  
O   -0.0684722    2.9759513   -6.7533181  
C    0.5906503    1.5958912   -4.9616029  
H   -0.2866833    1.8556401   -4.3849398  
H    3.2688580   -1.3749906   -2.6320341  
H    4.3372610   -0.8874295   -4.8464184  
C    1.0965516    0.0001357   -0.8010304  
C    0.0000000    0.0000000    0.0000000  
C   -1.1546566    0.0001468   -0.8669507  
C   -0.6372021    0.0003518   -2.2486277  
N    0.7342865    0.0007335   -2.1395009  
C   -1.4147744    0.0001349   -3.3608711  
C   -2.8576057   -0.0001054   -3.1854455  
O   -3.6427784   -0.0002500   -4.1244898  
C   -3.4275844   -0.0000728   -1.7311659  
O   -4.6406834    0.0000332   -1.5710049  
C   -2.4891870   -0.0001091   -0.6116736  
H   -1.0150456    0.0001609   -4.3654240  
H   -2.8919124   -0.0002917    0.3920870  
H    2.1388270    0.0000661   -0.5261647  
C    4.7305561   -0.6801898   -7.4372471  
C    4.1675967    0.5519208   -7.3420904  
C    4.9608174    1.4413006   -8.1573450  
C    6.0397661    0.6204453   -8.7394587  
N    5.8438323   -0.6554826   -8.2635307  
C    7.0018977    1.0932383   -9.5716092  
C    6.9729645    2.5048146   -9.9167919  
O    7.7954033    3.0261604  -10.6584746  
C    5.8394543    3.3929046   -9.3116004  
O    5.8050443    4.5828100   -9.5947980  
C    4.8586696    2.7691077   -8.4268463  
H    7.7844329    0.4740864   -9.9877815  
H    4.0769202    3.3908835   -8.0121326  
H    4.4259343   -1.6041247   -6.9730923  
H    6.4195665   -1.4472354   -8.4842238  
C    0.0000000    0.0000000    1.4700000  
C    1.0662921    0.0000102    2.3034270  
C    0.4961870   -0.0000064    3.6418889  
C   -0.9663858    0.0000850    3.4240247  
N   -1.2632773    0.0000084    2.1528658  
C   -1.8985362    0.0000517    4.5177257  
C   -1.3925775   -0.0004564    5.7720543  
O   -2.1456383   -0.0005410    6.8851312  
C    0.0786232   -0.0009323    6.0245000  
O    0.4683759   -0.0012588    7.1921102  
C    1.0143166   -0.0008442    4.8859032  
H    2.1107198   -0.0000632    2.0421868  
H   -2.9622183    0.0003270    4.3293377  
H   -1.5042274   -0.0009692    7.6184419  
H    2.0724152   -0.0013148    5.1109744  
