58

C    0.0072374   -0.7172705   -5.1312249  
C    0.1641342   -0.4988122   -6.4622900  
C   -0.8688537    0.4276940   -6.8614858  
C   -1.6459760    0.7333164   -5.6451523  
N   -1.0641723    0.0073878   -4.6315341  
C   -2.7115375    1.5727256   -5.6042187  
C   -3.1204211    2.2180752   -6.8406950  
O   -4.0675163    2.9906565   -6.9072576  
C   -2.3119548    1.9087859   -8.1408976  
O   -2.6470503    2.4459854   -9.1879827  
C   -1.1818732    0.9867404   -8.0596608  
H   -3.2678040    1.7833457   -4.7013808  
H   -0.6271702    0.7780511   -8.9643581  
H    0.5840392   -1.3468500   -4.4733349  
C    1.1319252    0.0015682   -0.8009266  
C    0.7969921    0.0034960   -2.1169402  
C   -0.6453331    0.0035691   -2.1842673  
C   -1.1266827    0.0015403   -0.7896030  
N    0.0000000    0.0000000    0.0000000  
C   -2.4346126    0.0013901   -0.4276302  
C   -3.4350106    0.0031320   -1.4820190  
O   -4.6384606    0.0030853   -1.2583929  
C   -2.9478949    0.0050426   -2.9661082  
O   -3.7809369    0.0062120   -3.8623782  
C   -1.5113814    0.0053047   -3.2312128  
H    1.4821247    0.0045440   -2.9459190  
H   -2.7664566    0.0000163    0.6013442  
H    2.1104320    0.0009443   -0.3488051  
C    1.6338120   -2.3812398   -7.2725482  
C    1.1937549   -1.0975752   -7.3238371  
C    1.9286059   -0.4425078   -8.3801122  
C    2.8393622   -1.4570415   -8.9440577  
N    2.6117355   -2.6099669   -8.2286287  
C    3.7041219   -1.2312250   -9.9652842  
C    3.7404200    0.0999338  -10.5477230  
O    4.4847574    0.4029537  -11.4710013  
C    2.7847794    1.1899634   -9.9660101  
O    2.8066434    2.3144125  -10.4480850  
C    1.8970039    0.8266115   -8.8643378  
H    4.3636074   -1.9894066  -10.3642193  
H    1.2382937    1.5870449   -8.4673924  
H    1.3261364   -3.1793337   -6.6165976  
H    3.0819810   -3.4835875   -8.3793061  
C    0.8175213    0.6860729    2.3021913  
C    0.0000000    0.0000000    1.4700000  
C   -0.8887526   -0.7456559    2.3478473  
C   -0.4549825   -0.3816753    3.7138435  
N    0.5448156    0.4573574    3.6934124  
C   -1.0945674   -0.9182058    4.8835240  
C   -2.1210866   -1.7789155    4.6970523  
O   -2.8083856   -2.3554314    5.6976972  
C   -2.5824069   -2.1655116    3.3310774  
O   -3.5227682   -2.9541547    3.2362962  
C   -1.9100805   -1.6015804    2.1470656  
H   -0.7567140   -0.6349833    5.8697035  
H   -3.4728268   -2.9124471    5.2533954  
H   -2.2742832   -1.9066565    1.1752040  
H    1.6189533    1.3585343    2.0405121  
