58

C    2.4843057   -2.1203328   -8.3036623  
C    3.4885049   -2.9631451   -8.6576772  
C    3.5220376   -2.9953173  -10.1008261  
C    2.4473719   -2.0956892  -10.5618622  
N    1.8561883   -1.5974219   -9.4238274  
C    2.1538979   -1.8528087  -11.8643924  
C    2.9494325   -2.5222861  -12.8800022  
O    2.7632084   -2.3691567  -14.0800733  
C    4.0925307   -3.4795937  -12.4144984  
O    4.7687810   -4.0490463  -13.2604711  
C    4.3135517   -3.6610428  -10.9819907  
H    4.1321679   -3.5010687   -7.9846623  
H    1.3613872   -1.1891544  -12.1812523  
H    5.1071226   -4.3253894  -10.6679651  
H    1.0881944   -0.9516506   -9.4092522  
C    2.5185221   -2.1418787   -5.7664414  
C    2.0285783   -1.7344769   -6.9604095  
C    0.9435064   -0.8236414   -6.6295056  
C    0.9168307   -0.7971605   -5.1512729  
N    1.8378570   -1.5679056   -4.6397540  
C   -0.0307352   -0.0004646   -4.4215603  
C   -0.9113598    0.7365841   -5.1361187  
O   -1.8501209    1.5254492   -4.5861549  
C   -0.9094199    0.7313056   -6.6288110  
O   -1.7398701    1.4264148   -7.2139569  
C    0.0724716   -0.0942330   -7.3542759  
H   -2.3197100    1.9176027   -5.3443463  
H    0.0410973   -0.0704051   -8.4353302  
H    3.3327629   -2.8241130   -5.5805887  
C    3.2573670   -0.0002920   -1.5109380  
C    2.5379468   -0.0001709   -0.3591961  
C    1.1435043    0.0000332   -0.7338500  
C    1.1092609   -0.0000082   -2.2088477  
N    2.4227562    0.0001909   -2.6182613  
C   -0.0265532   -0.0002522   -2.9515663  
C   -1.3003035   -0.0002639   -2.2514981  
O   -2.3786784   -0.0004131   -2.8306429  
C   -1.2877725    0.0000312   -0.6895608  
O   -2.3539958    0.0003307   -0.0892036  
C    0.0000000    0.0000000    0.0000000  
H    2.9384091   -0.0000369    0.6389239  
H    4.3270394   -0.0004765   -1.6439446  
H    2.7280494   -0.0013406   -3.5742113  
C    2.3971438    2.0127888    3.1728260  
C    1.9431056    1.6308205    1.9564670  
C    0.8496017    0.7127664    2.2356185  
C    0.7794028    0.6545384    3.7115134  
N    1.6840587    1.4146091    4.2663826  
C   -0.1885723   -0.1578550    4.3957118  
C   -1.0476298   -0.8789867    3.6398520  
O   -2.0015663   -1.6796266    4.1448486  
C   -1.0022026   -0.8410666    2.1483229  
O   -1.8147390   -1.5232959    1.5241687  
C    0.0000000    0.0000000    1.4700000  
H    2.3054237    1.9346118    0.9892483  
H   -0.2170646   -0.1815267    5.4753125  
H   -2.4487139   -2.0549881    3.3649027  
H    3.2048689    2.6911772    3.3971983  
