64

C    3.3041272    0.0001177   -1.5420431  
C    2.5845370   -0.0004780   -0.3695856  
C    1.2040004   -0.0000008   -0.7283590  
C    1.1422372    0.0006037   -2.1454372  
N    2.4348639    0.0026111   -2.6077465  
C   -0.0655183    0.0008798   -2.8497916  
C   -1.2321770    0.0002324   -2.1101397  
O   -2.4392813    0.0001147   -2.7472520  
C   -1.1911211   -0.0000007   -0.6955262  
O   -2.4371526   -0.0002320   -0.1032861  
C    0.0000000    0.0000000    0.0000000  
H    3.0031535   -0.0000661    0.6222581  
H    2.7054628   -0.0071098   -3.5745262  
H   -3.1132988   -0.0000650   -2.0551783  
H   -2.3200283   -0.0004072    0.8516412  
C    2.3129716   -2.1206345   -5.9853334  
C    1.8203208   -1.6593259   -4.7866024  
C    0.7463510   -0.7716030   -5.0917857  
C    0.6289213   -0.7306573   -6.5047477  
N    1.5963342   -1.5595249   -7.0163213  
C   -0.3301683    0.0460723   -7.1617300  
C   -1.1865071    0.7948777   -6.3780510  
O   -2.1420034    1.5708501   -6.9678871  
C   -1.0848073    0.7675249   -4.9667659  
O   -2.0089558    1.5677380   -4.3272719  
C   -0.1387085    0.0017018   -4.3179686  
H    2.1903016   -1.9285747   -3.8121214  
H    1.7490274   -1.7403238   -7.9920149  
H   -0.4247473    0.0817359   -8.2382918  
H   -2.6234316    2.0034607   -6.2507127  
H   -1.8718975    1.4918036   -3.3780341  
H    3.1197749   -2.8044119   -6.1865217  
C    5.7183463    0.0006288   -0.7610765  
C    6.9697737    0.0034041   -1.2883306  
C    6.8214692    0.0056204   -2.7245884  
C    5.3706567    0.0039258   -2.9927887  
N    4.7577221    0.0005130   -1.7610465  
C    4.8178650    0.0056054   -4.2321931  
C    5.7114455    0.0091048   -5.3785076  
O    5.3110221    0.0107715   -6.5352096  
C    7.2515431    0.0106971   -5.1179289  
O    8.0137025    0.0133346   -6.0751995  
C    7.7277050    0.0089138   -3.7369440  
H    7.8915741    0.0036656   -0.7343465  
H    3.7509357    0.0044437   -4.4070366  
H    8.7954980    0.0102386   -3.5650765  
H    5.4170513   -0.0015584    0.2738660  
C    0.8576279    0.7185626    2.2703808  
C    0.0000000    0.0000000    1.4700000  
C   -0.8668858   -0.7285659    2.3373528  
C   -0.4876752   -0.4117774    3.6669281  
N    0.5635254    0.4678311    3.5902241  
C   -1.1297612   -0.9515493    4.7854808  
C   -2.1738724   -1.8268314    4.5576857  
O   -2.8357962   -2.3827064    5.6140350  
C   -2.5667212   -2.1555554    3.2384331  
O   -3.6226318   -3.0413663    3.1773122  
C   -1.9335634   -1.6236449    2.1344818  
H    1.0363952    0.8769718    4.3757045  
H   -0.8454472   -0.7142436    5.8013813  
H   -3.5178062   -2.9546422    5.2385129  
H   -3.8247440   -3.2102924    2.2519915  
H   -2.2566033   -1.8942483    1.1360343  
H    1.6567807    1.3889844    2.0042067  
