58

C    8.1892491    0.0036053   -2.5367312  
C    8.3413350    0.0052329   -3.8861544  
C    9.7609537    0.0074769   -4.1498066  
C   10.4282441    0.0069906   -2.8339358  
N    9.4199400    0.0050110   -1.8978751  
C   11.7733504    0.0082603   -2.6539584  
C   12.6203933    0.0104640   -3.8350800  
O   13.8431057    0.0117944   -3.7778852  
C   11.9351793    0.0112670   -5.2387489  
O   12.6380264    0.0134258   -6.2403795  
C   10.4759224    0.0094681   -5.3052085  
H    7.5494197    0.0050821   -4.6138098  
H   12.2425976    0.0077438   -1.6799373  
H   10.0092855    0.0098333   -6.2809000  
H    9.5569786    0.0026822   -0.9037612  
C    5.6664810    0.0014065   -2.2647026  
C    4.7390840    0.0009613   -1.2727298  
C    5.4604950    0.0006395   -0.0219693  
C    6.8944812    0.0009652   -0.3690619  
N    6.9515096    0.0010262   -1.7437027  
C    7.9048599    0.0011991    0.5369402  
C    7.5567537    0.0008990    1.9480947  
O    8.3942798    0.0010140    2.8407597  
C    6.0443612    0.0002996    2.3385746  
O    5.7391067   -0.0002636    3.5235134  
C    5.0461773    0.0003722    1.2720470  
H    8.9502793    0.0015667    0.2612453  
H    4.0011828    0.0001603    1.5508123  
H    5.5192864    0.0017636   -3.3325147  
C    3.2798077    0.0005856   -1.4499661  
C    2.5571132    0.0005565   -2.5996564  
C    1.1637425    0.0001547   -2.2210366  
C    1.1336959   -0.0000200   -0.7459475  
N    2.4483509   -0.0001429   -0.3402730  
C    0.0000000    0.0000000    0.0000000  
C   -1.2757370   -0.0000187   -0.6964411  
O   -2.3524597   -0.0000640   -0.1142306  
C   -1.2676502   -0.0000874   -2.2584078  
O   -2.3355774   -0.0004102   -2.8557287  
C    0.0181551    0.0001758   -2.9516297  
H    2.9547342    0.0006074   -3.5989118  
H    0.0150776    0.0003317   -4.0331632  
H    2.7563626    0.0012823    0.6148051  
C    0.0000000    0.0000000    1.4700000  
C    1.0662921    0.0000102    2.3034270  
C    0.4961870   -0.0000064    3.6418889  
C   -0.9663858    0.0000850    3.4240247  
N   -1.2632773    0.0000084    2.1528658  
C   -1.8985362    0.0000517    4.5177257  
C   -1.3925775   -0.0004564    5.7720543  
O   -2.1456383   -0.0005410    6.8851312  
C    0.0786232   -0.0009323    6.0245000  
O    0.4683759   -0.0012588    7.1921102  
C    1.0143166   -0.0008442    4.8859032  
H    2.1107198   -0.0000632    2.0421868  
H   -2.9622183    0.0003270    4.3293377  
H   -1.5042274   -0.0009692    7.6184419  
H    2.0724152   -0.0013148    5.1109744  
