58

C    9.4922786    0.7293699   -5.1449249  
C   10.8251712    0.5133486   -5.2891710  
C   11.2160699   -0.4130881   -4.2529532  
C    9.9928767   -0.7213258   -3.4877218  
N    8.9836089    0.0031767   -4.0787927  
C    9.9432018   -1.5614594   -2.4231035  
C   11.1768335   -2.2048846   -2.0027581  
O   11.2356677   -2.9779287   -1.0555290  
C   12.4841867   -1.8928138   -2.7985247  
O   13.5289539   -2.4283768   -2.4537169  
C   12.4121715   -0.9702190   -3.9287836  
H   11.4619082    0.9529768   -6.0361021  
H    9.0354405   -1.7740081   -1.8756527  
H   13.3217789   -0.7595988   -4.4746540  
H    8.8388438    1.3581455   -5.7276380  
C    6.4690067    0.0019755   -4.4192259  
C    7.5790592    0.0025229   -3.6450414  
C    7.0826137    0.0021761   -2.2775468  
C    5.6103545    0.0015083   -2.4155218  
N    5.2447492    0.0013071   -3.6686472  
C    4.7390840    0.0009613   -1.2727298  
C    5.3125312    0.0006874   -0.0477837  
O    4.6211392    0.0001824    1.1046125  
C    6.7952869    0.0009745    0.1242519  
O    7.2479825    0.0008238    1.2689297  
C    7.6676524    0.0015792   -1.0635622  
H    5.3014937    0.0000719    1.8019436  
H    8.7364288    0.0016561   -0.8963867  
H    6.4103389    0.0020015   -5.4960416  
C    3.2798077    0.0005856   -1.4499661  
C    2.5571132    0.0005565   -2.5996564  
C    1.1637425    0.0001547   -2.2210366  
C    1.1336959   -0.0000200   -0.7459475  
N    2.4483509   -0.0001429   -0.3402730  
C    0.0000000    0.0000000    0.0000000  
C   -1.2757370   -0.0000187   -0.6964411  
O   -2.3524597   -0.0000640   -0.1142306  
C   -1.2676502   -0.0000874   -2.2584078  
O   -2.3355774   -0.0004102   -2.8557287  
C    0.0181551    0.0001758   -2.9516297  
H    2.9547342    0.0006074   -3.5989118  
H    0.0150776    0.0003317   -4.0331632  
H    2.7563626    0.0012823    0.6148051  
C    2.5128556    2.1077716    2.9199648  
C    1.9592212    1.6432552    4.0696553  
C    0.8915788    0.7479214    3.6910360  
C    0.8684491    0.7287414    2.2159470  
N    1.8754542    1.5738793    1.8102719  
C    0.0000000    0.0000000    1.4700000  
C   -0.9772830   -0.8200135    2.1664417  
O   -1.8021297   -1.5120829    1.5842315  
C   -0.9711318   -0.8147624    3.7284083  
O   -1.7894187   -1.5009653    4.3257297  
C    0.0140216    0.0115358    4.4216297  
H    2.2638494    1.8988021    5.0689105  
H    0.0117648    0.0094386    5.5031631  
H    3.3327358    2.7953732    2.7900019  
H    2.1123206    1.7707734    0.8551938  
