62

C   -3.3040082    0.0281028   -1.5420424  
C   -2.5844392    0.0225525   -0.3695848  
C   -1.2039567    0.0102840   -0.7283588  
C   -1.1422016    0.0091521   -2.1454372  
N   -2.4347980    0.0181853   -2.6077461  
C    0.0655074   -0.0014395   -2.8497915  
C    1.2321298   -0.0107566   -2.1101402  
O    2.4391913   -0.0209488   -2.7472522  
C    1.1910763   -0.0101726   -0.6955267  
O    2.4370656   -0.0205839   -0.1032868  
C    0.0000000    0.0000000    0.0000000  
H   -3.0030432    0.0257161    0.6222587  
H   -2.7053039    0.0302169   -3.5745259  
H    0.1193376   -0.0025040   -3.9297473  
H    3.1131857   -0.0265260   -2.0551788  
H    2.3199472   -0.0194084    0.8516408  
C   -6.5768786    0.0597326    1.3345549  
C   -7.6642453    0.0682250    0.5288622  
C   -7.1288299    0.0618786   -0.8238352  
C   -5.6611848    0.0494045   -0.6437050  
N   -5.3316589    0.0480115    0.6193867  
C   -4.7575533    0.0401229   -1.7610452  
C   -5.2956403    0.0427756   -3.0019279  
O   -4.5715316    0.0349887   -4.1340262  
C   -6.7728039    0.0549057   -3.2164052  
O   -7.1924933    0.0568115   -4.3735903  
C   -7.6788208    0.0643183   -2.0540930  
H   -5.2315990    0.0394294   -4.8505765  
H   -8.7423303    0.0728702   -2.2518429  
H   -6.5490989    0.0608174    2.4126091  
C   -9.6160946    0.8054322    1.9617954  
C   -9.0805972    0.0809490    0.9221638  
C  -10.1545318   -0.6390910    0.3198295  
C  -11.3313862   -0.3112395    1.0405610  
N  -10.9686252    0.5664705    2.0318466  
C  -12.5855757   -0.8405752    0.7218108  
C  -12.6530156   -1.7166026   -0.3441187  
O  -13.8527187   -2.2625568   -0.6986063  
C  -11.4898592   -2.0562846   -1.0752147  
O  -11.7211389   -2.9413843   -2.1079063  
C  -10.2521962   -1.5346732   -0.7611507  
H  -11.5953844    0.9818542    2.6971366  
H  -13.4862790   -0.5948100    1.2672771  
H  -13.6783193   -2.8369421   -1.4555292  
H  -10.8851244   -3.1180822   -2.5500163  
H   -9.3789563   -1.8135394   -1.3392215  
H   -9.1400228    1.4726114    2.6597832  
C    2.4951002    2.0940188    2.9809380  
C    1.9440701    1.6314916    1.8291961  
C    0.8759964    0.7350050    2.2038498  
C    0.8497377    0.7130254    3.6788474  
N    1.8560616    1.5571714    4.0882609  
C   -0.0205033   -0.0168748    4.4215661  
C   -0.9962600   -0.8356168    3.7214979  
O   -1.8224391   -1.5286685    4.3006425  
C   -0.9864710   -0.8277881    2.1595606  
O   -1.8030528   -1.5133726    1.5592035  
C    0.0000000    0.0000000    1.4700000  
H    2.2509283    1.8888011    0.8310761  
H   -0.0229599   -0.0187323    5.5027230  
H    3.3143982    2.7817323    3.1139444  
H    2.0889452    1.7545833    5.0442112  
