58

C   -3.2798079   -0.0008362   -1.4499656  
C   -2.5571137   -0.0007518   -2.5996561  
C   -1.1637432   -0.0002436   -2.2210362  
C   -1.1336960   -0.0000666   -0.7459473  
N   -2.4483509   -0.0000442   -0.3402726  
C    0.0000000    0.0000000    0.0000000  
C    1.2757371    0.0001161   -0.6964413  
O    2.3524599    0.0002437   -0.1142313  
C    1.2676493    0.0001842   -2.2584079  
O    2.3355775    0.0005887   -2.8557294  
C   -0.0181553   -0.0001772   -2.9516296  
H   -2.9547342   -0.0008331   -3.5989109  
H   -0.0150772   -0.0003329   -4.0331630  
H   -2.7563624   -0.0014930    0.6148055  
C   -4.7390838   -0.0013234   -1.2727290  
C   -5.6949928   -0.0019857   -2.2307568  
C   -6.9549536   -0.0022117   -1.5034336  
C   -6.5623376   -0.0017154   -0.0777982  
N   -5.2646564   -0.0011128    0.0636650  
C   -7.5356715   -0.0017160    0.9794186  
C   -8.8418531   -0.0018020    0.6283840  
O   -9.8560145   -0.0018208    1.5101538  
C   -9.2698387   -0.0019283   -0.8016470  
O  -10.4759229   -0.0021261   -1.0477790  
C   -8.2523633   -0.0019688   -1.8677941  
H   -5.5615839   -0.0021938   -3.2990633  
H  -10.6613098   -0.0018617    0.9618366  
H   -8.6033667   -0.0019457   -2.8910370  
C   -4.3170726    2.0116362    3.3142582  
C   -5.1063019    1.6294690    2.2834115  
C   -6.0706600    0.7114168    2.8696653  
C   -5.7070670    0.6534077    4.3018030  
N   -4.6799188    1.4135946    4.5683970  
C   -6.4331587   -0.1589185    5.2388216  
C   -7.4753548   -0.8801949    4.7666744  
O   -8.2403182   -1.6807939    5.5281936  
C   -7.8672024   -0.8424969    3.3268149  
O   -8.8264677   -1.5248495    2.9670575  
C   -7.1066604   -0.0014955    2.3854234  
H   -5.0420583    1.9331284    1.2525190  
H   -6.1453331   -0.1824293    6.2797412  
H   -8.8955936   -2.0562889    4.9127493  
H   -3.4790829    2.6900877    3.2930424  
C    2.5128556    2.1077716    2.9199648  
C    1.9592212    1.6432552    4.0696553  
C    0.8915788    0.7479214    3.6910360  
C    0.8684491    0.7287414    2.2159470  
N    1.8754542    1.5738793    1.8102719  
C    0.0000000    0.0000000    1.4700000  
C   -0.9772830   -0.8200135    2.1664417  
O   -1.8021297   -1.5120829    1.5842315  
C   -0.9711318   -0.8147624    3.7284083  
O   -1.7894187   -1.5009653    4.3257297  
C    0.0140216    0.0115358    4.4216297  
H    2.2638494    1.8988021    5.0689105  
H    0.0117648    0.0094386    5.5031631  
H    3.3327358    2.7953732    2.7900019  
H    2.1123206    1.7707734    0.8551938  
