58

C    6.6174604   -0.0017048    1.3537082  
C    5.3857488   -0.0012517    0.7819028  
C    5.5854749   -0.0008504   -0.6481128  
C    7.0449748   -0.0011378   -0.8640993  
N    7.6133357   -0.0012549    0.3888394  
C    7.6418659   -0.0012960   -2.0828796  
C    6.7899755   -0.0009490   -3.2605124  
O    7.2316305   -0.0009952   -4.4021083  
C    5.2415215   -0.0003890   -3.0553446  
O    4.5141875    0.0002132   -4.0393395  
C    4.7161325   -0.0005435   -1.6923264  
H    4.4446710   -0.0010218    1.3024655  
H    8.7143808   -0.0016366   -2.2193391  
H    8.5996517   -0.0030073    0.5738417  
C    4.1893182    0.0000814    5.0416015  
C    4.6047696   -0.0000699    3.7487461  
C    6.0485009   -0.0013800    3.7704912  
C    6.4429287   -0.0020131    5.1921865  
N    5.2696977   -0.0006762    5.9108084  
C    7.7260462   -0.0036560    5.6341267  
C    8.7895610   -0.0046564    4.6434360  
O    9.9769295   -0.0060860    4.9408502  
C    8.3948936   -0.0037580    3.1321310  
O    9.2816211   -0.0042807    2.2889370  
C    6.9774632   -0.0022609    2.7789441  
H    3.9720628    0.0008360    2.8790937  
H    7.9938037   -0.0042241    6.6816081  
H    3.1847930    0.0008993    5.4325210  
H    5.2078120   -0.0022688    6.9124145  
C    3.2573665   -0.0002920   -1.5109385  
C    2.5379463   -0.0001709   -0.3591964  
C    1.1435038    0.0000331   -0.7338500  
C    1.1092599   -0.0000083   -2.2088477  
N    2.4227553    0.0001909   -2.6182613  
C   -0.0265539   -0.0002524   -2.9515660  
C   -1.3003040   -0.0002640   -2.2514977  
O   -2.3786790   -0.0004133   -2.8306421  
C   -1.2877727    0.0000311   -0.6895603  
O   -2.3539959    0.0003306   -0.0892030  
C    0.0000000    0.0000000    0.0000000  
H    2.9384091   -0.0000367    0.6389234  
H   -0.0296303   -0.0004086   -4.0327229  
H    2.7280482   -0.0013407   -3.5742119  
C    2.5128556    2.1077716    2.9199648  
C    1.9592212    1.6432552    4.0696553  
C    0.8915788    0.7479214    3.6910360  
C    0.8684491    0.7287414    2.2159470  
N    1.8754542    1.5738793    1.8102719  
C    0.0000000    0.0000000    1.4700000  
C   -0.9772830   -0.8200135    2.1664417  
O   -1.8021297   -1.5120829    1.5842315  
C   -0.9711318   -0.8147624    3.7284083  
O   -1.7894187   -1.5009653    4.3257297  
C    0.0140216    0.0115358    4.4216297  
H    2.2638494    1.8988021    5.0689105  
H    0.0117648    0.0094386    5.5031631  
H    3.3327358    2.7953732    2.7900019  
H    2.1123206    1.7707734    0.8551938  
