62

C    3.3041270    0.0001176   -1.5420433  
C    2.5845371   -0.0004780   -0.3695855  
C    1.2040008   -0.0000008   -0.7283591  
C    1.1422372    0.0006036   -2.1454374  
N    2.4348636    0.0026108   -2.6077465  
C   -0.0655187    0.0008797   -2.8497918  
C   -1.2321770    0.0002324   -2.1101398  
O   -2.4392825    0.0001147   -2.7472513  
C   -1.1911206   -0.0000008   -0.6955263  
O   -2.4371530   -0.0002319   -0.1032857  
C    0.0000000    0.0000000    0.0000000  
H    3.0031534   -0.0000661    0.6222579  
H    2.7054624   -0.0071100   -3.5745265  
H   -0.1193557    0.0014843   -3.9297471  
H   -3.1132993   -0.0000649   -2.0551778  
H   -2.3200284   -0.0004071    0.8516414  
C    6.5771493   -0.0035571    1.3345533  
C    7.6645483   -0.0027621    0.5288602  
C    7.1290977   -0.0009889   -0.8238370  
C    5.6614001   -0.0010504   -0.6437062  
N    5.3318745   -0.0024719    0.6193854  
C    4.7577217    0.0005128   -1.7610465  
C    5.2958116    0.0024560   -3.0019294  
O    4.5716623    0.0040579   -4.1340270  
C    6.7730248    0.0029427   -3.2164070  
O    7.1927145    0.0046215   -4.3735929  
C    7.6790893    0.0012688   -2.0540950  
H    8.7019024   -0.0032208    0.8169075  
H    5.2317433    0.0052549   -4.8505773  
H    8.7426324    0.0018005   -2.2518450  
C    7.6371798   -0.0073893    3.6329891  
C    6.5392967   -0.0053592    2.8040648  
C    5.3849515   -0.0070830    3.6419694  
C    5.8446709   -0.0098911    4.9838251  
N    7.2168587   -0.0119548    4.9424386  
C    4.9773209   -0.0118564    6.0804059  
C    3.6211825   -0.0106638    5.8176038  
O    2.7298953   -0.0121319    6.8513446  
C    3.1430838   -0.0082414    4.4856006  
O    1.7668520   -0.0077309    4.3890101  
C    3.9981692   -0.0065748    3.4033102  
H    7.8216567   -0.0035796    5.7437693  
H    5.3213726   -0.0141438    7.1055028  
H    1.8497771   -0.0112315    6.4530277  
H    1.5273559   -0.0060328    3.4572148  
H    3.6026154   -0.0049134    2.3943437  
H    8.6868135   -0.0073874    3.3937636  
C    0.0000000    0.0000000    1.4700000  
C    1.0541688    0.0001722    2.3260392  
C    0.5103138    0.0000454    3.6635956  
C   -0.9576371   -0.0002459    3.5155732  
N   -1.2018458    0.0001392    2.1615969  
C   -1.8348311   -0.0008317    4.5510609  
C   -1.2972847   -0.0009736    5.9014604  
O   -2.0050672   -0.0014265    6.9001319  
C    0.2542623   -0.0004184    6.0817573  
O    0.7184670   -0.0002256    7.2139121  
C    1.0974552   -0.0000873    4.8889129  
H    2.0940752    0.0005483    2.0517982  
H   -2.9081052   -0.0011668    4.4207061  
H    2.1707277    0.0000911    5.0223670  
H   -2.1128194   -0.0014912    1.7406791  
