58

C   -3.9028672    0.7026301   -7.8957234  
C   -2.9481726   -0.0008210   -8.5573799  
C   -3.6180883   -0.7425316   -9.5994517  
C   -5.0516019   -0.4111339   -9.4898935  
N   -5.1576018    0.4690252   -8.4377652  
C   -6.0202214   -0.9106126  -10.2985975  
C   -5.6244829   -1.8365504  -11.3467221  
O   -6.4223040   -2.3408866  -12.1261000  
C   -4.1117427   -2.2018147  -11.4809055  
O   -3.7666499   -2.9805522  -12.3593920  
C   -3.1609488   -1.5989001  -10.5501339  
H   -7.0660952   -0.6544815  -10.2013649  
H   -2.1153648   -1.8568352  -10.6498744  
H   -3.7954004    1.3718763   -7.0576009  
H   -6.0142112    0.8800980   -8.1148299  
C   -0.8712823    0.0001712   -4.7267111  
C    0.4275912    0.0003833   -5.1068522  
C    0.3927410    0.0003247   -6.5612539  
C   -1.0467465   -0.0000492   -6.8995726  
N   -1.7925763   -0.0000599   -5.8282525  
C   -1.5084818   -0.0001658   -8.2604131  
C   -0.5746209    0.0004688   -9.2387989  
O   -0.8627925    0.0004378  -10.5514293  
C    0.8856683    0.0012296   -8.9294213  
O    1.6794953    0.0016587   -9.8701972  
C    1.3340964    0.0012909   -7.5255565  
H    1.3014267    0.0006482   -4.4779747  
H    0.0042906    0.0010052  -10.9956357  
H    2.4004347    0.0019677   -7.3434774  
C    1.0965515    0.0001358   -0.8010304  
C    0.0000000    0.0000000    0.0000000  
C   -1.1546562    0.0001470   -0.8669514  
C   -0.6372012    0.0003520   -2.2486282  
N    0.7342873    0.0007338   -2.1395014  
C   -1.4147737    0.0001354   -3.3608717  
C   -2.8576047   -0.0001047   -3.1854463  
O   -3.6427778   -0.0002491   -4.1244908  
C   -3.4275837   -0.0000725   -1.7311667  
O   -4.6406828    0.0000333   -1.5710061  
C   -2.4891866   -0.0001090   -0.6116745  
H   -2.8919121   -0.0002919    0.3920865  
H    2.1388272    0.0000662   -0.5261647  
H    1.3735873   -0.0006098   -2.9130261  
C    2.3971438    2.0127888    3.1728260  
C    1.9431056    1.6308205    1.9564670  
C    0.8496017    0.7127664    2.2356185  
C    0.7794028    0.6545384    3.7115134  
N    1.6840587    1.4146091    4.2663826  
C   -0.1885723   -0.1578550    4.3957118  
C   -1.0476298   -0.8789867    3.6398520  
O   -2.0015663   -1.6796266    4.1448486  
C   -1.0022026   -0.8410666    2.1483229  
O   -1.8147390   -1.5232959    1.5241687  
C    0.0000000    0.0000000    1.4700000  
H    2.3054237    1.9346118    0.9892483  
H   -0.2170646   -0.1815267    5.4753125  
H   -2.4487139   -2.0549881    3.3649027  
H    3.2048689    2.6911772    3.3971983  
