60

C    0.0000000    0.0000000    0.0000000  
C   -1.0521661   -0.0016538   -0.8862343  
C   -0.4917231   -0.0001333   -2.1979132  
C    0.9187399    0.0021685   -2.0478684  
N    1.1833105    0.0041394   -0.7007914  
C    1.7951667    0.0038172   -3.1372092  
C    1.2375807    0.0028227   -4.4010426  
O    2.0474180    0.0039981   -5.4997578  
C   -0.1673610    0.0009044   -4.5711964  
O   -0.5673558    0.0005354   -5.8915554  
C   -1.0325794   -0.0004496   -3.4969891  
H   -2.0953062   -0.0025985   -0.6200564  
H    2.0989968   -0.0045638   -0.2891829  
H    2.8710889    0.0057184   -3.0295514  
H    1.4634847    0.0033061   -6.2693595  
H   -1.5290744   -0.0008175   -5.9180049  
C   -2.4861732   -0.0021816   -3.7159923  
C   -3.4897101   -0.0035377   -2.8011223  
C   -4.7313140   -0.0049723   -3.5381794  
C   -4.3662463   -0.0043654   -4.9676955  
N   -2.9909993   -0.0022646   -5.0074605  
C   -5.2594907   -0.0057387   -5.9893685  
C   -6.6749026   -0.0077367   -5.6590061  
O   -7.5569816   -0.0090172   -6.5076735  
C   -7.0843393   -0.0081590   -4.1516350  
O   -8.2730160   -0.0095290   -3.8612812  
C   -6.0304283   -0.0068382   -3.1401404  
H   -3.3734565   -0.0033513   -1.7319644  
H   -4.9706926   -0.0053910   -7.0312447  
H   -2.4390593   -0.0029499   -5.8455594  
C   -6.4271208   -0.0075288   -1.7246777  
C   -5.6430729   -0.0063869   -0.6159205  
C   -6.5277012   -0.0078497    0.5252480  
C   -7.9012439   -0.0099817   -0.0134228  
N   -7.7710104   -0.0092784   -1.3830682  
C   -9.0253281   -0.0121955    0.7469287  
C   -8.8721420   -0.0122722    2.1922898  
O   -9.8231645   -0.0141153    2.9629088  
C   -7.4268145   -0.0097827    2.7845970  
O   -7.2853551   -0.0095176    4.0000190  
C   -6.2930062   -0.0077940    1.8635509  
H   -4.5677422   -0.0045287   -0.5993589  
H  -10.0236044   -0.0138660    0.3317777  
H   -5.2955672   -0.0062816    2.2816866  
H   -8.5345956   -0.0118965   -2.0342048  
C    1.0965515   -0.0001358    2.2710304  
C    0.0000000    0.0000000    1.4700000  
C   -1.1546562   -0.0001469    2.3369512  
C   -0.6372014   -0.0003519    3.7186280  
N    0.7342871   -0.0007337    3.6095011  
C   -1.4147739   -0.0001353    4.8308716  
C   -2.8576048    0.0001048    4.6554461  
O   -3.6427778    0.0002493    5.5944904  
C   -3.4275839    0.0000726    3.2011665  
O   -4.6406829   -0.0000333    3.0410059  
C   -2.4891866    0.0001091    2.0816745  
H   -1.0150448   -0.0001615    5.8354244  
H   -2.8919121    0.0002919    1.0779135  
H    2.1388271   -0.0000662    1.9961646  
H    1.3735872    0.0006099    4.3830260  
