62

C    1.1243395    0.0100939   -0.7919010  
C    0.7474039    0.0235224   -2.1148549  
C   -0.6787418    0.0233883   -2.1414696  
C   -1.1201761    0.0097586   -0.7935540  
N    0.0000000    0.0000000    0.0000000  
C   -2.4730827    0.0061481   -0.4408225  
C   -3.3971982    0.0167922   -1.4675042  
O   -4.7313542    0.0141997   -1.1793438  
C   -2.9763699    0.0300832   -2.8186306  
O   -4.0166533    0.0391507   -3.7247599  
C   -1.6418617    0.0333790   -3.1673473  
H   -2.8160161   -0.0043650    0.5845981  
H   -5.1938852    0.0226192   -2.0274351  
H   -3.6464744    0.0479018   -4.6127319  
H   -1.3497540    0.0434661   -4.2109224  
H    2.1062456    0.0054721   -0.3505424  
C    2.8209486   -0.6504607   -3.4130380  
C    1.6628896    0.0340410   -3.2649310  
C    1.5140623    0.7907443   -4.4985236  
C    2.7042427    0.4342122   -5.3003587  
N    3.4739550   -0.4103281   -4.6692605  
C    2.9321603    0.9825419   -6.6089740  
C    2.0126818    1.8474218   -7.0946453  
O    2.0979868    2.4347831   -8.3003690  
C    0.8009541    2.2267174   -6.3097814  
O    0.0060053    3.0197248   -6.8141780  
C    0.5897347    1.6507086   -4.9698091  
H    1.3012971    2.9921828   -8.3615579  
H   -0.3005436    1.9507833   -4.4335351  
H    3.2851764   -1.3290921   -2.7152375  
C    5.0570091   -2.9141802   -7.1477080  
C    4.1738601   -1.9327418   -6.7613227  
C    4.6017075   -0.7206720   -7.3797348  
C    5.7606632   -1.0268544   -8.1380237  
N    6.0106866   -2.3666541   -7.9735790  
C    6.4524688   -0.0669932   -8.8829129  
C    5.9652686    1.2254398   -8.8621756  
O    6.6020949    2.2019100   -9.5720854  
C    4.8105676    1.5506268   -8.1113516  
O    4.4513044    2.8802009   -8.1920199  
C    4.1277366    0.6042662   -7.3760500  
H    3.3262416   -2.0729246   -6.1125661  
H    6.7647969   -2.8730637   -8.4011867  
H    7.3364564   -0.2939122   -9.4628056  
H    6.1054077    3.0167591   -9.4217976  
H    3.6630262    3.0152407   -7.6572438  
H    5.0829215   -3.9611397   -6.8983819  
C    2.4951002    2.0940188    2.9809380  
C    1.9440701    1.6314916    1.8291961  
C    0.8759964    0.7350050    2.2038498  
C    0.8497377    0.7130254    3.6788474  
N    1.8560616    1.5571714    4.0882609  
C   -0.0205033   -0.0168748    4.4215661  
C   -0.9962600   -0.8356168    3.7214979  
O   -1.8224391   -1.5286685    4.3006425  
C   -0.9864710   -0.8277881    2.1595606  
O   -1.8030528   -1.5133726    1.5592035  
C    0.0000000    0.0000000    1.4700000  
H    2.2509283    1.8888011    0.8310761  
H   -0.0229599   -0.0187323    5.5027230  
H    3.3143982    2.7817323    3.1139444  
H    2.0889452    1.7545833    5.0442112  
