60

C    3.3041275    0.0001174   -1.5420427  
C    2.5845373   -0.0004781   -0.3695847  
C    1.2040009   -0.0000009   -0.7283587  
C    1.1422379    0.0006033   -2.1454375  
N    2.4348645    0.0026106   -2.6077463  
C   -0.0655177    0.0008794   -2.8497921  
C   -1.2321765    0.0002322   -2.1101403  
O   -2.4392807    0.0001143   -2.7472524  
C   -1.1911209   -0.0000009   -0.6955264  
O   -2.4371522   -0.0002320   -0.1032871  
C    0.0000000    0.0000000    0.0000000  
H    3.0031536   -0.0000662    0.6222589  
H   -0.1193541    0.0014839   -3.9297470  
H   -3.1132983   -0.0000650   -2.0551793  
H   -2.3200281   -0.0004069    0.8516406  
H    4.3686628    0.0004068   -1.7024286  
C    5.6502451   -2.1159098   -4.7187972  
C    5.4250940   -1.6663859   -5.9802687  
C    4.2912982   -0.7748315   -5.9133905  
C    3.8713727   -0.7415302   -4.4994090  
N    4.7351851   -1.5757179   -3.8279561  
C    2.8310672   -0.0116225   -4.0232748  
C    2.0743475    0.7948328   -4.9664295  
O    1.1203098    1.4867872   -4.6358044  
C    2.5012821    0.7745011   -6.4688001  
O    1.8714994    1.4492142   -7.2721659  
C    3.6401563   -0.0516392   -6.8616232  
H    5.9888062   -1.9294835   -6.8575500  
H    6.4075330   -2.7965357   -4.3650266  
H    4.7066632   -1.7617131   -2.8422384  
C    4.4394208   -1.1192001   -9.0204682  
C    4.0333919   -0.0630432   -8.2780042  
C    4.0687098    1.0711586   -9.1884104  
C    4.5314676    0.5036327  -10.4730715  
N    4.7503132   -0.7799470  -10.3807728  
C    4.7007410    1.3156218  -11.6465734  
C    4.4200919    2.6345407  -11.5415793  
O    4.5334073    3.5090625  -12.5556855  
C    3.9508479    3.2370520  -10.2590225  
O    3.7142030    4.4448157  -10.2360784  
C    3.7851335    2.3831926   -9.0693220  
H    5.0405384    0.8744032  -12.5721939  
H    4.2651218    4.3651997  -12.1759427  
H    3.4430952    2.8579332   -8.1594530  
H    4.5492892   -2.1461283   -8.7101119  
C    2.4951002    2.0940188    2.9809380  
C    1.9440701    1.6314916    1.8291961  
C    0.8759964    0.7350050    2.2038498  
C    0.8497377    0.7130254    3.6788474  
N    1.8560616    1.5571714    4.0882609  
C   -0.0205033   -0.0168748    4.4215661  
C   -0.9962600   -0.8356168    3.7214979  
O   -1.8224391   -1.5286685    4.3006425  
C   -0.9864710   -0.8277881    2.1595606  
O   -1.8030528   -1.5133726    1.5592035  
C    0.0000000    0.0000000    1.4700000  
H    2.2509283    1.8888011    0.8310761  
H   -0.0229599   -0.0187323    5.5027230  
H    3.3143982    2.7817323    3.1139444  
H    2.0889452    1.7545833    5.0442112  
