62

C    3.3041272    0.0001175   -1.5420435  
C    2.5845371   -0.0004783   -0.3695853  
C    1.2040006   -0.0000009   -0.7283590  
C    1.1422372    0.0006035   -2.1454375  
N    2.4348637    0.0026107   -2.6077467  
C   -0.0655185    0.0008795   -2.8497920  
C   -1.2321771    0.0002323   -2.1101398  
O   -2.4392814    0.0001144   -2.7472513  
C   -1.1911211   -0.0000008   -0.6955259  
O   -2.4371530   -0.0002319   -0.1032851  
C    0.0000000    0.0000000    0.0000000  
H    3.0031536   -0.0000662    0.6222579  
H   -0.1193552    0.0014841   -3.9297469  
H   -3.1132988   -0.0000648   -2.0551785  
H   -2.3200282   -0.0004071    0.8516417  
H    4.3686621    0.0004070   -1.7024297  
C    5.6515792   -2.1002976   -4.7819019  
C    4.8081953   -1.6310299   -3.8266184  
C    3.8761256   -0.7467205   -4.4854643  
C    4.2482777   -0.7392326   -5.9131329  
N    5.3319456   -1.5792872   -6.0265390  
C    3.6067587   -0.0234896   -6.8711881  
C    2.4743151    0.7942200   -6.4693699  
O    1.8313252    1.4750508   -7.2576178  
C    2.0627995    0.8015928   -4.9625836  
O    1.1111835    1.4864535   -4.6123650  
C    2.8310660   -0.0116222   -4.0232754  
H    4.8359708   -1.8762190   -2.7798496  
H    6.4798585   -2.7827408   -4.6813314  
H    5.8148552   -1.7840908   -6.8820513  
C    4.4151538   -1.1453684   -8.9850280  
C    4.7164542   -0.7828229  -10.2774083  
C    4.4771660    0.6193842  -10.3830324  
C    4.0276806    1.0617704   -9.1125278  
N    3.9997301   -0.0352238   -8.2876403  
C    3.6963349    2.3943532   -8.8494281  
C    3.8213032    3.2968453   -9.8877292  
O    3.5114219    4.6106578   -9.6855315  
C    4.2677675    2.8746348  -11.1625725  
O    4.3389541    3.8920412  -12.0916370  
C    4.5945647    1.5601195  -11.4229170  
H    5.0646976   -1.4474695  -11.0493953  
H    3.3530251    2.7378665   -7.8833329  
H    3.6662489    5.0602589  -10.5264556  
H    4.6485539    3.5225128  -12.9242235  
H    4.9335469    1.2663654  -12.4094655  
H    4.4623466   -2.1082707   -8.5059134  
C    2.5128556    2.1077716    2.9199648  
C    1.9592212    1.6432552    4.0696553  
C    0.8915788    0.7479214    3.6910360  
C    0.8684491    0.7287414    2.2159470  
N    1.8754542    1.5738793    1.8102719  
C    0.0000000    0.0000000    1.4700000  
C   -0.9772830   -0.8200135    2.1664417  
O   -1.8021297   -1.5120829    1.5842315  
C   -0.9711318   -0.8147624    3.7284083  
O   -1.7894187   -1.5009653    4.3257297  
C    0.0140216    0.0115358    4.4216297  
H    2.2638494    1.8988021    5.0689105  
H    0.0117648    0.0094386    5.5031631  
H    3.3327358    2.7953732    2.7900019  
H    2.1123206    1.7707734    0.8551938  
