60

C    1.1243355    0.0105987   -0.7919006  
C    0.7473945    0.0238570   -2.1148544  
C   -0.6787509    0.0230821   -2.1414699  
C   -1.1201794    0.0092544   -0.7935549  
N    0.0000000    0.0000000    0.0000000  
C   -2.4730849    0.0050361   -0.4408239  
C   -3.3972045    0.0152643   -1.4675060  
O   -4.7313584    0.0120721   -1.1793468  
C   -2.9763813    0.0287439   -2.8186323  
O   -4.0166687    0.0373435   -3.7247617  
C   -1.6418745    0.0326391   -3.1673482  
H   -2.8160141   -0.0056308    0.5845971  
H   -5.1938933    0.0202831   -2.0274379  
H   -3.6464930    0.0462604   -4.6127340  
H   -1.3497708    0.0428573   -4.2109231  
H    2.1062432    0.0064181   -0.3505407  
C    2.8413489   -0.6900443   -3.3574580  
C    3.4610195   -0.4621977   -4.5441211  
C    2.6379327    0.4710677   -5.2765002  
C    1.4796534    0.7704252   -4.4130394  
N    1.6628762    0.0347866   -3.2649301  
C    0.4697019    1.6134185   -4.7463024  
C    0.5272240    2.2695144   -6.0419741  
O   -0.3338532    3.0460519   -6.4341940  
C    1.7445935    1.9670035   -6.9727284  
O    1.8037296    2.5132628   -8.0660556  
C    2.7713942    1.0402236   -6.5030348  
H   -0.3708369    1.8193134   -4.0982197  
H    3.6111336    0.8362795   -7.1533954  
H    3.1463371   -1.3266531   -2.5428408  
C    4.7290698   -1.0582727   -4.9886912  
C    5.5360427   -1.9367210   -4.3396930  
C    6.6545050   -2.2049442   -5.2125810  
C    6.4314051   -1.4049953   -6.4320472  
N    5.2473486   -0.7332032   -6.2330611  
C    7.2678276   -1.3824107   -7.5004999  
C    8.4677725   -2.2007518   -7.4458507  
O    9.2833987   -2.2487074   -8.3573083  
C    8.7240223   -3.0561134   -6.1642512  
O    9.7307622   -3.7492556   -6.1069046  
C    7.7497748   -2.9975630   -5.0773908  
H    5.3669830   -2.3498169   -3.3612327  
H    7.0856832   -0.7884717   -8.3853550  
H    7.9346722   -3.5926391   -4.1934102  
H    4.8257734   -0.1022381   -6.8897233  
C    0.8681109    0.7263879    2.2709268  
C    0.6127770    0.5096195    3.5869401  
C   -0.4920590   -0.4175482    3.6542670  
C   -0.8620974   -0.7254003    2.2596025  
N    0.0000000    0.0000000    1.4700000  
C   -1.8641242   -1.5660088    1.8976294  
C   -2.6293522   -2.2103885    2.9520183  
O   -3.5512764   -2.9839180    2.7283916  
C   -2.2549728   -1.8987399    4.4361073  
O   -2.8923672   -2.4351063    5.3323774  
C   -1.1543735   -0.9755647    4.7012123  
H    1.1382914    0.9492124    4.4159191  
H   -2.1192137   -1.7782617    0.8686553  
H   -0.9013378   -0.7652422    5.7314848  
H    1.6172880    1.3558399    1.8188057  
