58

C    7.5910870   -2.7421236   -4.8059203  
C    8.8602752   -2.2703011   -4.9089711  
C    8.7626589   -0.8568513   -5.1872987  
C    7.3222351   -0.5416202   -5.2382889  
N    6.6663056   -1.7272091   -4.9994896  
C    6.8134651    0.6934902   -5.4777870  
C    7.7468467    1.7851754   -5.7004002  
O    7.3874311    2.9336939   -5.9240673  
C    9.2767641    1.4741503   -5.6511921  
O   10.0721480    2.3851654   -5.8374063  
C    9.7039695    0.1030450   -5.3839495  
H    9.7619618   -2.8466802   -4.8023753  
H   10.7650161   -0.1039305   -5.3513358  
H    7.2535308   -3.7459177   -4.6050653  
H    5.6693784   -1.8377368   -4.9683949  
C    3.4164201   -0.7248687   -3.0395957  
C    4.6504342   -0.5074357   -3.5630528  
C    4.4860928    0.4201596   -4.6573078  
C    3.0448514    0.7275388   -4.7289411  
N    2.4521483    0.0014840   -3.7217481  
C    2.4820253    1.5683510   -5.6333557  
C    3.3539025    2.2134654   -6.6009263  
O    2.9430853    2.9872304   -7.4558052  
C    4.8835167    1.9023274   -6.5436540  
O    5.6273698    2.4393134   -7.3533383  
C    5.3721317    0.9788703   -5.5227059  
H    5.5707633   -0.9468576   -3.2217088  
H    1.4224208    1.7802485   -5.6686830  
H    3.1302859   -1.3547876   -2.2130249  
C    0.0000000    0.0000000    0.0000000  
C    1.0662923   -0.0000101   -0.8334270  
C    0.4961873    0.0000065   -2.1718887  
C   -0.9663854   -0.0000848   -1.9540250  
N   -1.2632773   -0.0000083   -0.6828660  
C   -1.8985359   -0.0000514   -3.0477261  
C   -1.3925770    0.0004566   -4.3020547  
O   -2.1456378    0.0005414   -5.4151314  
C    0.0786240    0.0009326   -4.5545000  
O    0.4683767    0.0012591   -5.7221100  
C    1.0143171    0.0008444   -3.4159031  
H    2.1107200    0.0000633   -0.5721865  
H   -2.9622181   -0.0003268   -2.8593381  
H   -1.5042265    0.0009697   -6.1484419  
C    1.0672568    0.0000697    2.3021913  
C    0.0000000    0.0000000    1.4700000  
C   -1.1601224    0.0000736    2.3478473  
C   -0.5938729    0.0000769    3.7138435  
N    0.7113367    0.0001554    3.6934124  
C   -1.4286986    0.0001879    4.8835240  
C   -2.7683114    0.0006799    4.6970523  
O   -3.6653903    0.0008304    5.6976972  
C   -3.3702025    0.0010610    3.3310774  
O   -4.5974910    0.0013779    3.2362962  
C   -2.4926826    0.0008943    2.1470656  
H   -0.9878360   -0.0000190    5.8697035  
H   -4.5324246    0.0012261    5.2533954  
H   -2.9677772    0.0012974    1.1752040  
H    2.1134392    0.0000545    2.0405121  
