60

C   -3.2745626   -0.4410155   -1.5420435  
C   -2.5614874   -0.3444039   -0.3695855  
C   -1.1932332   -0.1606597   -0.7283590  
C   -1.1319416   -0.1530171   -2.1454376  
N   -2.4127403   -0.3274929   -2.6077469  
C    0.0650500    0.0078709   -2.8497918  
C    1.2211890    0.1641901   -2.1101396  
O    2.4174824    0.3253814   -2.7472516  
C    1.1804689    0.1589426   -0.6955257  
O    2.4153259    0.3254407   -0.1032863  
C    0.0000000    0.0000000    0.0000000  
H   -2.9763056   -0.4006719    0.6222582  
H    0.1184861    0.0144556   -3.9297468  
H    3.0854483    0.4154993   -2.0551783  
H    2.2992260    0.3099853    0.8516420  
H   -4.3295390   -0.5833526   -1.7024297  
C   -2.8072986   -0.3662561   -4.0232754  
C   -4.0421865   -0.5313425   -4.5635281  
C   -3.8826400   -0.4931269   -5.9980731  
C   -2.4432515   -0.2908224   -6.2511032  
N   -1.8470470   -0.2216832   -5.0131012  
C   -1.8847422   -0.1999780   -7.4846019  
C   -2.7597031   -0.3084858   -8.6401127  
O   -2.3528559   -0.2394691   -9.7925066  
C   -4.2874951   -0.5226949   -8.3956312  
O   -5.0339960   -0.6151893   -9.3607439  
C   -4.7713155   -0.6050400   -7.0197718  
H   -4.9601292   -0.6644916   -4.0192241  
H   -5.8304721   -0.7536519   -6.8590674  
H   -0.8652776   -0.0888966   -4.8532764  
C    1.5443514   -1.9098233   -5.4096936  
C    2.5848253   -1.3469763   -6.0671099  
C    1.9743740   -0.5007714   -7.0809074  
C    0.5191300   -0.6779215   -6.8873449  
N    0.2609654   -1.5027112   -5.9090491  
C   -0.4457608    0.0017601   -7.7071651  
C    0.0218750    0.8214641   -8.6760495  
O   -0.7646021    1.5181737   -9.5139578  
C    1.4846904    1.0213623   -8.8959878  
O    1.8388105    1.7822292   -9.7964880  
C    2.4544853    0.3128609   -8.0419100  
H    3.6366707   -1.4884749   -5.8863477  
H   -0.1457657    2.0062352  -10.0866620  
H    3.5052317    0.4847041   -8.2333061  
H    1.5770833   -2.6032281   -4.5844111  
C    0.8400945    0.7047457    2.2710304  
C    0.0000000    0.0000000    1.4700000  
C   -0.8844236   -0.7423113    2.3369512  
C   -0.4878984   -0.4098547    3.7186280  
N    0.5629682    0.4714286    3.6095011  
C   -1.0836927   -0.9095027    4.8308716  
C   -2.1891196   -1.8367527    4.6554461  
O   -2.7906899   -2.3413415    5.5944904  
C   -2.6257283   -2.2031529    3.2011665  
O   -3.5549479   -2.9829990    3.0410059  
C   -1.9068976   -1.5999348    2.0816745  
H   -0.7774656   -0.6525820    5.8354244  
H   -2.2155208   -1.8586617    1.0779135  
H    1.6384792    1.3747609    1.9961646  
H    1.0518368    0.8833920    4.3830260  
