58

C   -0.2220864    0.5472887   -9.3539620  
C    0.8420632   -0.2957712   -9.3841252  
C    1.3172528   -0.3253004  -10.7472690  
C    0.4364163    0.5761484  -11.5142813  
N   -0.4756091    1.0728398  -10.6118419  
C    0.5572943    0.8217058  -12.8434891  
C    1.6261371    0.1533940  -13.5670028  
O    1.8175820    0.3089136  -14.7659437  
C    2.5707093   -0.8058046  -12.7748373  
O    3.4739567   -1.3742985  -13.3733510  
C    2.3409737   -0.9901060  -11.3440647  
H    1.2477257   -0.8355204   -8.5470348  
H   -0.0993826    1.4866602  -13.3871087  
H    2.9995300   -1.6557481  -10.8028193  
H   -1.2107652    1.7192751  -10.8325551  
C   -0.0323137   -0.6779775   -5.1766171  
C   -1.0641734    0.0073898   -4.6315339  
C   -1.6436473    0.7548047   -5.7370118  
C   -0.8149135    0.3925081   -6.9068521  
N    0.1311769   -0.4471328   -6.5845080  
C   -1.0682728    0.9310666   -8.2148469  
C   -2.1027601    1.7921068   -8.3481910  
O   -2.4529919    2.3704387   -9.5096170  
C   -2.9577287    2.1770344   -7.1867175  
O   -3.8822558    2.9660878   -7.3813050  
C   -2.6775433    1.6110362   -5.8551523  
H   -3.2210379    2.9272097   -9.2876636  
H   -3.3201089    1.9149461   -5.0396904  
H    0.6514404   -1.3512741   -4.6845544  
C    1.1319248    0.0015675   -0.8009270  
C    0.7969916    0.0034959   -2.1169404  
C   -0.6453336    0.0035703   -2.1842672  
C   -1.1266831    0.0015415   -0.7896027  
N    0.0000000    0.0000000    0.0000000  
C   -2.4346129    0.0013924   -0.4276297  
C   -3.4350110    0.0031352   -1.4820184  
O   -4.6384610    0.0030897   -1.2583919  
C   -2.9478958    0.0050460   -2.9661075  
O   -3.7809377    0.0062160   -3.8623775  
C   -1.5113821    0.0053068   -3.2312125  
H    1.4821240    0.0045436   -2.9459192  
H   -2.7664565    0.0000185    0.6013447  
H    2.1104318    0.0009428   -0.3488058  
C    0.0000000    0.0000000    1.4700000  
C    1.0662921    0.0000102    2.3034270  
C    0.4961870   -0.0000064    3.6418889  
C   -0.9663858    0.0000850    3.4240247  
N   -1.2632773    0.0000084    2.1528658  
C   -1.8985362    0.0000517    4.5177257  
C   -1.3925775   -0.0004564    5.7720543  
O   -2.1456383   -0.0005410    6.8851312  
C    0.0786232   -0.0009323    6.0245000  
O    0.4683759   -0.0012588    7.1921102  
C    1.0143166   -0.0008442    4.8859032  
H    2.1107198   -0.0000632    2.0421868  
H   -2.9622183    0.0003270    4.3293377  
H   -1.5042274   -0.0009692    7.6184419  
H    2.0724152   -0.0013148    5.1109744  
