62

C    1.1188648    0.0008224   -0.8003808  
C    0.0000000    0.0000000    0.0000000  
C   -1.1323856    0.0008899   -0.8673532  
C   -0.6382652    0.0019680   -2.1969285  
N    0.7324026    0.0038481   -2.1202240  
C   -1.4770902    0.0027317   -3.3154818  
C   -2.8395465    0.0020943   -3.0876868  
O   -3.7039183    0.0024421   -4.1440356  
C   -3.3517865    0.0013928   -1.7684340  
O   -4.7300494    0.0012365   -1.7073132  
C   -2.5248539    0.0009123   -0.6644827  
H   -1.1067556    0.0036988   -4.3313817  
H   -4.5940018    0.0021826   -3.7685147  
H   -4.9934600    0.0007259   -0.7819928  
H   -2.9462579    0.0005602    0.3339648  
H    2.1619897    0.0009357   -0.5342064  
C    4.5412320   -2.0990433   -2.8732831  
C    3.3927961   -1.6299051   -2.3209426  
C    2.7903289   -0.7451819   -3.2900315  
C    3.6883355   -0.7373099   -4.4606351  
N    4.7307599   -1.5775599   -4.1440598  
C    3.4698875   -0.0211181   -5.5924718  
C    2.2703767    0.7967037   -5.6623070  
O    1.9845423    1.4779284   -6.6382848  
C    1.3053409    0.8036751   -4.4341124  
O    0.2924819    1.4886261   -4.4812232  
C    1.6478447   -0.0100098   -3.2702996  
H    3.0113381   -1.8754402   -1.3458448  
H    5.2651738   -2.7816968   -2.4588164  
H    5.5083129   -1.7821891   -4.7445478  
C    5.0340362   -1.1388106   -7.2388891  
C    4.3827122   -0.0324764   -6.7446536  
C    4.7664630    1.0745796   -7.5581410  
C    5.6607884    0.5785809   -8.5410419  
N    5.8028719   -0.7684101   -8.3173343  
C    6.2407509    1.3949831   -9.5167058  
C    5.9116695    2.7364766   -9.5000167  
O    6.4491759    3.5784076  -10.4302069  
C    5.0215561    3.2502828   -8.5271244  
O    4.7941745    4.6061198   -8.6426545  
C    4.4492465    2.4455142   -7.5641427  
H    6.3692032   -1.3910502   -8.8646639  
H    6.9232055    1.0231193  -10.2684862  
H    6.0935330    4.4565763  -10.2415177  
H    4.1830052    4.8722167   -7.9489196  
H    3.7710888    2.8675762   -6.8317180  
H    5.0121123   -2.1625503   -6.9065704  
C    0.8681109    0.7263879    2.2709268  
C    0.6127770    0.5096195    3.5869401  
C   -0.4920590   -0.4175482    3.6542670  
C   -0.8620974   -0.7254003    2.2596025  
N    0.0000000    0.0000000    1.4700000  
C   -1.8641242   -1.5660088    1.8976294  
C   -2.6293522   -2.2103885    2.9520183  
O   -3.5512764   -2.9839180    2.7283916  
C   -2.2549728   -1.8987399    4.4361073  
O   -2.8923672   -2.4351063    5.3323774  
C   -1.1543735   -0.9755647    4.7012123  
H    1.1382914    0.9492124    4.4159191  
H   -2.1192137   -1.7782617    0.8686553  
H   -0.9013378   -0.7652422    5.7314848  
H    1.6172880    1.3558399    1.8188057  
