62

C    3.3041270    0.0001178   -1.5420432  
C    2.5845372   -0.0004779   -0.3695853  
C    1.2040007   -0.0000006   -0.7283591  
C    1.1422373    0.0006039   -2.1454374  
N    2.4348636    0.0026110   -2.6077466  
C   -0.0655186    0.0008800   -2.8497915  
C   -1.2321770    0.0002326   -2.1101397  
O   -2.4392818    0.0001149   -2.7472515  
C   -1.1911209   -0.0000006   -0.6955262  
O   -2.4371522   -0.0002319   -0.1032858  
C    0.0000000    0.0000000    0.0000000  
H    3.0031535   -0.0000661    0.6222580  
H    2.7054625   -0.0071097   -3.5745263  
H   -3.1132993   -0.0000646   -2.0551781  
H   -2.3200286   -0.0004070    0.8516413  
C    6.7068652   -0.0034178    1.2828889  
C    7.7136018   -0.0021475    0.3453677  
C    7.0885452   -0.0007420   -0.9367793  
C    5.6872999   -0.0009462   -0.7166943  
N    5.4901250   -0.0045361    0.6418810  
C    4.7577214    0.0005130   -1.7610465  
C    5.2516912    0.0025160   -3.0510726  
O    4.3881527    0.0043529   -4.1081026  
C    6.6464190    0.0023764   -3.2909673  
O    6.9801786    0.0041003   -4.6296031  
C    7.5640504    0.0006643   -2.2611726  
H    8.7687023   -0.0033295    0.5592768  
H    4.5960834    0.0050496    1.0985853  
H    4.9330445    0.0052560   -4.9058225  
H    7.9393885    0.0039071   -4.7039037  
H    8.6263216    0.0004197   -2.4757855  
H    6.7604653   -0.0050603    2.3581021  
C    0.6605675   -0.7024456   -5.1602323  
C   -0.1387086    0.0017020   -4.3179679  
C   -1.0653118    0.7443399   -5.1393883  
C   -0.7380207    0.4127269   -6.5392824  
N    0.3171086   -0.4684296   -6.4831128  
C   -1.3885289    0.9128903   -7.6201989  
C   -2.4839900    1.8398446   -7.3894268  
O   -3.1316444    2.3448509   -8.2970686  
C   -2.8477053    2.2053534   -5.9150050  
O   -3.7679154    2.9849439   -5.7083353  
C   -2.0739367    1.6016380   -4.8330337  
H   -1.1326587    0.6565861   -8.6388987  
H   -2.3322398    1.8597483   -3.8150049  
H    1.4717483   -1.3724717   -4.9258385  
H    0.7669198   -0.8798730   -7.2802521  
C    2.5128556    2.1077716    2.9199648  
C    1.9592212    1.6432552    4.0696553  
C    0.8915788    0.7479214    3.6910360  
C    0.8684491    0.7287414    2.2159470  
N    1.8754542    1.5738793    1.8102719  
C    0.0000000    0.0000000    1.4700000  
C   -0.9772830   -0.8200135    2.1664417  
O   -1.8021297   -1.5120829    1.5842315  
C   -0.9711318   -0.8147624    3.7284083  
O   -1.7894187   -1.5009653    4.3257297  
C    0.0140216    0.0115358    4.4216297  
H    2.2638494    1.8988021    5.0689105  
H    0.0117648    0.0094386    5.5031631  
H    3.3327358    2.7953732    2.7900019  
H    2.1123206    1.7707734    0.8551938  
