58

C   -1.0965426    0.0043837   -0.8010309  
C    0.0000000    0.0000000    0.0000000  
C    1.1546461   -0.0049060   -0.8669511  
C    0.6371951   -0.0029782   -2.2486280  
N   -0.7342834    0.0022926   -2.1395012  
C    1.4147621   -0.0059665   -3.3608714  
C    2.8575817   -0.0116730   -3.1854456  
O    3.6427492   -0.0147647   -4.1244896  
C    3.4275556   -0.0140544   -1.7311652  
O    4.6406438   -0.0191601   -1.5710044  
C    2.4891660   -0.0101502   -0.6116739  
H    2.8918885   -0.0116272    0.3920869  
H   -2.1388090    0.0087490   -0.5261650  
H   -1.3735722    0.0062710   -2.9130263  
C    0.8712755   -0.0037622   -4.7267106  
C   -0.4275876    0.0013791   -5.1068515  
C   -0.3927374    0.0012943   -6.5612540  
C    1.0467396   -0.0042648   -6.8995716  
N    1.7925627   -0.0073282   -5.8282518  
C    1.5084716   -0.0060512   -8.2604119  
C    0.5746167   -0.0028368   -9.2387987  
O    0.8627862   -0.0039935  -10.5514281  
C   -0.8856638    0.0024210   -8.9294217  
O   -1.6794854    0.0052640   -9.8701976  
C   -1.3340887    0.0042078   -7.5255568  
H   -1.3014174    0.0047157   -4.4779746  
H    2.5664278   -0.0099303   -8.4786392  
H   -0.0042917   -0.0009874  -10.9956356  
C   -4.0512158    2.0270591   -4.6290527  
C   -2.9299558    1.6410696   -5.2812550  
C   -3.3923410    0.7243598   -6.3119552  
C   -4.8591867    0.6712296   -6.1327228  
N   -5.2512491    1.4328892   -5.1477601  
C   -5.6993449   -0.1384714   -6.9715344  
C   -5.1013517   -0.8618989   -7.9453881  
O   -5.7624623   -1.6604674   -8.8005267  
C   -3.6233340   -0.8291217   -8.1516656  
O   -3.1472021   -1.5132105   -9.0575029  
C   -2.7831076    0.0092607   -7.2781327  
H   -1.9145112    1.9414087   -5.0869761  
H   -6.7684140   -0.1584221   -6.8179005  
H   -5.0702041   -2.0383525   -9.3724829  
H   -4.1340948    2.7059344   -3.7952466  
C    0.8681109    0.7263879    2.2709268  
C    0.6127770    0.5096195    3.5869401  
C   -0.4920590   -0.4175482    3.6542670  
C   -0.8620974   -0.7254003    2.2596025  
N    0.0000000    0.0000000    1.4700000  
C   -1.8641242   -1.5660088    1.8976294  
C   -2.6293522   -2.2103885    2.9520183  
O   -3.5512764   -2.9839180    2.7283916  
C   -2.2549728   -1.8987399    4.4361073  
O   -2.8923672   -2.4351063    5.3323774  
C   -1.1543735   -0.9755647    4.7012123  
H    1.1382914    0.9492124    4.4159191  
H   -2.1192137   -1.7782617    0.8686553  
H   -0.9013378   -0.7652422    5.7314848  
H    1.6172880    1.3558399    1.8188057  
