58

C   -2.8696924   -0.0395364   -4.0185831  
C   -4.1342080   -0.0565049   -4.5133425  
C   -4.0230872   -0.0529172   -5.9529518  
C   -2.5798306   -0.0323489   -6.2585309  
N   -1.9353303   -0.0246619   -5.0430273  
C   -2.0593051   -0.0237095   -7.5117999  
C   -2.9821249   -0.0352261   -8.6346567  
O   -2.6117650   -0.0287057   -9.8013143  
C   -4.5148284   -0.0567871   -8.3343896  
O   -5.3014021   -0.0663191   -9.2716578  
C   -4.9550946   -0.0647543   -6.9415671  
H   -5.0412955   -0.0698131   -3.9357371  
H   -0.9973520   -0.0087296   -7.7141391  
H   -0.9395568   -0.0123987   -4.9192025  
C   -3.2570294   -0.0469108   -1.5109388  
C   -2.5376829   -0.0366067   -0.3591965  
C   -1.1433837   -0.0166038   -0.7338501  
C   -1.1091445   -0.0160661   -2.2088482  
N   -2.4224991   -0.0352992   -2.6182617  
C    0.0265469    0.0006373   -2.9515663  
C    1.3001631    0.0191068   -2.2514981  
O    2.3784223    0.0348830   -2.8306429  
C    1.2876377    0.0186301   -0.6895611  
O    2.3537530    0.0337814   -0.0892041  
C    0.0000000    0.0000000    0.0000000  
H   -2.9381013   -0.0425441    0.6389230  
H    0.0296205    0.0008380   -4.0327235  
H   -4.3265918   -0.0622271   -1.6439453  
C   -7.0419714    0.6092411   -5.6963037  
C   -6.3997519   -0.0853397   -6.6705660  
C   -7.4044045   -0.8408995   -7.3809454  
C   -8.6938178   -0.5272946   -6.7360767  
N   -8.4051873    0.3568334   -5.7222228  
C   -9.8897236   -1.0432645   -7.1172457  
C   -9.9081216   -1.9694428   -8.2372414  
O  -10.9348091   -2.4879353   -8.6560233  
C   -8.5542706   -2.3160247   -8.9349337  
O   -8.5572510   -3.0947922   -9.8787411  
C   -7.3300107   -1.6962291   -8.4340421  
H  -10.8241031   -0.8000276   -6.6307473  
H   -6.3968256   -1.9412863   -8.9227524  
H   -6.6340454    1.2841056   -4.9614268  
H   -9.0810237    0.7585769   -5.0986083  
C    0.8175213    0.6860729    2.3021913  
C    0.0000000    0.0000000    1.4700000  
C   -0.8887526   -0.7456559    2.3478473  
C   -0.4549825   -0.3816753    3.7138435  
N    0.5448156    0.4573574    3.6934124  
C   -1.0945674   -0.9182058    4.8835240  
C   -2.1210866   -1.7789155    4.6970523  
O   -2.8083856   -2.3554314    5.6976972  
C   -2.5824069   -2.1655116    3.3310774  
O   -3.5227682   -2.9541547    3.2362962  
C   -1.9100805   -1.6015804    2.1470656  
H   -0.7567140   -0.6349833    5.8697035  
H   -3.4728268   -2.9124471    5.2533954  
H   -2.2742832   -1.9066565    1.1752040  
H    1.6189533    1.3585343    2.0405121  
