58

C    0.0000000    0.0000000    0.0000000  
C   -1.0541690    0.0002347   -0.8560388  
C   -0.5103145    0.0000756   -2.1935955  
C    0.9576362   -0.0003028   -2.0455735  
N    1.2018458    0.0000678   -0.6915972  
C    1.8348305   -0.0009406   -3.0810612  
C    1.2972838   -0.0010507   -4.4314608  
O    2.0050656   -0.0015456   -5.4301322  
C   -0.2542637   -0.0004035   -4.6117572  
O   -0.7184685   -0.0001832   -5.7439117  
C   -1.0974563   -0.0000224   -3.4189127  
H   -2.0940752    0.0006725   -0.5817980  
H    2.9081044   -0.0013394   -2.9507069  
H    2.1128191   -0.0016166   -0.2706796  
C   -2.5562224    0.0003067   -3.6003000  
C   -3.5148531   -0.0003759   -2.6449958  
C   -4.7727389    0.0003772   -3.3759001  
C   -4.3760691    0.0016260   -4.8004126  
N   -3.0779900    0.0015097   -4.9381832  
C   -5.3463911    0.0026062   -5.8603937  
C   -6.6535655    0.0019615   -5.5130773  
O   -7.6652143    0.0027471   -6.3977283  
C   -7.0856176    0.0003288   -4.0842703  
O   -8.2923972   -0.0000578   -3.8415710  
C   -6.0711804   -0.0006095   -3.0152334  
H   -3.3844840   -0.0013691   -1.5763149  
H   -5.0281918    0.0037164   -6.8927006  
H   -8.4720664    0.0019541   -5.8517049  
C   -4.5782391    2.1374442    0.4758051  
C   -5.4288747    1.7284053    1.4456944  
C   -6.3474077    0.8179287    0.7794890  
C   -5.8929834    0.7934257   -0.6274517  
N   -4.8562080    1.5649274   -0.8114920  
C   -6.5521061   -0.0023663   -1.6261303  
C   -7.6165636   -0.7404405   -1.2368855  
O   -8.3256846   -1.5286418   -2.0626737  
C   -8.0990659   -0.7371610    0.1756800  
O   -9.0740949   -1.4331187    0.4588465  
C   -7.4061113    0.0874819    1.1815144  
H   -5.4325161    2.0097081    2.4848917  
H   -9.0156783   -1.9218472   -1.4983591  
H   -7.7865466    0.0622036    2.1938683  
H   -3.7480953    2.8199906    0.5650523  
C    1.1319247   -0.0015655    2.2709268  
C    0.7969915   -0.0034943    3.5869401  
C   -0.6453339   -0.0035710    3.6542670  
C   -1.1266833   -0.0015433    2.2596025  
N    0.0000000    0.0000000    1.4700000  
C   -2.4346130   -0.0013964    1.8976294  
C   -3.4350110   -0.0031408    2.9520183  
O   -4.6384611   -0.0030974    2.7283916  
C   -2.9478959   -0.0050506    4.4361073  
O   -3.7809380   -0.0062218    5.3323774  
C   -1.5113823   -0.0053090    4.7012123  
H    1.4821238   -0.0045407    4.4159191  
H   -2.7664565   -0.0000232    0.8686553  
H   -1.1823530   -0.0068408    5.7314848  
H    2.1104316   -0.0009391    1.8188057  
