64

C    6.7748111   -0.0038151    1.2764663  
C    5.5082322   -0.0036675    0.7395818  
C    5.6573263   -0.0010632   -0.6789964  
C    7.0493884    0.0000129   -0.9511882  
N    7.6991164    0.0002432    0.2581382  
C    7.5659486    0.0022548   -2.2503994  
C    6.6607399    0.0031247   -3.2938430  
O    7.1109049    0.0049537   -4.5823933  
C    5.2680304    0.0024511   -3.0424943  
O    4.4967633    0.0038934   -4.1863859  
C    4.7577216    0.0005129   -1.7610467  
H    4.5898234   -0.0041378    1.3012932  
H    8.6258306    0.0032289   -2.4645281  
H    6.3261382    0.0055797   -5.1457817  
H    3.5699424    0.0032894   -3.9283021  
H    7.0920038   -0.0050485    2.3052258  
C   10.2874235   -2.1358369    3.1385396  
C   11.4923465   -1.6508890    2.6852700  
C   11.2059170   -0.7779680    1.5941385  
C    9.7974600   -0.7695563    1.4265036  
N    9.2706290   -1.6059825    2.3791097  
C    9.1578759   -0.0141921    0.4390093  
C    9.9546126    0.7467752   -0.3942460  
O    9.3819535    1.5034764   -1.3753056  
C   11.3617059    0.7512397   -0.2429621  
O   12.0157033    1.5593636   -1.1499172  
C   11.9933709    0.0060879    0.7308320  
H   12.4589248   -1.8969804    3.0904350  
H    8.2929452   -1.7920249    2.5114107  
H   10.1060111    1.9486683   -1.8344449  
H   12.9609574    1.5053320   -0.9790996  
H   13.0729717    0.0294428    0.8224559  
H   10.0729639   -2.8188730    3.9425469  
C    3.3041270    0.0001177   -1.5420435  
C    2.5845370   -0.0004780   -0.3695856  
C    1.2040004   -0.0000007   -0.7283590  
C    1.1422370    0.0006038   -2.1454373  
N    2.4348634    0.0026110   -2.6077469  
C   -0.0655187    0.0008799   -2.8497918  
C   -1.2321769    0.0002326   -2.1101398  
O   -2.4392822    0.0001149   -2.7472517  
C   -1.1911211   -0.0000007   -0.6955263  
O   -2.4371526   -0.0002319   -0.1032858  
C    0.0000000    0.0000000    0.0000000  
H    3.0031534   -0.0000661    0.6222578  
H    2.7054623   -0.0071098   -3.5745266  
H   -0.1193555    0.0014846   -3.9297472  
H   -3.1132992   -0.0000646   -2.0551783  
H   -2.3200279   -0.0004070    0.8516411  
C    0.0000000    0.0000000    1.4700000  
C    1.0541688    0.0001722    2.3260392  
C    0.5103138    0.0000454    3.6635956  
C   -0.9576371   -0.0002459    3.5155732  
N   -1.2018458    0.0001392    2.1615969  
C   -1.8348311   -0.0008317    4.5510609  
C   -1.2972847   -0.0009736    5.9014604  
O   -2.0050672   -0.0014265    6.9001319  
C    0.2542623   -0.0004184    6.0817573  
O    0.7184670   -0.0002256    7.2139121  
C    1.0974552   -0.0000873    4.8889129  
H    2.0940752    0.0005483    2.0517982  
H   -2.9081052   -0.0011668    4.4207061  
H    2.1707277    0.0000911    5.0223670  
H   -2.1128194   -0.0014912    1.7406791  
