58

C    2.5250695   -2.1043380   -5.8790416  
C    1.9676431   -1.6402804   -7.0270846  
C    0.9000735   -0.7462062   -6.6452972  
C    0.8811187   -0.7272652   -5.1701460  
N    1.8902262   -1.5713252   -4.7674616  
C    0.0139742    0.0003886   -4.4216236  
C   -0.9662103    0.8193997   -5.1151612  
O   -1.7901772    1.5104543   -4.5305051  
C   -0.9644970    0.8143811   -6.6771399  
O   -1.7852530    1.4997467   -7.2720298  
C    0.0196115   -0.0107054   -7.3732831  
H    2.2697152   -1.8953392   -8.0272394  
H    3.3460911   -2.7910332   -5.7515134  
H    2.1300305   -1.7680898   -3.8130903  
C    3.2798086    0.0005858   -1.4499647  
C    2.5571147    0.0005568   -2.5996550  
C    1.1637435    0.0001551   -2.2210360  
C    1.1336965   -0.0000198   -0.7459472  
N    2.4483513   -0.0001427   -0.3402712  
C    0.0000000    0.0000000    0.0000000  
C   -1.2757369   -0.0000185   -0.6964413  
O   -2.3524596   -0.0000638   -0.1142313  
C   -1.2676493   -0.0000871   -2.2584077  
O   -2.3355763   -0.0004095   -2.8557296  
C    0.0181562    0.0001764   -2.9516296  
H    2.9547357    0.0006079   -3.5989103  
H    4.3498549    0.0008613   -1.3200020  
H    2.7563627    0.0012823    0.6148065  
C    0.5792570   -3.2337956  -10.3027583  
C    0.4471929   -2.5198504  -11.4503281  
C    0.2050341   -1.1488084  -11.0676555  
C    0.2068860   -1.1223246   -9.5924993  
N    0.4386343   -2.4175872   -9.1906574  
C    0.0123589   -0.0076463   -8.8432623  
C   -0.2141583    1.2498783   -9.5359793  
O   -0.3995956    2.3087902   -8.9506419  
C   -0.2205181    1.2451540  -11.0979471  
O   -0.4105100    2.2978115  -11.6921482  
C    0.0011443   -0.0193496  -11.7949032  
H    0.5118373   -2.9092562  -12.4507269  
H   -0.0045762   -0.0140422  -12.8764129  
H    0.7672673   -4.2875758  -10.1759141  
H    0.4986054   -2.7225907   -8.2364962  
C    0.8175213    0.6860729    2.3021913  
C    0.0000000    0.0000000    1.4700000  
C   -0.8887526   -0.7456559    2.3478473  
C   -0.4549825   -0.3816753    3.7138435  
N    0.5448156    0.4573574    3.6934124  
C   -1.0945674   -0.9182058    4.8835240  
C   -2.1210866   -1.7789155    4.6970523  
O   -2.8083856   -2.3554314    5.6976972  
C   -2.5824069   -2.1655116    3.3310774  
O   -3.5227682   -2.9541547    3.2362962  
C   -1.9100805   -1.6015804    2.1470656  
H   -0.7567140   -0.6349833    5.8697035  
H   -3.4728268   -2.9124471    5.2533954  
H   -2.2742832   -1.9066565    1.1752040  
H    1.6189533    1.3585343    2.0405121  
