58

C    7.7331553   -0.8727940   -4.3021215  
C    6.8894657    0.1892330   -4.3681673  
C    7.6919100    1.3447944   -4.6931239  
C    9.0822186    0.8654901   -4.8118604  
N    9.0392276   -0.4869493   -4.5629644  
C   10.1449127    1.6551120   -5.1099948  
C    9.9032654    3.0716170   -5.3282940  
O   10.7943987    3.8649661   -5.6017532  
C    8.4387385    3.6010898   -5.2073658  
O    8.2230896    4.7918332   -5.3887135  
C    7.3764451    2.6529459   -4.8811652  
H   11.1568352    1.2834649   -5.1924613  
H    6.3651414    3.0275324   -4.7994767  
H    7.5107005   -1.9048311   -4.0846286  
H    9.8339017   -1.0997014   -4.5716662  
C    4.5414472   -2.0136866   -1.4319366  
C    3.2784306   -1.6314299   -1.7323495  
C    3.4206903   -0.7132108   -2.8517850  
C    4.8766551   -0.6552127   -3.1035522  
N    5.5387696   -1.4155491   -2.2744067  
C    5.4363359    0.1572548   -4.1484160  
C    4.5803865    0.8786769   -4.9075173  
O    4.9639647    1.6794178   -5.9163398  
C    3.1058537    0.8409940   -4.6783999  
O    2.3863360    1.5234829   -5.4075938  
C    2.5562217   -0.0001543   -3.6003001  
H    2.3632541   -1.9351317   -1.2535045  
H    4.1348748    2.0549943   -6.2637662  
H    4.8636452   -2.6922678   -0.6581863  
C    0.0000000    0.0000000    0.0000000  
C    1.0541688   -0.0001719   -0.8560391  
C    0.5103141   -0.0000449   -2.1935955  
C   -0.9576367    0.0002461   -2.0455733  
N   -1.2018459   -0.0001392   -0.6915970  
C   -1.8348306    0.0008319   -3.0810611  
C   -1.2972842    0.0009739   -4.4314605  
O   -2.0050664    0.0014267   -5.4301321  
C    0.2542628    0.0004190   -4.6117571  
O    0.7184677    0.0002263   -5.7439119  
C    1.0974556    0.0000880   -3.4189127  
H    2.0940752   -0.0005479   -0.5817978  
H   -2.9081050    0.0011669   -2.9507065  
H   -2.1128195    0.0014911   -0.2706793  
C    3.2798086   -0.0005857    2.9199648  
C    2.5571146   -0.0005566    4.0696553  
C    1.1637436   -0.0001548    3.6910360  
C    1.1336965    0.0000200    2.2159470  
N    2.4483514    0.0001428    1.8102719  
C    0.0000000    0.0000000    1.4700000  
C   -1.2757367    0.0000186    2.1664417  
O   -2.3524596    0.0000640    1.5842315  
C   -1.2676493    0.0000873    3.7284083  
O   -2.3355761    0.0004100    4.3257297  
C    0.0181563   -0.0001760    4.4216297  
H    2.9547357   -0.0006076    5.0689105  
H    0.0150794   -0.0003319    5.5031631  
H    4.3498549   -0.0008612    2.7900019  
H    2.7563627   -0.0012824    0.8551938  
