58

C    1.1319247    0.0015703   -0.8009268  
C    0.7969915    0.0034979   -2.1169403  
C   -0.6453338    0.0035689   -2.1842672  
C   -1.1266834    0.0015391   -0.7896027  
N    0.0000000    0.0000000    0.0000000  
C   -2.4346130    0.0013869   -0.4276293  
C   -3.4350109    0.0031276   -1.4820179  
O   -4.6384608    0.0030793   -1.2583914  
C   -2.9478960    0.0050394   -2.9661070  
O   -3.7809380    0.0062075   -3.8623773  
C   -1.5113826    0.0053038   -3.2312122  
H   -2.7664564    0.0000122    0.6013451  
H   -1.1823532    0.0068367   -4.2614848  
H    2.1104317    0.0009476   -0.3488060  
C    2.8943510   -0.6801080   -3.3710890  
C    1.7334692    0.0049322   -3.2500365  
C    1.6070290    0.7512047   -4.4924496  
C    2.8119081    0.3886741   -5.2692519  
N    3.5702468   -0.4501088   -4.6170586  
C    3.0636185    0.9261730   -6.5780004  
C    2.1528558    1.7864236   -7.0877206  
O    2.2600684    2.3637303   -8.2965480  
C    0.9267354    2.1715622   -6.3284724  
O    0.1408565    2.9598592   -6.8540230  
C    0.6911555    1.6066575   -4.9878349  
H    1.4643993    2.9201331   -8.3770398  
H   -0.2089640    1.9106868   -4.4705525  
H    3.3459581   -1.3526082   -2.6592128  
C    4.8188082   -0.7001694   -7.3744450  
C    4.2732623    0.5421936   -7.3197692  
C    5.1064594    1.4036667   -8.1250535  
C    6.1898891    0.5552633   -8.6572008  
N    5.9581114   -0.7083468   -8.1648004  
C    7.1856358    0.9973046   -9.4663935  
C    7.1907361    2.4024900   -9.8378282  
O    8.0447874    2.8969491  -10.5619875  
C    6.0531400    3.3193953   -9.2855910  
O    6.0471757    4.5042166   -9.5912457  
C    5.0346134    2.7276675   -8.4216966  
H    7.9708411    0.3582918   -9.8458997  
H    4.2502830    3.3692638   -8.0436705  
H    4.4845255   -1.6104020   -6.9036784  
H    6.5276029   -1.5130201   -8.3524877  
C    2.5128556    2.1077716    2.9199648  
C    1.9592212    1.6432552    4.0696553  
C    0.8915788    0.7479214    3.6910360  
C    0.8684491    0.7287414    2.2159470  
N    1.8754542    1.5738793    1.8102719  
C    0.0000000    0.0000000    1.4700000  
C   -0.9772830   -0.8200135    2.1664417  
O   -1.8021297   -1.5120829    1.5842315  
C   -0.9711318   -0.8147624    3.7284083  
O   -1.7894187   -1.5009653    4.3257297  
C    0.0140216    0.0115358    4.4216297  
H    2.2638494    1.8988021    5.0689105  
H    0.0117648    0.0094386    5.5031631  
H    3.3327358    2.7953732    2.7900019  
H    2.1123206    1.7707734    0.8551938  
