58

C   -0.2963294   -0.0005338   -4.3948469  
C    0.7278653   -0.0010062   -5.2865311  
C    0.1384642   -0.0010224   -6.6046519  
C   -1.3235475   -0.0004878   -6.4063798  
N   -1.5211839   -0.0006099   -5.0448253  
C   -2.2357330    0.0000552   -7.4111785  
C   -1.7448094   -0.0001090   -8.7792171  
O   -2.4864203    0.0002821   -9.7530307  
C   -0.2003572   -0.0009253   -9.0126111  
O    0.2247519   -0.0013767  -10.1600184  
C    0.6832433   -0.0011822   -7.8493823  
H    1.7765637   -0.0014912   -5.0481110  
H   -3.3039064    0.0005719   -7.2440971  
H    1.7513081   -0.0015427   -8.0195611  
H   -2.4171876    0.0012266   -4.5929172  
C    3.1301144   -0.0010311   -1.7028257  
C    2.5367765   -0.0002766   -0.4864669  
C    1.1089900    0.0001028   -0.7656184  
C    1.0177865   -0.0004148   -2.2415134  
N    2.1993573   -0.0011611   -2.7963824  
C   -0.2459219   -0.0002876   -2.9257117  
C   -1.3675328   -0.0000605   -2.1698521  
O   -2.6129318    0.0000868   -2.6748487  
C   -1.3083586    0.0000910   -0.6783230  
O   -2.3693261    0.0004206   -0.0541687  
C    0.0000000    0.0000000    0.0000000  
H    3.0096014   -0.0001008    0.4807517  
H   -3.1967444    0.0002095   -1.8949028  
C    4.5679458   -0.0016854   -2.0086709  
C    5.6049846   -0.0016932   -1.1391141  
C    6.7955411   -0.0024718   -1.9752209  
C    6.2781446   -0.0029783   -3.3604588  
N    4.9730328   -0.0024399   -3.3863786  
C    7.1539699   -0.0037581   -4.4997638  
C    8.4861189   -0.0036311   -4.2658506  
O    9.4181576   -0.0043055   -5.2340161  
C    9.0391351   -0.0027525   -2.8793685  
O   10.2622851   -0.0028092   -2.7410756  
C    8.1201337   -0.0020063   -1.7272573  
H    5.5667631   -0.0011379   -0.0631891  
H    6.7483969   -0.0043219   -5.5009730  
H   10.2688717   -0.0039791   -4.7592129  
H    8.5604254   -0.0012654   -0.7391418  
C    2.3971438    2.0127888    3.1728260  
C    1.9431056    1.6308205    1.9564670  
C    0.8496017    0.7127664    2.2356185  
C    0.7794028    0.6545384    3.7115134  
N    1.6840587    1.4146091    4.2663826  
C   -0.1885723   -0.1578550    4.3957118  
C   -1.0476298   -0.8789867    3.6398520  
O   -2.0015663   -1.6796266    4.1448486  
C   -1.0022026   -0.8410666    2.1483229  
O   -1.8147390   -1.5232959    1.5241687  
C    0.0000000    0.0000000    1.4700000  
H    2.3054237    1.9346118    0.9892483  
H   -0.2170646   -0.1815267    5.4753125  
H   -2.4487139   -2.0549881    3.3649027  
H    3.2048689    2.6911772    3.3971983  
