58

C    1.7704312   -2.0997832   -5.2515181  
C    1.5928585   -1.6333170   -6.5144327  
C    0.4607457   -0.7379011   -6.4771946  
C   -0.0100424   -0.7207978   -5.0790327  
N    0.8257125   -1.5670940   -4.3875227  
C   -1.0641734    0.0073898   -4.6315339  
C   -1.7831603    0.8289565   -5.5910245  
O   -2.7459474    1.5206786   -5.2862925  
C   -1.3021140    0.8259147   -7.0770897  
O   -1.8998120    1.5134382   -7.8939924  
C   -0.1528626    0.0000282   -7.4390071  
H    2.1870130   -1.8876244   -7.3740370  
H    0.1740157    0.0036592   -8.4699583  
H    0.7607704   -1.7654786   -3.4059559  
C    3.7596452   -3.6339359   -5.4737980  
C    2.7815117   -3.0383990   -4.7439583  
C    2.9278194   -3.5036593   -3.3849282  
C    4.0796452   -4.4256581   -3.3828134  
N    4.5387397   -4.4612877   -4.6792906  
C    4.5418168   -5.0761362   -2.2850974  
C    3.8591200   -4.8534618   -1.0214216  
O    4.1991576   -5.3928227    0.0234538  
C    2.6367464   -3.8812649   -1.0004451  
O    2.0538494   -3.6861929    0.0575903  
C    2.2324081   -3.2382794   -2.2482160  
H    5.3884922   -5.7481848   -2.3051147  
H    1.3852056   -2.5663868   -2.2251446  
H    3.9767445   -3.5381850   -6.5252677  
H    5.3206973   -5.0031170   -4.9986813  
C    1.1319248    0.0015675   -0.8009270  
C    0.7969916    0.0034959   -2.1169404  
C   -0.6453336    0.0035703   -2.1842672  
C   -1.1266831    0.0015415   -0.7896027  
N    0.0000000    0.0000000    0.0000000  
C   -2.4346129    0.0013924   -0.4276297  
C   -3.4350110    0.0031352   -1.4820184  
O   -4.6384610    0.0030897   -1.2583919  
C   -2.9478958    0.0050460   -2.9661075  
O   -3.7809377    0.0062160   -3.8623775  
C   -1.5113821    0.0053068   -3.2312125  
H    1.4821240    0.0045436   -2.9459192  
H   -2.7664565    0.0000185    0.6013447  
H    2.1104318    0.0009428   -0.3488058  
C    2.5128556    2.1077716    2.9199648  
C    1.9592212    1.6432552    4.0696553  
C    0.8915788    0.7479214    3.6910360  
C    0.8684491    0.7287414    2.2159470  
N    1.8754542    1.5738793    1.8102719  
C    0.0000000    0.0000000    1.4700000  
C   -0.9772830   -0.8200135    2.1664417  
O   -1.8021297   -1.5120829    1.5842315  
C   -0.9711318   -0.8147624    3.7284083  
O   -1.7894187   -1.5009653    4.3257297  
C    0.0140216    0.0115358    4.4216297  
H    2.2638494    1.8988021    5.0689105  
H    0.0117648    0.0094386    5.5031631  
H    3.3327358    2.7953732    2.7900019  
H    2.1123206    1.7707734    0.8551938  
