62

C   -3.3039370    0.0352494   -1.5420461  
C   -2.5843829    0.0281426   -0.3695873  
C   -1.2039309    0.0128882   -0.7283601  
C   -1.1421754    0.0116226   -2.1454382  
N   -2.4347492    0.0234517   -2.6077487  
C    0.0655087   -0.0015811   -2.8497913  
C    1.2321062   -0.0134216   -2.1101384  
O    2.4391434   -0.0262247   -2.7472494  
C    1.1910533   -0.0127490   -0.6955248  
O    2.4370159   -0.0258552   -0.1032836  
C    0.0000000    0.0000000    0.0000000  
H   -3.0029808    0.0322116    0.6222556  
H   -2.7052271    0.0360685   -3.5745287  
H    0.1193367   -0.0027619   -3.9297469  
H    3.1131239   -0.0332599   -2.0551752  
H    2.3198992   -0.0244264    0.8516432  
C   -5.7155363    0.0607657   -0.7739158  
C   -4.7574522    0.0504134   -1.7610507  
C   -5.4464040    0.0555178   -3.0100181  
C   -6.8346866    0.0694439   -2.7194955  
N   -6.9630420    0.0703472   -1.3526957  
C   -7.8157499    0.0780310   -3.7156029  
C   -7.3875462    0.0727654   -5.0289161  
O   -8.3032935    0.0810599   -6.0410192  
C   -6.0067753    0.0585220   -5.3388936  
O   -5.7410269    0.0544533   -6.6926682  
C   -5.0383817    0.0497712   -4.3567212  
H   -7.8327502    0.0895448   -0.8514768  
H   -7.7993898    0.0751247   -6.8652227  
H   -4.7868391    0.0447315   -6.8152824  
H   -3.9883529    0.0387246   -4.6246700  
H   -5.6077361    0.0606270    0.2972233  
C   -9.8617449    0.8254683   -2.4142162  
C  -11.2042936    0.6217349   -2.4027792  
C  -11.4988032   -0.3035614   -3.4713892  
C  -10.2085286   -0.6245207   -4.1108928  
N   -9.2563688    0.0922765   -3.4235180  
C  -10.0610501   -1.4675315   -5.1641206  
C  -11.2526692   -2.1008489   -5.7040168  
O  -11.2242048   -2.8755284   -6.6513095  
C  -12.6296821   -1.7752313   -5.0424935  
O  -13.6398944   -2.3022088   -5.4886179  
C  -12.6618406   -0.8507013   -3.9119794  
H  -11.9080186    1.0687815   -1.7234160  
H   -9.1053881   -1.6894746   -5.6183903  
H  -13.6192018   -0.6306737   -3.4594623  
H   -9.2636898    1.4497121   -1.7703688  
C    0.8681109    0.7263879    2.2709268  
C    0.6127770    0.5096195    3.5869401  
C   -0.4920590   -0.4175482    3.6542670  
C   -0.8620974   -0.7254003    2.2596025  
N    0.0000000    0.0000000    1.4700000  
C   -1.8641242   -1.5660088    1.8976294  
C   -2.6293522   -2.2103885    2.9520183  
O   -3.5512764   -2.9839180    2.7283916  
C   -2.2549728   -1.8987399    4.4361073  
O   -2.8923672   -2.4351063    5.3323774  
C   -1.1543735   -0.9755647    4.7012123  
H    1.1382914    0.9492124    4.4159191  
H   -2.1192137   -1.7782617    0.8686553  
H   -0.9013378   -0.7652422    5.7314848  
H    1.6172880    1.3558399    1.8188057  
