60

C   -3.3032450    0.0762927   -1.5420455  
C   -2.5838346    0.0602472   -0.3695872  
C   -1.2036784    0.0278441   -0.7283601  
C   -1.1419441    0.0258114   -2.1454383  
N   -2.4342708    0.0536977   -2.6077484  
C    0.0654828   -0.0023948   -2.8497918  
C    1.2318433   -0.0287275   -2.1101392  
O    2.4386283   -0.0565249   -2.7472505  
C    1.1908027   -0.0275448   -0.6955256  
O    2.4365069   -0.0561290   -0.1032848  
C    0.0000000    0.0000000    0.0000000  
H   -3.0023490    0.0695161    0.6222561  
H   -2.7045717    0.0696736   -3.5745282  
H    0.1192914   -0.0042443   -3.9297473  
H    3.1124695   -0.0719326   -2.0551769  
H    2.3194170   -0.0532453    0.8516423  
C   -5.7168370    0.1313423   -0.7610803  
C   -6.9679918    0.1575878   -1.2883356  
C   -6.8197688    0.1522863   -2.7245937  
C   -5.3693032    0.1205442   -2.9927928  
N   -4.7564600    0.1095130   -1.7610495  
C   -4.8166901    0.1063931   -4.2321973  
C   -5.7101060    0.1237981   -5.3785132  
O   -5.3098212    0.1131587   -6.5352152  
C   -7.2498316    0.1577059   -5.1179355  
O   -8.0118428    0.1728932   -6.0752070  
C   -7.7258330    0.1701578   -3.7369503  
H   -7.8895555    0.1784804   -0.7343518  
H   -3.7500176    0.0829602   -4.4070401  
H   -5.4155779    0.1263280    0.2738628  
C   -9.8137650    0.9436847   -2.5201677  
C  -11.1579932    0.7557761   -2.5627812  
C  -11.4199989   -0.1676948   -3.6413873  
C  -10.1088203   -0.5048288   -4.2278531  
N   -9.1768090    0.2018139   -3.5033533  
C   -9.9288789   -1.3511945   -5.2733153  
C  -11.1051107   -1.9713115   -5.8602299  
O  -11.0475500   -2.7477819   -6.8047310  
C  -12.5037845   -1.6284641   -5.2552738  
O  -13.5013017   -2.1442330   -5.7412794  
C  -12.5706677   -0.7018181   -4.1280181  
H  -11.8832618    1.2121525   -1.9129197  
H   -8.9583312   -1.5850878   -5.6883353  
H  -13.5428653   -0.4698230   -3.7148158  
H   -9.2348793    1.5618765   -1.8533699  
C    0.8400945    0.7047457    2.2710304  
C    0.0000000    0.0000000    1.4700000  
C   -0.8844236   -0.7423113    2.3369512  
C   -0.4878984   -0.4098547    3.7186280  
N    0.5629682    0.4714286    3.6095011  
C   -1.0836927   -0.9095027    4.8308716  
C   -2.1891196   -1.8367527    4.6554461  
O   -2.7906899   -2.3413415    5.5944904  
C   -2.6257283   -2.2031529    3.2011665  
O   -3.5549479   -2.9829990    3.0410059  
C   -1.9068976   -1.5999348    2.0816745  
H   -0.7774656   -0.6525820    5.8354244  
H   -2.2155208   -1.8586617    1.0779135  
H    1.6384792    1.3747609    1.9961646  
H    1.0518368    0.8833920    4.3830260  
