64

C    3.3003547    0.0005275   -1.4738980  
C    2.5232816    0.0003495   -2.6090742  
C    1.1623206   -0.0001320   -2.1820096  
C    1.1711889    0.0000583   -0.7636136  
N    2.4852300   -0.0014920   -0.3662353  
C    0.0000000    0.0000000    0.0000000  
C   -1.2020382    0.0000519   -0.6806479  
O   -2.3759247    0.0003494    0.0157745  
C   -1.2314650   -0.0005113   -2.0955508  
O   -2.5054383   -0.0008037   -2.6250181  
C   -0.0764510   -0.0007273   -2.8495192  
H    2.8919962   -0.0005621   -3.6205295  
H    2.8036265    0.0088181    0.5858667  
H   -3.0835641    0.0000347   -0.6418820  
H   -2.4360047   -0.0011529   -3.5845921  
C    6.5582218    0.0029724   -4.4647471  
C    7.6103889    0.0023857   -3.5785129  
C    7.0499440    0.0016137   -2.2668342  
C    5.6394785    0.0014820   -2.4168795  
N    5.3749057    0.0042714   -3.7639545  
C    4.7630506    0.0004754   -1.3275394  
C    5.3206369   -0.0007212   -0.0637066  
O    4.5107984   -0.0020883    1.0350081  
C    6.7255803   -0.0002355    0.1064484  
O    7.1255744   -0.0011494    1.4268070  
C    7.5907996    0.0010305   -0.9677582  
H    8.6535293    0.0036053   -3.8446895  
H    4.4592359   -0.0057082   -4.1755733  
H    5.0947319   -0.0024567    1.8046099  
H    8.0872944   -0.0007697    1.4532573  
H    8.6624386    0.0015568   -0.8063008  
H    6.5582220    0.0040130   -5.5412965  
C   -0.1496409   -0.0015614   -4.3176961  
C    0.8605992   -0.0020607   -5.2251594  
C    0.2508230   -0.0027747   -6.5339786  
C   -1.2079374   -0.0026205   -6.3130523  
N   -1.3844299   -0.0022740   -4.9485963  
C   -2.1355994   -0.0027543   -7.3035806  
C   -1.6659548   -0.0032977   -8.6790687  
O   -2.4225823   -0.0035181   -9.6412628  
C   -0.1253088   -0.0037216   -8.9363927  
O    0.2819513   -0.0044870  -10.0902551  
C    0.7762289   -0.0032489   -7.7870091  
H    1.9128700   -0.0021246   -5.0030339  
H   -3.2010522   -0.0025068   -7.1199508  
H    1.8415257   -0.0033414   -7.9737350  
H   -2.2733171   -0.0005419   -4.4828448  
C    2.5311839    2.1237619    3.0120429  
C    1.9795631    1.6616747    1.8395852  
C    0.9223175    0.7739173    2.1983588  
C    0.8753926    0.7337535    3.6154372  
N    1.8668922    1.5631002    4.0777464  
C   -0.0496243   -0.0427881    4.3197917  
C   -0.9437528   -0.7922060    3.5801400  
O   -1.8685244   -1.5680278    4.2172520  
C   -0.9124520   -0.7656372    2.1655264  
O   -1.8671164   -1.5663939    1.5732860  
C    0.0000000    0.0000000    1.4700000  
H    2.3005065    1.9304404    0.8477417  
H    2.0679347    1.7444845    5.0445261  
H   -0.0904770   -0.0778569    5.3997470  
H   -2.3849669   -2.0011402    3.5251786  
H   -1.7775064   -1.4909735    0.6183591  
H    3.3468514    2.8078103    3.1724291  
