58

C   -4.7390831   -0.0017692   -1.2727316  
C   -5.7159767   -0.0026886   -2.2159989  
C   -6.9782040   -0.0029322   -1.5148440  
C   -6.6542730   -0.0020439   -0.0754491  
N   -5.2807301   -0.0017650    0.0037314  
C   -7.5764452   -0.0015790    0.9201930  
C   -8.9818047   -0.0022063    0.5493835  
O   -9.8878550   -0.0019202    1.3724109  
C   -9.3478536   -0.0034026   -0.9691062  
O  -10.5277173   -0.0042452   -1.2934223  
C   -8.2653734   -0.0035336   -1.9499675  
H   -5.5691159   -0.0033265   -3.2813835  
H   -8.5272566   -0.0041592   -2.9993196  
H   -4.7530489    0.0003755    0.8573095  
C   -3.2798069   -0.0011447   -1.4499674  
C   -2.5571117   -0.0009924   -2.5996573  
C   -1.1637412   -0.0003531   -2.2210371  
C   -1.1336957   -0.0001732   -0.7459479  
N   -2.4483507   -0.0002745   -0.3402739  
C    0.0000000    0.0000000    0.0000000  
C    1.2757377    0.0002363   -0.6964406  
O    2.3524595    0.0004651   -0.1142296  
C    1.2676511    0.0003036   -2.2584073  
O    2.3355789    0.0008085   -2.8557276  
C   -0.0181539   -0.0001788   -2.9516295  
H   -2.9547325   -0.0011111   -3.5989132  
H   -0.0150757   -0.0003342   -4.0331633  
H   -2.7563623   -0.0017523    0.6148041  
C   -6.2173182    0.7048765    2.9236149  
C   -7.2245590   -0.0005172    2.3474543  
C   -7.8755514   -0.7422753    3.4014178  
C   -7.1598961   -0.4087880    4.6477777  
N   -6.1659273    0.4725033    4.2896681  
C   -7.4719942   -0.9076817    5.8706448  
C   -8.5870404   -1.8351497    5.9655669  
O   -8.9462060   -2.3391100    7.0216565  
C   -9.3589862   -2.2026365    4.6583334  
O  -10.2993311   -2.9826751    4.7257959  
C   -8.9291891   -1.6001676    3.3989058  
H   -6.9342675   -0.6500102    6.7725122  
H   -9.4690528   -1.8596449    2.4983821  
H   -5.5081121    1.3747590    2.4651677  
H   -5.5062110    0.8850657    4.9233983  
C    0.8175213    0.6860729    2.3021913  
C    0.0000000    0.0000000    1.4700000  
C   -0.8887526   -0.7456559    2.3478473  
C   -0.4549825   -0.3816753    3.7138435  
N    0.5448156    0.4573574    3.6934124  
C   -1.0945674   -0.9182058    4.8835240  
C   -2.1210866   -1.7789155    4.6970523  
O   -2.8083856   -2.3554314    5.6976972  
C   -2.5824069   -2.1655116    3.3310774  
O   -3.5227682   -2.9541547    3.2362962  
C   -1.9100805   -1.6015804    2.1470656  
H   -0.7567140   -0.6349833    5.8697035  
H   -3.4728268   -2.9124471    5.2533954  
H   -2.2742832   -1.9066565    1.1752040  
H    1.6189533    1.3585343    2.0405121  
