60

C    3.4581239   -0.7257445   -2.8368658  
C    4.7325807   -0.5094664   -3.2528695  
C    4.6630932    0.4165070   -4.3585729  
C    3.2334366    0.7241930   -4.5540252  
N    2.5562222   -0.0001542   -3.6002998  
C    2.7506137    1.5637880   -5.5046386  
C    3.7025411    2.2071745   -6.3948200  
O    3.3668888    2.9797535   -7.2829419  
C    5.2214745    1.8956821   -6.2060902  
O    6.0322624    2.4312178   -6.9497868  
C    5.6203304    0.9736418   -5.1456149  
H    5.6200556   -0.9486333   -2.8331856  
H    1.6980332    1.7759375   -5.6310405  
H    6.6739456    0.7634204   -5.0214136  
H    3.1018815   -1.3543197   -2.0369445  
C    0.0000000    0.0000000    0.0000000  
C    1.0541691   -0.0001719   -0.8560389  
C    0.5103143   -0.0000448   -2.1935953  
C   -0.9576364    0.0002464   -2.0455731  
N   -1.2018458   -0.0001389   -0.6915972  
C   -1.8348303    0.0008322   -3.0810611  
C   -1.2972837    0.0009745   -4.4314603  
O   -2.0050658    0.0014276   -5.4301322  
C    0.2542633    0.0004194   -4.6117570  
O    0.7184681    0.0002269   -5.7439118  
C    1.0974560    0.0000881   -3.4189126  
H    2.0940754   -0.0005481   -0.5817976  
H   -2.1128195    0.0014913   -0.2706792  
C   -4.6947982    2.0138963   -0.3183453  
C   -3.5421866    1.6316853   -0.9158243  
C   -3.9514596    0.7140407   -1.9679286  
C   -5.4250713    0.6562909   -1.8596833  
N   -5.8665587    1.4162663   -0.8945324  
C   -6.2212650   -0.1556046   -2.7383116  
C   -5.5747429   -0.8767168   -3.6824200  
O   -6.1913451   -1.6769184   -4.5687154  
C   -4.0886041   -0.8392724   -3.8171467  
O   -3.5672041   -1.5214552   -4.6991835  
C   -3.2941065    0.0012879   -2.9038247  
H   -2.5382353    1.9350697   -0.6726881  
H   -7.2964338   -0.1789332   -2.6364356  
H   -5.4711300   -2.0523897   -5.1067342  
H   -4.8199143    2.6921156    0.5107131  
C    1.1188642   -0.0008217    2.2703808  
C    0.0000000    0.0000000    1.4700000  
C   -1.1323862   -0.0008904    2.3373528  
C   -0.6382662   -0.0019682    3.6669281  
N    0.7324016   -0.0038477    3.5902241  
C   -1.4770914   -0.0027325    4.7854808  
C   -2.8395474   -0.0020958    4.5576857  
O   -3.7039201   -0.0024443    5.6140350  
C   -3.3517868   -0.0013946    3.2384331  
O   -4.7300496   -0.0012389    3.1773122  
C   -2.5248543   -0.0009135    2.1344818  
H    1.3576314    0.0056174    4.3757045  
H   -1.1067570   -0.0036993    5.8013813  
H   -4.5940033   -0.0021850    5.2385129  
H   -4.9934601   -0.0007286    2.2519915  
H   -2.9462578   -0.0005617    1.1360343  
H    2.1619896   -0.0009344    2.0042067  
