60

C    3.3041271    0.0001181   -1.5420437  
C    2.5845371   -0.0004776   -0.3695862  
C    1.2040005   -0.0000005   -0.7283593  
C    1.1422370    0.0006041   -2.1454376  
N    2.4348637    0.0026117   -2.6077472  
C   -0.0655185    0.0008803   -2.8497919  
C   -1.2321770    0.0002328   -2.1101399  
O   -2.4392817    0.0001152   -2.7472520  
C   -1.1911210   -0.0000005   -0.6955265  
O   -2.4371527   -0.0002321   -0.1032863  
C    0.0000000    0.0000000    0.0000000  
H    3.0031537   -0.0000659    0.6222573  
H    2.7054627   -0.0071092   -3.5745266  
H   -3.1132989   -0.0000648   -2.0551787  
H   -2.3200280   -0.0004074    0.8516410  
H    4.3686617    0.0004076   -1.7024302  
C    2.2805259   -2.0884661   -5.9525551  
C    1.7869808   -1.6272468   -4.7745209  
C    0.7005260   -0.7318372   -5.0949775  
C    0.6008349   -0.7090642   -6.5668244  
N    1.5865170   -1.5517692   -7.0263555  
C   -0.3061627    0.0202033   -7.2648422  
C   -1.2468145    0.8373785   -6.5165544  
O   -2.1016174    1.5297590   -7.0534175  
C   -1.1592606    0.8286880   -4.9570472  
O   -1.9457428    1.5129533   -4.3163538  
C   -0.1387088    0.0017024   -4.3179686  
H    2.1434560   -1.8847448   -3.7930760  
H   -0.3624485    0.0226623   -8.3445351  
H    1.7717475   -1.7483659   -7.9928371  
C    3.3885277   -3.0248887   -6.1899273  
C    4.1700311   -3.6410045   -5.2727400  
C    5.0969226   -4.4480701   -6.0512111  
C    4.7223488   -4.1924961   -7.4586773  
N    3.7215818   -3.3589596   -7.5462633  
C    5.4127066   -4.8147036   -8.5547390  
C    6.4312238   -5.6537747   -8.2582347  
O    7.1619699   -6.3025949   -9.1807763  
C    6.8333508   -5.9317728   -6.8478545  
O    7.7696797   -6.7064572   -6.6519647  
C    6.1096280   -5.2812912   -5.7410469  
H    4.1233476   -3.5579825   -4.2003579  
H    5.1175877   -4.6099185   -9.5735014  
H    7.8071998   -6.8206505   -8.6665299  
H    6.4317181   -5.5088478   -4.7337209  
C    0.0000000    0.0000000    1.4700000  
C    1.0541688    0.0001722    2.3260392  
C    0.5103138    0.0000454    3.6635956  
C   -0.9576371   -0.0002459    3.5155732  
N   -1.2018458    0.0001392    2.1615969  
C   -1.8348311   -0.0008317    4.5510609  
C   -1.2972847   -0.0009736    5.9014604  
O   -2.0050672   -0.0014265    6.9001319  
C    0.2542623   -0.0004184    6.0817573  
O    0.7184670   -0.0002256    7.2139121  
C    1.0974552   -0.0000873    4.8889129  
H    2.0940752    0.0005483    2.0517982  
H   -2.9081052   -0.0011668    4.4207061  
H    2.1707277    0.0000911    5.0223670  
H   -2.1128194   -0.0014912    1.7406791  
