58

C    3.2798092    0.0005853   -1.4499641  
C    2.5571153    0.0005564   -2.5996549  
C    1.1637442    0.0001546   -2.2210359  
C    1.1336968   -0.0000202   -0.7459473  
N    2.4483517   -0.0001428   -0.3402717  
C    0.0000000    0.0000000    0.0000000  
C   -1.2757366   -0.0000188   -0.6964415  
O   -2.3524593   -0.0000641   -0.1142317  
C   -1.2676490   -0.0000878   -2.2584088  
O   -2.3355752   -0.0004107   -2.8557304  
C    0.0181569    0.0001754   -2.9516298  
H    2.9547363    0.0006071   -3.5989100  
H    4.3498554    0.0008610   -1.3200013  
H    2.7563629    0.0012825    0.6148062  
C    0.8301006   -0.6844019   -5.2562386  
C    0.0139751    0.0003870   -4.4216240  
C   -0.8783311    0.7449044   -5.2968288  
C   -0.4479313    0.3817380   -6.6641075  
N    0.5531134   -0.4558745   -6.6466447  
C   -1.0916036    0.9175263   -7.8318844  
C   -2.1188114    1.7767477   -7.6423661  
O   -2.8097737    2.3524293   -8.6409666  
C   -2.5767931    2.1624902   -6.2750270  
O   -3.5180018    2.9497812   -6.1774546  
C   -1.9002999    1.5993458   -5.0930163  
H   -3.4737397    2.9084352   -8.1946942  
H   -2.2621699    1.9037632   -4.1200773  
H    1.6332295   -1.3557602   -4.9969400  
C    0.2411652   -2.9301063   -9.5394799  
C   -0.2063450   -1.9512372   -8.7114549  
C   -0.2641982   -0.7359458   -9.4889862  
C    0.1895159   -1.0895772  -10.8476173  
N    0.4811047   -2.4336680  -10.8117681  
C    0.2778804   -0.2142410  -11.8809049  
C   -0.0988188    1.1684959  -11.6386853  
O   -0.0539769    2.0325496  -12.5045375  
C   -0.5820069    1.5653737  -10.2073144  
O   -0.9014967    2.7266460   -9.9913648  
C   -0.6351198    0.5329609   -9.1752506  
H   -0.4660863   -2.0672402   -7.6742996  
H    0.6130842   -0.4942181  -12.8699260  
H    0.4160664   -3.9723395   -9.3272314  
H    0.8146955   -2.9715966  -11.5904838  
C    2.4951002    2.0940188    2.9809380  
C    1.9440701    1.6314916    1.8291961  
C    0.8759964    0.7350050    2.2038498  
C    0.8497377    0.7130254    3.6788474  
N    1.8560616    1.5571714    4.0882609  
C   -0.0205033   -0.0168748    4.4215661  
C   -0.9962600   -0.8356168    3.7214979  
O   -1.8224391   -1.5286685    4.3006425  
C   -0.9864710   -0.8277881    2.1595606  
O   -1.8030528   -1.5133726    1.5592035  
C    0.0000000    0.0000000    1.4700000  
H    2.2509283    1.8888011    0.8310761  
H   -0.0229599   -0.0187323    5.5027230  
H    3.3143982    2.7817323    3.1139444  
H    2.0889452    1.7545833    5.0442112  
