58

C    2.5152334   -0.0008772   -8.0291188  
C    3.4974792   -0.0000772   -7.0914254  
C    4.7556959   -0.0005959   -7.7997516  
C    4.4235788   -0.0017430   -9.2372799  
N    3.0496081   -0.0022598   -9.3086420  
C    5.3400700   -0.0021076  -10.2381537  
C    6.7475175   -0.0015439   -9.8753475  
O    7.6488688   -0.0018711  -10.7035186  
C    7.1222014   -0.0005808   -8.3589647  
O    8.3038921   -0.0004066   -8.0413681  
C    6.0453202    0.0000177   -7.3719599  
H    3.3566839    0.0005963   -6.0252224  
H    5.0752942   -0.0028224  -11.2863920  
H    6.3131710    0.0008888   -6.3241152  
H    2.5170774   -0.0014954  -10.1592052  
C   -0.0307354   -0.0004645   -4.4215603  
C    1.0209938   -0.0006521   -5.2805949  
C    0.4733361   -0.0007743   -6.6165991  
C   -0.9941877   -0.0006123   -6.4644009  
N   -1.2345439   -0.0008268   -5.1097353  
C   -1.8743241   -0.0002660   -7.4973894  
C   -1.3406216   -0.0002639   -8.8493122  
O   -2.0512421   -0.0000279   -9.8459671  
C    0.2104063   -0.0006859   -9.0340223  
O    0.6713884   -0.0009945  -10.1674938  
C    1.0569892   -0.0007582   -7.8435816  
H    2.0616762   -0.0008820   -5.0093135  
H   -2.9472234   -0.0000222   -7.3639817  
H   -2.1443165    0.0007708   -4.6862281  
C    3.2573669   -0.0002919   -1.5109381  
C    2.5379467   -0.0001709   -0.3591962  
C    1.1435042    0.0000332   -0.7338501  
C    1.1092607   -0.0000081   -2.2088477  
N    2.4227561    0.0001910   -2.6182614  
C   -0.0265534   -0.0002522   -2.9515663  
C   -1.3003036   -0.0002639   -2.2514981  
O   -2.3786785   -0.0004131   -2.8306428  
C   -1.2877726    0.0000312   -0.6895608  
O   -2.3539957    0.0003306   -0.0892035  
C    0.0000000    0.0000000    0.0000000  
H    2.9384091   -0.0000368    0.6389238  
H    4.3270391   -0.0004764   -1.6439447  
H    2.7280492   -0.0013405   -3.5742114  
C    2.3971438    2.0127888    3.1728260  
C    1.9431056    1.6308205    1.9564670  
C    0.8496017    0.7127664    2.2356185  
C    0.7794028    0.6545384    3.7115134  
N    1.6840587    1.4146091    4.2663826  
C   -0.1885723   -0.1578550    4.3957118  
C   -1.0476298   -0.8789867    3.6398520  
O   -2.0015663   -1.6796266    4.1448486  
C   -1.0022026   -0.8410666    2.1483229  
O   -1.8147390   -1.5232959    1.5241687  
C    0.0000000    0.0000000    1.4700000  
H    2.3054237    1.9346118    0.9892483  
H   -0.2170646   -0.1815267    5.4753125  
H   -2.4487139   -2.0549881    3.3649027  
H    3.2048689    2.6911772    3.3971983  
