60

C   -0.9536164    0.5956998   -0.7919006  
C   -0.6429510    0.3818130   -2.1148545  
C    0.5598355   -0.3844744   -2.1414698  
C    0.9394359   -0.6102039   -0.7935548  
N    0.0000000    0.0000000    0.0000000  
C    2.0823259   -1.3342012   -0.4408233  
C    2.8559419   -1.8397907   -1.4675052  
O    3.9824716   -2.5545700   -1.1793458  
C    2.4939008   -1.6248488   -2.8186318  
O    3.3663330   -2.1915363   -3.7247611  
C    1.3666961   -0.9104731   -3.1673475  
H    2.3771826   -1.5096255    0.5845978  
H    4.3680143   -2.8102312   -2.0274369  
H    3.0494461   -1.9999853   -4.6127335  
H    1.1149312   -0.7620032   -4.2109230  
H   -1.7792052    1.1272666   -0.3505410  
C   -2.8171550    4.1400399   -3.1213380  
C   -2.0801542    3.2253386   -2.4492285  
C   -2.0016982    2.0784518   -3.3408532  
C   -2.7676311    2.4845757   -4.5387653  
N   -3.2479727    3.6921232   -4.4159196  
C   -2.9292811    1.6132228   -5.6700035  
C   -2.3516816    0.3918258   -5.6075336  
O   -2.4214444   -0.5225463   -6.5899277  
C   -1.5720916   -0.0470831   -4.4126446  
O   -1.0738760   -1.1726316   -4.4245744  
C   -1.4206624    0.8649179   -3.2649303  
H   -1.6435827    3.3175401   -1.4694428  
H   -3.4944238    1.9359625   -6.5321888  
H   -1.9163146   -1.2853252   -6.2550165  
C   -3.2064710    5.4879974   -2.6827682  
C   -2.9109041    6.1017722   -1.5133667  
C   -3.5414342    7.4095528   -1.6063261  
C   -4.1918162    7.4161918   -2.9343111  
N   -3.9989761    6.2924332   -3.5698949  
C   -4.9328351    8.5506140   -3.4129177  
C   -5.0204781    9.6292209   -2.6015851  
O   -5.6799586   10.7561200   -2.9197443  
C   -4.3753976    9.6529307   -1.2556765  
O   -4.4961880   10.6684841   -0.5706353  
C   -3.6207275    8.4768612   -0.7874271  
H   -2.3360806    5.7148151   -0.6894017  
H   -5.3977330    8.5280641   -4.3877362  
H   -5.5639640   11.3378813   -2.1469237  
H   -3.1684112    8.5337637    0.1935936  
C    0.0000000    0.0000000    1.4700000  
C    1.0541688    0.0001722    2.3260392  
C    0.5103138    0.0000454    3.6635956  
C   -0.9576371   -0.0002459    3.5155732  
N   -1.2018458    0.0001392    2.1615969  
C   -1.8348311   -0.0008317    4.5510609  
C   -1.2972847   -0.0009736    5.9014604  
O   -2.0050672   -0.0014265    6.9001319  
C    0.2542623   -0.0004184    6.0817573  
O    0.7184670   -0.0002256    7.2139121  
C    1.0974552   -0.0000873    4.8889129  
H    2.0940752    0.0005483    2.0517982  
H   -2.9081052   -0.0011668    4.4207061  
H    2.1707277    0.0000911    5.0223670  
H   -2.1128194   -0.0014912    1.7406791  
