58

C    5.7126313   -3.5889905   -1.3516441  
C    6.8151879   -4.3710000   -1.2216245  
C    7.5841581   -4.2194981   -2.4342940  
C    6.8338531   -3.2783518   -3.2875687  
N    5.7092834   -2.9338498   -2.5737404  
C    7.2307888   -2.8748161   -4.5209805  
C    8.4802700   -3.4028317   -5.0430285  
O    8.9232201   -3.1003533   -6.1433024  
C    9.2911093   -4.4011401   -4.1566167  
O   10.3443922   -4.8525406   -4.5856737  
C    8.7611782   -4.7608865   -2.8437535  
H    7.0615806   -4.9841555   -0.3731290  
H    6.6656336   -2.1834809   -5.1305425  
H    9.3287420   -5.4525401   -2.2361246  
H    4.9021550   -3.4363354   -0.6575878  
C    4.6658421   -2.0084115   -3.0381693  
C    3.5410041   -1.6272099   -2.3893213  
C    2.8760349   -0.7078757   -3.2998926  
C    3.7621637   -0.6481452   -4.4821752  
N    4.8129012   -1.4085091   -4.3345739  
C    3.4519840    0.1658071   -5.6251348  
C    2.3083475    0.8869943   -5.5888132  
O    1.8948251    1.6890059   -6.5847139  
C    1.3931661    0.8475793   -4.4102331  
O    0.3692897    1.5299496   -4.4458473  
C    1.7334695    0.0049281   -3.2500363  
H    3.2040799   -1.9322774   -1.4133643  
H    4.1177943    0.1905568   -6.4754254  
H    1.0533189    2.0640199   -6.2678781  
C    1.1319246    0.0015678   -0.8009268  
C    0.7969914    0.0034958   -2.1169401  
C   -0.6453340    0.0035696   -2.1842669  
C   -1.1266832    0.0015410   -0.7896025  
N    0.0000000    0.0000000    0.0000000  
C   -2.4346129    0.0013913   -0.4276292  
C   -3.4350111    0.0031335   -1.4820181  
O   -4.6384614    0.0030875   -1.2583914  
C   -2.9478961    0.0050442   -2.9661074  
O   -3.7809382    0.0062135   -3.8623773  
C   -1.5113825    0.0053055   -3.2312122  
H   -2.7664565    0.0000174    0.6013448  
H   -1.1823533    0.0068381   -4.2614848  
H    2.1104316    0.0009435   -0.3488059  
C    0.0000000    0.0000000    1.4700000  
C    1.0662921    0.0000102    2.3034270  
C    0.4961870   -0.0000064    3.6418889  
C   -0.9663858    0.0000850    3.4240247  
N   -1.2632773    0.0000084    2.1528658  
C   -1.8985362    0.0000517    4.5177257  
C   -1.3925775   -0.0004564    5.7720543  
O   -2.1456383   -0.0005410    6.8851312  
C    0.0786232   -0.0009323    6.0245000  
O    0.4683759   -0.0012588    7.1921102  
C    1.0143166   -0.0008442    4.8859032  
H    2.1107198   -0.0000632    2.0421868  
H   -2.9622183    0.0003270    4.3293377  
H   -1.5042274   -0.0009692    7.6184419  
H    2.0724152   -0.0013148    5.1109744  
