58

C   -5.5364758    0.7238048    1.1086970  
C   -5.7237991    0.5071298    2.4361144  
C   -6.8244810   -0.4191097    2.5602718  
C   -7.2661990   -0.7265187    1.1865269  
N   -6.4453444   -0.0017740    0.3535602  
C   -8.2862694   -1.5662459    0.8766586  
C   -8.9966619   -2.2100768    1.9690691  
O   -9.9295467   -2.9828057    1.7932361  
C   -8.5459956   -1.8988832    3.4318962  
O   -9.1367846   -2.4347938    4.3598115  
C   -7.4324075   -0.9766637    3.6399460  
H   -5.1558683    0.9462006    3.2369164  
H   -8.5942546   -1.7781868   -0.1378048  
H   -7.1264087   -0.7666515    4.6558122  
H   -4.8110719    1.3526654    0.6185804  
C   -3.3460096   -0.0004265   -2.7913646  
C   -4.0050883   -0.0007136   -1.6040609  
C   -5.4169930   -0.0010574   -1.9063180  
C   -5.5272434   -0.0009755   -3.3775878  
N   -4.2366049   -0.0001893   -3.8541817  
C   -6.6998413   -0.0016249   -4.0607553  
C   -7.9358013   -0.0022343   -3.2959434  
O   -9.0426027   -0.0027802   -3.8187159  
C   -7.8427528   -0.0020796   -1.7367297  
O   -8.8766027   -0.0022816   -1.0821960  
C   -6.5211391   -0.0016368   -1.1144846  
H   -3.5536952   -0.0005051   -0.6279167  
H   -6.7586581   -0.0016816   -5.1403161  
H   -3.9810064   -0.0015040   -4.8246018  
C    0.0000000    0.0000000    0.0000000  
C    1.0662919   -0.0000103   -0.8334269  
C    0.4961869    0.0000064   -2.1718889  
C   -0.9663859   -0.0000850   -1.9540246  
N   -1.2632774   -0.0000084   -0.6828657  
C   -1.8985363   -0.0000518   -3.0477257  
C   -1.3925778    0.0004564   -4.3020545  
O   -2.1456384    0.0005409   -5.4151311  
C    0.0786230    0.0009323   -4.5544998  
O    0.4683758    0.0012588   -5.7221098  
C    1.0143164    0.0008442   -3.4159030  
H    2.1107195    0.0000633   -0.5721867  
H   -1.5042275    0.0009691   -6.1484418  
H    2.0724152    0.0013148   -3.6409744  
C    0.0000000    0.0000000    1.4700000  
C    1.0662921    0.0000102    2.3034270  
C    0.4961870   -0.0000064    3.6418889  
C   -0.9663858    0.0000850    3.4240247  
N   -1.2632773    0.0000084    2.1528658  
C   -1.8985362    0.0000517    4.5177257  
C   -1.3925775   -0.0004564    5.7720543  
O   -2.1456383   -0.0005410    6.8851312  
C    0.0786232   -0.0009323    6.0245000  
O    0.4683759   -0.0012588    7.1921102  
C    1.0143166   -0.0008442    4.8859032  
H    2.1107198   -0.0000632    2.0421868  
H   -2.9622183    0.0003270    4.3293377  
H   -1.5042274   -0.0009692    7.6184419  
H    2.0724152   -0.0013148    5.1109744  
