58

C    7.1455571   -3.3636576   -1.2368793  
C    6.7131196   -2.1208477   -1.5722852  
C    7.8731822   -1.2612765   -1.5873619  
C    9.0251736   -2.1112828   -1.2307168  
N    8.5166939   -3.3739103   -1.0304399  
C   10.3055103   -1.6712558   -1.1368084  
C   10.5663029   -0.2667014   -1.4046691  
O   11.6852925    0.2259793   -1.3461266  
C    9.3612304    0.6518761   -1.7839060  
O    9.5684895    1.8361844   -2.0113213  
C    8.0265503    0.0622699   -1.8535216  
H   11.1361380   -2.3114201   -0.8738304  
H    7.1975784    0.7050144   -2.1169783  
H    6.5779084   -4.2728773   -1.1229333  
H    9.0585110   -4.1792709   -0.7757317  
C    4.1985330   -2.1423500   -1.2324143  
C    5.3247411   -1.7348288   -1.8626208  
C    4.8654772   -0.8236655   -2.8996155  
C    3.3948132   -0.7971456   -2.7478595  
N    2.9980296   -1.5681521   -1.7721028  
C    2.5562217   -0.0001543   -3.6003001  
C    3.1594329    0.7371398   -4.5604401  
O    2.5003399    1.5262936   -5.4258144  
C    4.6414691    0.7318289   -4.7384883  
O    5.1222591    1.4271709   -5.6332287  
C    5.4799811   -0.0940152   -3.8514688  
H    3.1964045    1.9185700   -5.9832786  
H    6.5493677   -0.0702008   -4.0129491  
H    4.1121693   -2.8248211   -0.4019036  
C    0.0000000    0.0000000    0.0000000  
C    1.0541688   -0.0001719   -0.8560391  
C    0.5103141   -0.0000449   -2.1935955  
C   -0.9576367    0.0002461   -2.0455733  
N   -1.2018459   -0.0001392   -0.6915970  
C   -1.8348306    0.0008319   -3.0810611  
C   -1.2972842    0.0009739   -4.4314605  
O   -2.0050664    0.0014267   -5.4301321  
C    0.2542628    0.0004190   -4.6117571  
O    0.7184677    0.0002263   -5.7439119  
C    1.0974556    0.0000880   -3.4189127  
H    2.0940752   -0.0005479   -0.5817978  
H   -2.9081050    0.0011669   -2.9507065  
H   -2.1128195    0.0014911   -0.2706793  
C    3.2798086   -0.0005857    2.9199648  
C    2.5571146   -0.0005566    4.0696553  
C    1.1637436   -0.0001548    3.6910360  
C    1.1336965    0.0000200    2.2159470  
N    2.4483514    0.0001428    1.8102719  
C    0.0000000    0.0000000    1.4700000  
C   -1.2757367    0.0000186    2.1664417  
O   -2.3524596    0.0000640    1.5842315  
C   -1.2676493    0.0000873    3.7284083  
O   -2.3355761    0.0004100    4.3257297  
C    0.0181563   -0.0001760    4.4216297  
H    2.9547357   -0.0006076    5.0689105  
H    0.0150794   -0.0003319    5.5031631  
H    4.3498549   -0.0008612    2.7900019  
H    2.7563627   -0.0012824    0.8551938  
