62

C   -3.2745626   -0.4410155   -1.5420435  
C   -2.5614874   -0.3444039   -0.3695855  
C   -1.1932332   -0.1606597   -0.7283590  
C   -1.1319416   -0.1530171   -2.1454376  
N   -2.4127403   -0.3274929   -2.6077469  
C    0.0650500    0.0078709   -2.8497918  
C    1.2211890    0.1641901   -2.1101396  
O    2.4174824    0.3253814   -2.7472516  
C    1.1804689    0.1589426   -0.6955257  
O    2.4153259    0.3254407   -0.1032863  
C    0.0000000    0.0000000    0.0000000  
H   -2.9763056   -0.4006719    0.6222582  
H    0.1184861    0.0144556   -3.9297468  
H    3.0854483    0.4154993   -2.0551783  
H    2.2992260    0.3099853    0.8516420  
H   -4.3295390   -0.5833526   -1.7024297  
C   -2.8072986   -0.3662561   -4.0232754  
C   -4.0421865   -0.5313425   -4.5635281  
C   -3.8826400   -0.4931269   -5.9980731  
C   -2.4432515   -0.2908224   -6.2511032  
N   -1.8470470   -0.2216832   -5.0131012  
C   -1.8847422   -0.1999780   -7.4846019  
C   -2.7597031   -0.3084858   -8.6401127  
O   -2.3528559   -0.2394691   -9.7925066  
C   -4.2874951   -0.5226949   -8.3956312  
O   -5.0339960   -0.6151893   -9.3607439  
C   -4.7713155   -0.6050400   -7.0197718  
H   -4.9601292   -0.6644916   -4.0192241  
H   -5.8304721   -0.7536519   -6.8590674  
H   -0.8652776   -0.0888966   -4.8532764  
C    0.5589420   -0.5890687   -6.9772048  
C    1.7769068   -0.1601370   -7.4515958  
C    1.5117424    0.7404843   -8.5254534  
C    0.1022339    0.8227424   -8.6612653  
N   -0.4457608    0.0017601   -7.7071651  
C   -0.5192892    1.6225749   -9.6249894  
C    0.2969419    2.3529029  -10.4667535  
O   -0.2575511    3.1505813  -11.4255338  
C    1.7053893    2.2837875  -10.3471013  
O    2.3799031    3.0694373  -11.2587641  
C    2.3192279    1.4947362   -9.3967717  
H    2.7382493   -0.4603863   -7.0712498  
H   -1.5930188    1.6895170   -9.7337378  
H    0.4781314    3.5643530  -11.8954583  
H    3.3246610    2.9651461  -11.1099034  
H    3.4003534    1.4619302   -9.3291703  
H    0.3274364   -1.2708126   -6.1768362  
C    0.0000000    0.0000000    1.4700000  
C    1.0541688    0.0001722    2.3260392  
C    0.5103138    0.0000454    3.6635956  
C   -0.9576371   -0.0002459    3.5155732  
N   -1.2018458    0.0001392    2.1615969  
C   -1.8348311   -0.0008317    4.5510609  
C   -1.2972847   -0.0009736    5.9014604  
O   -2.0050672   -0.0014265    6.9001319  
C    0.2542623   -0.0004184    6.0817573  
O    0.7184670   -0.0002256    7.2139121  
C    1.0974552   -0.0000873    4.8889129  
H    2.0940752    0.0005483    2.0517982  
H   -2.9081052   -0.0011668    4.4207061  
H    2.1707277    0.0000911    5.0223670  
H   -2.1128194   -0.0014912    1.7406791  
