58

C    3.2573672   -0.0002920   -1.5109380  
C    2.5379470   -0.0001710   -0.3591959  
C    1.1435044    0.0000331   -0.7338498  
C    1.1092609   -0.0000083   -2.2088475  
N    2.4227564    0.0001909   -2.6182609  
C   -0.0265532   -0.0002524   -2.9515660  
C   -1.3003037   -0.0002640   -2.2514978  
O   -2.3786783   -0.0004133   -2.8306423  
C   -1.2877723    0.0000311   -0.6895608  
O   -2.3539957    0.0003306   -0.0892035  
C    0.0000000    0.0000000    0.0000000  
H    2.9384091   -0.0000368    0.6389235  
H    2.7280494   -0.0013407   -3.5742112  
C    5.6463488    0.0002323   -0.7029957  
C    4.7161333   -0.0005436   -1.6923256  
C    5.4339829   -0.0013633   -2.9451332  
C    6.8689507   -0.0010281   -2.6021223  
N    6.9298903    0.0003445   -1.2276501  
C    7.8767475   -0.0019861   -3.5109952  
C    7.5246271   -0.0032187   -4.9211533  
O    8.3596101   -0.0040804   -5.8161967  
C    6.0111303   -0.0033416   -5.3073282  
O    5.7025051   -0.0040680   -6.4913938  
C    5.0159852   -0.0025215   -4.2379655  
H    8.9229469   -0.0018485   -3.2382757  
H    3.9702016   -0.0028179   -4.5137561  
H    5.5021933    0.0009485    0.3652306  
H    7.7763888   -0.0006784   -0.6886822  
C    2.4602722   -2.0944457   -5.9392884  
C    1.9124733   -1.6318086   -4.7860502  
C    0.8432456   -0.7354859   -5.1577931  
C    0.8127885   -0.7137220   -6.6327131  
N    1.8180306   -1.5578237   -7.0448665  
C   -0.0596371    0.0159817   -7.3730582  
C   -1.0334826    0.8347246   -6.6703351  
O   -1.8613773    1.5276079   -7.2472267  
C   -1.0192493    0.8271225   -5.1084308  
O   -1.8341903    1.5127099   -4.5058519  
C   -0.0307352   -0.0004647   -4.4215603  
H    2.2221964   -1.8889425   -3.7887703  
H   -0.0651697    0.0176827   -8.4542048  
H    3.2792594   -2.7820944   -6.0745257  
H    2.0482140   -1.7553499   -8.0014469  
C    2.5528530    2.1414826    2.8079335  
C    2.0663498    1.7338582    4.0032312  
C    0.9804344    0.8229586    3.6752840  
C    0.9495562    0.7966882    2.1971295  
N    1.8690446    1.5676019    1.6831036  
C    0.0000000    0.0000000    1.4700000  
C   -0.8785127   -0.7372425    2.1869543  
O   -1.8187535   -1.5261249    1.6395491  
C   -0.8723269   -0.7321790    3.6796354  
O   -1.7010379   -1.4274584    4.2670412  
C    0.1115397    0.0933559    4.4024240  
H    2.4028853    2.0163452    4.9860947  
H   -2.2861435   -1.9184361    2.3990168  
H    0.0832434    0.0693689    5.4835595  
H    3.3664920    2.8238276    2.6198634  
