62

C    1.1243400    0.0100500   -0.7919010  
C    0.7474052    0.0234928   -2.1148550  
C   -0.6787406    0.0234143   -2.1414695  
C   -1.1201754    0.0098019   -0.7935541  
N    0.0000000    0.0000000    0.0000000  
C   -2.4730823    0.0062441   -0.4408232  
C   -3.3971975    0.0169240   -1.4675048  
O   -4.7313531    0.0143835   -1.1793446  
C   -2.9763680    0.0301984   -2.8186306  
O   -4.0166520    0.0393063   -3.7247603  
C   -1.6418601    0.0334421   -3.1673475  
H   -2.8160164   -0.0042554    0.5845986  
H   -5.1938846    0.0228207   -2.0274351  
H   -3.6464723    0.0480426   -4.6127324  
H   -1.3497516    0.0435180   -4.2109228  
H    2.1062459    0.0053899   -0.3505419  
C    4.6036339   -2.0930716   -2.9144245  
C    3.4418649   -1.6362332   -2.3364471  
C    2.8381164   -0.7399517   -3.2674505  
C    3.6839306   -0.6894178   -4.4049794  
N    4.7475931   -1.5210622   -4.1567729  
C    3.3988584    0.0973662   -5.5250210  
C    2.2386550    0.8465548   -5.4963344  
O    1.9118972    1.6321378   -6.5636216  
C    1.3821518    0.8097215   -4.3703406  
O    0.2663906    1.6116414   -4.4942143  
C    1.6628913    0.0339758   -3.2649309  
H    3.0752696   -1.9138828   -1.3630448  
H    4.0394695    0.1403668   -6.3950614  
H    1.0768251    2.0632292   -6.3398371  
H   -0.2582085    1.5289057   -3.6919960  
H    5.3416944   -2.7805788   -2.5381801  
C    7.1012386   -5.1057119   -5.3713018  
C    6.1903393   -4.3185452   -4.7530697  
C    6.4224946   -2.9854390   -5.2873282  
C    7.5398099   -3.1554361   -6.2408961  
N    7.9418263   -4.3962038   -6.2944409  
C    8.0757803   -2.0520305   -6.9894402  
C    7.5205285   -0.8342294   -6.7945300  
O    7.9207021    0.2828068   -7.4255069  
C    6.3916140   -0.6305638   -5.8394205  
O    5.9351655    0.5055240   -5.7122210  
C    5.8594620   -1.7782052   -5.0833396  
H    5.4520000   -4.6069395   -4.0245379  
H    8.8927822   -2.2050639   -7.6793675  
H    7.3393420    0.9843000   -7.0804253  
H    7.2552937   -6.1659375   -5.2481679  
C    2.5128556    2.1077716    2.9199648  
C    1.9592212    1.6432552    4.0696553  
C    0.8915788    0.7479214    3.6910360  
C    0.8684491    0.7287414    2.2159470  
N    1.8754542    1.5738793    1.8102719  
C    0.0000000    0.0000000    1.4700000  
C   -0.9772830   -0.8200135    2.1664417  
O   -1.8021297   -1.5120829    1.5842315  
C   -0.9711318   -0.8147624    3.7284083  
O   -1.7894187   -1.5009653    4.3257297  
C    0.0140216    0.0115358    4.4216297  
H    2.2638494    1.8988021    5.0689105  
H    0.0117648    0.0094386    5.5031631  
H    3.3327358    2.7953732    2.7900019  
H    2.1123206    1.7707734    0.8551938  
