60

C    3.3003538    0.0005277   -1.4739000  
C    2.5232805    0.0003501   -2.6090752  
C    1.1623192   -0.0001315   -2.1820103  
C    1.1711879    0.0000585   -0.7636141  
N    2.4852298   -0.0014918   -0.3662362  
C    0.0000000    0.0000000    0.0000000  
C   -1.2020385    0.0000521   -0.6806474  
O   -2.3759249    0.0003497    0.0157757  
C   -1.2314667   -0.0005110   -2.0955503  
O   -2.5054399   -0.0008033   -2.6250170  
C   -0.0764526   -0.0007269   -2.8495190  
H    2.8919941   -0.0005614   -3.6205308  
H    2.8036265    0.0088181    0.5858651  
H   -3.0835641    0.0000349   -0.6418804  
H   -2.4360063   -0.0011522   -3.5845910  
H    4.3715543    0.0004895   -1.3667148  
C    2.2883715   -2.1096663   -5.8898019  
C    1.6780782   -1.6459097   -7.0107599  
C    0.6304122   -0.7505687   -6.5799514  
C    0.6807507   -0.7305564   -5.1055512  
N    1.7068930   -1.5752684   -4.7500468  
C   -0.1496430   -0.0015608   -4.3176959  
C   -1.1605716    0.8178678   -4.9650717  
O   -1.9555611    1.5101069   -4.3429003  
C   -1.2321962    0.8117318   -6.5254043  
O   -2.0793609    1.4974368   -7.0816251  
C   -0.2825959   -0.0147682   -7.2663560  
H    1.9326332   -1.9019641   -8.0238007  
H   -0.3386993   -0.0132848   -8.3464369  
H    1.9910620   -1.7715746   -3.8078371  
C    3.4141296   -3.0470653   -5.7679328  
C    4.1152042   -3.6748136   -6.7469634  
C    5.1160355   -4.4855501   -6.0943693  
C    4.9392821   -4.2772004   -4.6444937  
N    3.8921094   -3.3944980   -4.5135146  
C    5.6941344   -4.8697350   -3.6849079  
C    6.7513549   -5.7727871   -4.1083676  
O    7.4853928   -6.3549203   -3.3205795  
C    6.9565935   -6.0080177   -5.6388411  
O    7.8437337   -6.7659363   -6.0073531  
C    6.0796062   -5.3126890   -6.5775971  
H    3.9502025   -3.5805321   -7.8054998  
H    5.5478781   -4.7033850   -2.6266802  
H    6.2281363   -5.4811361   -7.6355616  
H    3.5294901   -3.0564760   -3.6409914  
C    0.8400945    0.7047457    2.2710304  
C    0.0000000    0.0000000    1.4700000  
C   -0.8844236   -0.7423113    2.3369512  
C   -0.4878984   -0.4098547    3.7186280  
N    0.5629682    0.4714286    3.6095011  
C   -1.0836927   -0.9095027    4.8308716  
C   -2.1891196   -1.8367527    4.6554461  
O   -2.7906899   -2.3413415    5.5944904  
C   -2.6257283   -2.2031529    3.2011665  
O   -3.5549479   -2.9829990    3.0410059  
C   -1.9068976   -1.5999348    2.0816745  
H   -0.7774656   -0.6525820    5.8354244  
H   -2.2155208   -1.8586617    1.0779135  
H    1.6384792    1.3747609    1.9961646  
H    1.0518368    0.8833920    4.3830260  
