58

C    4.9738893   -0.5208610   -8.7555914  
C    4.4474960    0.6890224   -8.4343948  
C    4.9238188    1.6304605   -9.4201146  
C    5.7769574    0.8643768  -10.3485877  
N    5.7662249   -0.4327715   -9.8901326  
C    6.4157976    1.3955445  -11.4216432  
C    6.2523800    2.8166379  -11.6791765  
O    6.7866383    3.3888069  -12.6201834  
C    5.3535994    3.6473791  -10.7086789  
O    5.2088166    4.8447247  -10.9152255  
C    4.7166056    2.9629670   -9.5863287  
H    7.0369148    0.8159340  -12.0903548  
H    4.0957212    3.5452732   -8.9191355  
H    4.8498234   -1.4693873   -8.2588069  
H    6.2566322   -1.1980282  -10.3154926  
C    4.4169323   -0.7262681   -4.2519965  
C    4.7208627   -0.5096733   -5.5576722  
C    3.7394655    0.4171453   -6.0702173  
C    2.8323815    0.7249817   -4.9480652  
N    3.2973506   -0.0000934   -3.8752374  
C    1.7696597    1.5653036   -5.0267153  
C    1.5012095    2.2093696   -6.3017244  
O    0.5680943    2.9826278   -6.4739712  
C    2.4487537    1.8977314   -7.5037428  
O    2.2325035    2.4338349   -8.5822092  
C    3.5619530    0.9748805   -7.2964140  
H    5.5390529   -0.9491615   -6.0999154  
H    1.1167845    1.7775507   -4.1914813  
H    4.9165210   -1.3554542   -3.5333689  
C    3.3321174    0.0004714   -1.3379332  
C    2.6974186    0.0000115   -2.5332308  
C    1.2800441   -0.0002119   -2.2052838  
C    1.2395035    0.0000643   -0.7271293  
N    2.4394063    0.0005458   -0.2131034  
C    0.0000000    0.0000000    0.0000000  
C   -1.1468701    0.0000634   -0.7169542  
O   -2.3742201    0.0000072   -0.1695492  
C   -1.1388767    0.0001606   -2.2096354  
O   -2.2206229    0.0000903   -2.7970413  
C    0.1454526    0.0001815   -2.9324239  
H   -2.9844344    0.0001023   -0.9290168  
H    0.1083580    0.0003680   -4.0135594  
H    4.3940040    0.0007617   -1.1498630  
C    2.4951002    2.0940188    2.9809380  
C    1.9440701    1.6314916    1.8291961  
C    0.8759964    0.7350050    2.2038498  
C    0.8497377    0.7130254    3.6788474  
N    1.8560616    1.5571714    4.0882609  
C   -0.0205033   -0.0168748    4.4215661  
C   -0.9962600   -0.8356168    3.7214979  
O   -1.8224391   -1.5286685    4.3006425  
C   -0.9864710   -0.8277881    2.1595606  
O   -1.8030528   -1.5133726    1.5592035  
C    0.0000000    0.0000000    1.4700000  
H    2.2509283    1.8888011    0.8310761  
H   -0.0229599   -0.0187323    5.5027230  
H    3.3143982    2.7817323    3.1139444  
H    2.0889452    1.7545833    5.0442112  
