62

C    3.3041273    0.0001175   -1.5420435  
C    2.5845372   -0.0004779   -0.3695860  
C    1.2040005   -0.0000008   -0.7283593  
C    1.1422374    0.0006037   -2.1454377  
N    2.4348641    0.0026111   -2.6077466  
C   -0.0655181    0.0008798   -2.8497922  
C   -1.2321766    0.0002323   -2.1101403  
O   -2.4392816    0.0001146   -2.7472523  
C   -1.1911209   -0.0000007   -0.6955264  
O   -2.4371522   -0.0002319   -0.1032863  
C    0.0000000    0.0000000    0.0000000  
H    3.0031538   -0.0000661    0.6222575  
H    2.7054628   -0.0071099   -3.5745264  
H   -3.1132990   -0.0000647   -2.0551788  
H   -2.3200277   -0.0004070    0.8516402  
H    4.3686620    0.0004070   -1.7024297  
C    2.3129716   -2.1206346   -5.9853336  
C    1.8203210   -1.6593260   -4.7866025  
C    0.7463512   -0.7716031   -5.0917860  
C    0.6289215   -0.7306575   -6.5047477  
N    1.5963344   -1.5595250   -7.0163214  
C   -0.3301681    0.0460723   -7.1617305  
C   -1.1865065    0.7948777   -6.3780513  
O   -2.1420034    1.5708500   -6.9678874  
C   -1.0848074    0.7675251   -4.9667660  
O   -2.0089556    1.5677381   -4.3272724  
C   -0.1387083    0.0017018   -4.3179686  
H    2.1903016   -1.9285749   -3.8121219  
H   -0.4247473    0.0817359   -8.2382921  
H   -2.6234320    2.0034608   -6.2507130  
H   -1.8718974    1.4918036   -3.3780344  
H    3.1197745   -2.8044120   -6.1865217  
C    1.8199029   -1.8242452   -8.4449015  
C    2.7408451   -2.6311689   -9.0321105  
C    2.5363402   -2.5352413  -10.4582274  
C    1.4127267   -1.5995554  -10.6551415  
N    1.0233456   -1.2048339   -9.3959882  
C    0.9124981   -1.2425099  -11.8650974  
C    1.5212471   -1.8183784  -13.0526732  
O    1.1424299   -1.5596870  -14.1875192  
C    2.7123149   -2.8118322  -12.8677082  
O    3.2326338   -3.3032489  -13.8601999  
C    3.1632669   -3.1192958  -11.5127320  
H    3.4790547   -3.2258756   -8.5241892  
H    0.0876950   -0.5543162  -11.9875666  
H    3.9886413   -3.8079271  -11.3932826  
H    0.2769461   -0.5638049   -9.1984595  
C    2.4951002    2.0940188    2.9809380  
C    1.9440701    1.6314916    1.8291961  
C    0.8759964    0.7350050    2.2038498  
C    0.8497377    0.7130254    3.6788474  
N    1.8560616    1.5571714    4.0882609  
C   -0.0205033   -0.0168748    4.4215661  
C   -0.9962600   -0.8356168    3.7214979  
O   -1.8224391   -1.5286685    4.3006425  
C   -0.9864710   -0.8277881    2.1595606  
O   -1.8030528   -1.5133726    1.5592035  
C    0.0000000    0.0000000    1.4700000  
H    2.2509283    1.8888011    0.8310761  
H   -0.0229599   -0.0187323    5.5027230  
H    3.3143982    2.7817323    3.1139444  
H    2.0889452    1.7545833    5.0442112  
