60

C   -3.3039187    0.0371450   -1.5420422  
C   -2.5843676    0.0296254   -0.3695845  
C   -1.2039244    0.0135790   -0.7283586  
C   -1.1421724    0.0122780   -2.1454371  
N   -2.4347393    0.0248487   -2.6077460  
C    0.0655031   -0.0016186   -2.8497917  
C    1.2320950   -0.0141285   -2.1101403  
O    2.4391243   -0.0276240   -2.7472529  
C    1.1910451   -0.0134322   -0.6955268  
O    2.4370003   -0.0272533   -0.1032870  
C    0.0000000    0.0000000    0.0000000  
H   -3.0029617    0.0339345    0.6222590  
H   -2.7052112    0.0376206   -3.5745253  
H    0.1193298   -0.0028304   -3.9297476  
H    3.1131015   -0.0350458   -2.0551796  
H    2.3198863   -0.0257573    0.8516402  
C   -6.6796741    0.0786716    1.2661404  
C   -7.7088159    0.0889356    0.3802301  
C   -7.1268895    0.0808264   -0.9411827  
C   -5.6638733    0.0648532   -0.7511336  
N   -5.4585738    0.0647035    0.6092859  
C   -4.7574256    0.0531429   -1.7610447  
C   -5.2560250    0.0567210   -3.1262998  
O   -4.5199627    0.0470375   -4.1042669  
C   -6.8016704    0.0738140   -3.3510068  
O   -7.2332125    0.0772722   -4.4960041  
C   -7.6786451    0.0851466   -2.1828287  
H   -8.7475871    0.0967511   -2.3469990  
H   -6.7105622    0.0803534    2.3436064  
H   -4.5601073    0.0538548    1.0561503  
C   -9.7215657    0.8180624    1.7133523  
C   -9.1402873    0.1054427    0.7141709  
C  -10.1937656   -0.6259528    0.0507852  
C  -11.4454165   -0.2785101    0.7503857  
N  -11.0905304    0.6001453    1.7478373  
C  -12.6694650   -0.7648732    0.4234893  
C  -12.7601690   -1.6926178   -0.6916777  
O  -13.8169249   -2.1858589   -1.0635382  
C  -11.4473037   -2.0747659   -1.4467631  
O  -11.5111872   -2.8551705   -2.3870548  
C  -10.1870833   -1.4850784   -1.0018290  
H  -13.5752385   -0.4970807    0.9495799  
H   -9.2826462   -1.7546649   -1.5300707  
H   -9.2650129    1.4839254    2.4275478  
H  -11.7280991    1.0201423    2.3991091  
C    0.8681109    0.7263879    2.2709268  
C    0.6127770    0.5096195    3.5869401  
C   -0.4920590   -0.4175482    3.6542670  
C   -0.8620974   -0.7254003    2.2596025  
N    0.0000000    0.0000000    1.4700000  
C   -1.8641242   -1.5660088    1.8976294  
C   -2.6293522   -2.2103885    2.9520183  
O   -3.5512764   -2.9839180    2.7283916  
C   -2.2549728   -1.8987399    4.4361073  
O   -2.8923672   -2.4351063    5.3323774  
C   -1.1543735   -0.9755647    4.7012123  
H    1.1382914    0.9492124    4.4159191  
H   -2.1192137   -1.7782617    0.8686553  
H   -0.9013378   -0.7652422    5.7314848  
H    1.6172880    1.3558399    1.8188057  
