58

C    5.3837240   -0.9069760   -8.6657518  
C    5.8338718   -0.5481802   -9.8956737  
C    5.6157050    0.8732048  -10.0256874  
C    4.9971468    1.3162664   -8.7616163  
N    4.8833646    0.1895903   -7.9802429  
C    4.6367583    2.5959325   -8.4890764  
C    4.8737165    3.6041030   -9.5088700  
O    4.5841979    4.7839532   -9.3590881  
C    5.5274630    3.1572974  -10.8552665  
O    5.7315369    3.9971609  -11.7214316  
C    5.8725355    1.7489507  -11.0322873  
H    6.2689181   -1.2043783  -10.6283072  
H    4.1844434    2.8999109   -7.5553104  
H    6.3250159    1.4477987  -11.9673229  
H    5.3752218   -1.8802508   -8.2025528  
C    6.1812373   -2.0122605   -4.4510963  
C    5.2702187   -1.6303461   -3.5260204  
C    4.3856200   -0.7126510   -4.2273195  
C    4.9238565   -0.6545500   -5.6033682  
N    5.9763881   -1.4143797   -5.7405736  
C    4.3191903    0.1574945   -6.6231959  
C    3.2262690    0.8784137   -6.2838837  
O    2.5612865    1.6787218   -7.1343809  
C    2.6590319    0.8406141   -4.9036753  
O    1.6623422    1.5226360   -4.6656073  
C    3.2973506   -0.0000934   -3.8752374  
H    5.2063282   -1.9339561   -2.4950913  
H    1.8346677    2.0540005   -6.6049057  
H    7.0103757   -2.6904146   -4.3261563  
C    3.3321174    0.0004714   -1.3379332  
C    2.6974186    0.0000115   -2.5332308  
C    1.2800441   -0.0002119   -2.2052838  
C    1.2395035    0.0000643   -0.7271293  
N    2.4394063    0.0005458   -0.2131034  
C    0.0000000    0.0000000    0.0000000  
C   -1.1468701    0.0000634   -0.7169542  
O   -2.3742201    0.0000072   -0.1695492  
C   -1.1388767    0.0001606   -2.2096354  
O   -2.2206229    0.0000903   -2.7970413  
C    0.1454526    0.0001815   -2.9324239  
H   -2.9844344    0.0001023   -0.9290168  
H    0.1083580    0.0003680   -4.0135594  
H    4.3940040    0.0007617   -1.1498630  
C    0.0000000    0.0000000    1.4700000  
C    1.0662921    0.0000102    2.3034270  
C    0.4961870   -0.0000064    3.6418889  
C   -0.9663858    0.0000850    3.4240247  
N   -1.2632773    0.0000084    2.1528658  
C   -1.8985362    0.0000517    4.5177257  
C   -1.3925775   -0.0004564    5.7720543  
O   -2.1456383   -0.0005410    6.8851312  
C    0.0786232   -0.0009323    6.0245000  
O    0.4683759   -0.0012588    7.1921102  
C    1.0143166   -0.0008442    4.8859032  
H    2.1107198   -0.0000632    2.0421868  
H   -2.9622183    0.0003270    4.3293377  
H   -1.5042274   -0.0009692    7.6184419  
H    2.0724152   -0.0013148    5.1109744  
