58

C    7.9480731   -2.1026607   -3.5094397  
C    9.1879139   -1.6377925   -3.8107165  
C    9.0406027   -0.7436576   -4.9348420  
C    7.6029977   -0.7255646   -5.2661315  
N    6.9960373   -1.5701236   -4.3654604  
C    7.0548980    0.0018849   -6.2721684  
C    7.9399822    0.8215557   -7.0829092  
O    7.5428906    1.5124893   -8.0120108  
C    9.4660875    0.8174397   -6.7500570  
O   10.2210470    1.5033658   -7.4259284  
C    9.9382605   -0.0075037   -5.6408355  
H   10.1014418   -1.8923525   -3.3034890  
H   10.9963231   -0.0046261   -5.4167404  
H    7.6497942   -2.7896462   -2.7342173  
H    6.0126422   -1.7675032   -4.3334848  
C    3.2973507   -0.0000930   -3.8752373  
C    4.6109361    0.0001676   -4.2009255  
C    4.6367195   -0.0000879   -5.6555160  
C    3.2125798   -0.0006171   -6.0535227  
N    2.4227569   -0.0005418   -5.0142109  
C    2.8079503   -0.0009509   -7.4324215  
C    3.7817678   -0.0003752   -8.3710445  
O    3.5485421   -0.0006033   -9.6945425  
C    5.2278982    0.0005386   -8.0010880  
O    6.0602363    0.0009025   -8.9079694  
C    5.6174391    0.0008216   -6.5797564  
H    5.4578085    0.0005834   -3.5361826  
H    1.7599990   -0.0015423   -7.6945434  
H    4.4333819   -0.0000291  -10.1022329  
C    3.3321175    0.0004715   -1.3379331  
C    2.6974186    0.0000117   -2.5332308  
C    1.2800441   -0.0002117   -2.2052838  
C    1.2395036    0.0000644   -0.7271292  
N    2.4394065    0.0005460   -0.2131033  
C    0.0000000    0.0000000    0.0000000  
C   -1.1468701    0.0000635   -0.7169542  
O   -2.3742199    0.0000073   -0.1695491  
C   -1.1388766    0.0001607   -2.2096354  
O   -2.2206227    0.0000905   -2.7970412  
C    0.1454526    0.0001817   -2.9324239  
H   -2.9844344    0.0001026   -0.9290168  
H    0.1083579    0.0003683   -4.0135594  
H    4.3940038    0.0007619   -1.1498630  
C    0.8175213    0.6860729    2.3021913  
C    0.0000000    0.0000000    1.4700000  
C   -0.8887526   -0.7456559    2.3478473  
C   -0.4549825   -0.3816753    3.7138435  
N    0.5448156    0.4573574    3.6934124  
C   -1.0945674   -0.9182058    4.8835240  
C   -2.1210866   -1.7789155    4.6970523  
O   -2.8083856   -2.3554314    5.6976972  
C   -2.5824069   -2.1655116    3.3310774  
O   -3.5227682   -2.9541547    3.2362962  
C   -1.9100805   -1.6015804    2.1470656  
H   -0.7567140   -0.6349833    5.8697035  
H   -3.4728268   -2.9124471    5.2533954  
H   -2.2742832   -1.9066565    1.1752040  
H    1.6189533    1.3585343    2.0405121  
