58

C    1.0965514    0.0001360   -0.8010308  
C    0.0000000    0.0000000    0.0000000  
C   -1.1546565    0.0001472   -0.8669509  
C   -0.6372020    0.0003523   -2.2486278  
N    0.7342866    0.0007341   -2.1395013  
C   -1.4147747    0.0001359   -3.3608714  
C   -2.8576056   -0.0001043   -3.1854457  
O   -3.6427786   -0.0002487   -4.1244898  
C   -3.4275844   -0.0000723   -1.7311657  
O   -4.6406831    0.0000333   -1.5710050  
C   -2.4891869   -0.0001088   -0.6116737  
H   -2.8919120   -0.0002918    0.3920871  
H    2.1388271    0.0000665   -0.5261656  
H    1.3735865   -0.0006094   -2.9130264  
C    1.9957403   -2.1407944   -5.0258951  
C    1.9855614   -1.7332329   -6.3163869  
C    0.8551735   -0.8225471   -6.4132069  
C    0.2799725   -0.7963187   -5.0512087  
N    0.9444043   -1.5670707   -4.2336137  
C   -0.8712836    0.0001718   -4.7267109  
C   -1.4226099    0.7372654   -5.7177040  
O   -2.4987615    1.5259564   -5.5567515  
C   -0.8649849    0.7322396   -7.1023299  
O   -1.4179272    1.4273765   -7.9545391  
C    0.3165509   -0.0930913   -7.4101073  
H    2.6616892   -2.0156322   -7.1051694  
H   -2.6523141    1.9181970   -6.4352279  
H    0.6899748   -0.0690831   -8.4250997  
C    5.5441028   -4.4983445   -6.3356755  
C    4.4796524   -3.6628839   -6.3587201  
C    3.9602767   -3.6795496   -4.9998705  
C    4.8557108   -4.6025585   -4.2699141  
N    5.7861179   -5.0855784   -5.0477468  
C    4.6744451   -4.8936717   -2.8743917  
C    3.6456508   -4.2898372   -2.2369745  
O    3.3592195   -4.4696588   -0.9363353  
C    2.7248488   -3.3530635   -2.9460154  
O    1.8094437   -2.8394282   -2.3030285  
C    2.9316266   -3.0707050   -4.3776027  
H    4.0945365   -3.1042200   -7.1945765  
H    5.3438094   -5.5723237   -2.3661664  
H    2.5776411   -3.9108546   -0.7750097  
H    6.2020694   -4.7582747   -7.1496094  
C    0.8681109    0.7263879    2.2709268  
C    0.6127770    0.5096195    3.5869401  
C   -0.4920590   -0.4175482    3.6542670  
C   -0.8620974   -0.7254003    2.2596025  
N    0.0000000    0.0000000    1.4700000  
C   -1.8641242   -1.5660088    1.8976294  
C   -2.6293522   -2.2103885    2.9520183  
O   -3.5512764   -2.9839180    2.7283916  
C   -2.2549728   -1.8987399    4.4361073  
O   -2.8923672   -2.4351063    5.3323774  
C   -1.1543735   -0.9755647    4.7012123  
H    1.1382914    0.9492124    4.4159191  
H   -2.1192137   -1.7782617    0.8686553  
H   -0.9013378   -0.7652422    5.7314848  
H    1.6172880    1.3558399    1.8188057  
