58

C   -3.2798046    0.0054509   -1.4499642  
C   -2.5571120    0.0041500   -2.5996549  
C   -1.1637428    0.0019872   -2.2210358  
C   -1.1336953    0.0021067   -0.7459469  
N   -2.4483475    0.0046491   -0.3402715  
C    0.0000000    0.0000000    0.0000000  
C    1.2757350   -0.0023293   -0.6964420  
O    2.3524552   -0.0042658   -0.1142322  
C    1.2676465   -0.0022457   -2.2584087  
O    2.3355726   -0.0038885   -2.8557301  
C   -0.0181574   -0.0001424   -2.9516298  
H   -2.9547328    0.0048308   -3.5989098  
H   -0.0150811   -0.0003039   -4.0331628  
H   -2.7563605    0.0037907    0.6148065  
C   -5.6664742    0.0100053   -2.2646990  
C   -4.7390790    0.0077610   -1.2727272  
C   -5.4604893    0.0083757   -0.0219662  
C   -6.8944734    0.0111529   -0.3690582  
N   -6.9515001    0.0124260   -1.7436984  
C   -7.9048511    0.0120817    0.5369443  
C   -7.5567461    0.0104478    1.9480984  
O   -8.3942722    0.0111707    2.8407629  
C   -6.0443560    0.0077530    2.3385774  
O   -5.7391025    0.0066672    3.5235166  
C   -5.0461736    0.0066844    1.2720494  
H   -8.9502693    0.0139963    0.2612495  
H   -4.0011807    0.0046121    1.5508139  
H   -5.5192793    0.0103115   -3.3325112  
C   -8.4109053   -0.6919052   -3.6760696  
C   -8.1892418    0.0129642   -2.5367281  
C   -9.3959127    0.7560318   -2.2599055  
C  -10.3455616    0.4238843   -3.3390880  
N   -9.6872672   -0.4579605   -4.1648530  
C  -11.6032006    0.9242352   -3.4375673  
C  -12.0513089    1.8519696   -2.4123635  
O  -13.1662269    2.3572007   -2.4125433  
C  -11.0621326    2.2180540   -1.2602703  
O  -11.4281196    2.9983027   -0.3916362  
C   -9.7320752    1.6140694   -1.2614550  
H  -12.2839809    0.6675303   -4.2372863  
H   -9.0532530    1.8725819   -0.4601459  
H   -7.7491447   -1.3624172   -4.1998789  
H  -10.0750808   -0.8698833   -4.9936883  
C    0.8400945    0.7047457    2.2710304  
C    0.0000000    0.0000000    1.4700000  
C   -0.8844236   -0.7423113    2.3369512  
C   -0.4878984   -0.4098547    3.7186280  
N    0.5629682    0.4714286    3.6095011  
C   -1.0836927   -0.9095027    4.8308716  
C   -2.1891196   -1.8367527    4.6554461  
O   -2.7906899   -2.3413415    5.5944904  
C   -2.6257283   -2.2031529    3.2011665  
O   -3.5549479   -2.9829990    3.0410059  
C   -1.9068976   -1.5999348    2.0816745  
H   -0.7774656   -0.6525820    5.8354244  
H   -2.2155208   -1.8586617    1.0779135  
H    1.6384792    1.3747609    1.9961646  
H    1.0518368    0.8833920    4.3830260  
