58

C    0.0000000    0.0000000    0.0000000  
C    0.5729351    0.8848835   -0.8560385  
C    0.2773216    0.4283856   -2.1935953  
C   -0.5205440   -0.8038029   -2.0455735  
N   -0.6529141   -1.0090268   -0.6915974  
C   -0.9976652   -1.5398906   -3.0810616  
C   -0.7057045   -1.0885420   -4.4314611  
O   -1.0906628   -1.6824801   -5.4301328  
C    0.1378057    0.2136830   -4.6117572  
O    0.3901967    0.6032796   -5.7439117  
C    0.5962380    0.9213646   -3.4189125  
H    1.1382912    1.7576823   -0.5817976  
H   -1.5811171   -2.4407235   -2.9507074  
H   -1.1492664   -1.7729047   -0.2706800  
C    4.0777602    2.3622646   -1.2302353  
C    4.3479695    3.5288336   -1.8608563  
C    3.3343742    3.6376660   -2.8987771  
C    2.5130398    2.4174313   -2.7470486  
N    2.9439671    1.6659927   -1.7705081  
C    1.3890724    2.1458695   -3.6002995  
C    1.0985777    3.0523124   -4.5611884  
O    0.0787140    2.9271883   -5.4273657  
C    1.9083060    4.2936030   -4.7392316  
O    1.5864712    5.0745107   -5.6346787  
C    3.0564246    4.5494427   -3.8513721  
H    0.1279848    3.7243796   -5.9852281  
H    3.6175139    5.4601159   -4.0128766  
H    4.6031160    1.9194625   -0.3990309  
C    8.5559726    2.9367795   -0.7538251  
C    8.9437620    4.2334749   -0.6430308  
C    7.7881931    5.0455707   -0.9430248  
C    6.6874922    4.1089877   -1.2397745  
N    7.2184023    2.8465754   -1.1080964  
C    5.4260492    4.4849302   -1.5701281  
C    5.1329431    5.9068992   -1.6381599  
O    4.0274998    6.3460626   -1.9270050  
C    6.2835840    6.9166692   -1.3280051  
O    6.0488079    8.1163276   -1.3824186  
C    7.6021338    6.3908957   -0.9832732  
H    9.9271418    4.5813795   -0.3812255  
H    8.3933384    7.0966676   -0.7697191  
H    9.1348516    2.0394846   -0.6066838  
H    6.7116816    1.9914247   -1.2459319  
C    1.0965515   -0.0001358    2.2710304  
C    0.0000000    0.0000000    1.4700000  
C   -1.1546562   -0.0001469    2.3369512  
C   -0.6372014   -0.0003519    3.7186280  
N    0.7342871   -0.0007337    3.6095011  
C   -1.4147739   -0.0001353    4.8308716  
C   -2.8576048    0.0001048    4.6554461  
O   -3.6427778    0.0002493    5.5944904  
C   -3.4275839    0.0000726    3.2011665  
O   -4.6406829   -0.0000333    3.0410059  
C   -2.4891866    0.0001091    2.0816745  
H   -1.0150448   -0.0001615    5.8354244  
H   -2.8919121    0.0002919    1.0779135  
H    2.1388271   -0.0000662    1.9961646  
H    1.3735872    0.0006099    4.3830260  
