60

C   -3.3041232    0.0042829   -1.5420452  
C   -2.5845340    0.0039202   -0.3695870  
C   -1.2039992    0.0016043   -0.7283597  
C   -1.1422357    0.0009174   -2.1454381  
N   -2.4348635    0.0006318   -2.6077479  
C    0.0655195   -0.0009673   -2.8497916  
C    1.2321773   -0.0018738   -2.1101388  
O    2.4392807   -0.0033637   -2.7472500  
C    1.1911203   -0.0015857   -0.6955256  
O    2.4371508   -0.0030140   -0.1032845  
C    0.0000000    0.0000000    0.0000000  
H   -3.0031509    0.0040659    0.6222562  
H   -2.7054484    0.0107130   -3.5745279  
H    0.1193552   -0.0016437   -3.9297472  
H    3.1132975   -0.0040819   -2.0551762  
H    2.3200262   -0.0026829    0.8516425  
C   -4.7577174    0.0058236   -1.7610493  
C   -5.7612528    0.0086530   -0.8461813  
C   -7.0028575    0.0090202   -1.5832383  
C   -6.6377917    0.0061232   -3.0127520  
N   -5.2625437    0.0046814   -3.0525169  
C   -7.5310382    0.0051584   -4.0344236  
C   -8.9464506    0.0073294   -3.7040626  
O   -9.8285309    0.0067417   -4.5527289  
C   -9.3558838    0.0106636   -2.1966943  
O  -10.5445603    0.0128181   -1.9063422  
C   -8.3019718    0.0111520   -1.1852005  
H   -5.6449977    0.0104776    0.2229749  
H   -7.2422423    0.0028950   -5.0762976  
H   -4.7106083    0.0010891   -3.8906112  
C   -8.6986626    0.0140199    0.2302598  
C   -7.8968374    0.0149723    1.3205140  
C   -8.8069851    0.0179325    2.4554685  
C  -10.1565036    0.0185367    1.8509984  
N  -10.0993482    0.0161705    0.5468832  
C  -11.3492140    0.0212348    2.6525717  
C  -11.2005175    0.0228494    3.9969012  
O  -12.2260125    0.0254192    4.8654607  
C   -9.8520247    0.0219226    4.6369986  
O   -9.7918207    0.0236241    5.8664669  
C   -8.6437865    0.0191894    3.7931516  
H   -6.8206607    0.0137195    1.3508152  
H  -12.3225952    0.0218246    2.1841282  
H  -11.8062883    0.0260103    5.7446558  
H   -7.6856813    0.0184794    4.2954107  
C    0.0000000    0.0000000    1.4700000  
C    1.0541688    0.0001722    2.3260392  
C    0.5103138    0.0000454    3.6635956  
C   -0.9576371   -0.0002459    3.5155732  
N   -1.2018458    0.0001392    2.1615969  
C   -1.8348311   -0.0008317    4.5510609  
C   -1.2972847   -0.0009736    5.9014604  
O   -2.0050672   -0.0014265    6.9001319  
C    0.2542623   -0.0004184    6.0817573  
O    0.7184670   -0.0002256    7.2139121  
C    1.0974552   -0.0000873    4.8889129  
H    2.0940752    0.0005483    2.0517982  
H   -2.9081052   -0.0011668    4.4207061  
H    2.1707277    0.0000911    5.0223670  
H   -2.1128194   -0.0014912    1.7406791  
