58

C    0.0562974    0.2038165   -8.8869372  
C    1.0745890   -0.4540759   -9.4987655  
C    1.0455225   -0.0730995  -10.8911909  
C   -0.0812353    0.8674409  -11.0414964  
N   -0.6397333    0.9925440   -9.7903693  
C   -0.4408011    1.4560268  -12.2102490  
C    0.3334940    1.1420618  -13.3995484  
O    0.0888687    1.6207689  -14.4992283  
C    1.5309165    0.1483274  -13.2636220  
O    2.1898922   -0.1238361  -14.2580768  
C    1.8216022   -0.4218772  -11.9505262  
H    1.7669482   -1.1293409   -9.0283730  
H   -1.2707139    2.1432681  -12.2988733  
H    2.6524740   -1.1089248  -11.8648471  
H   -1.4298647    1.5696479   -9.5674538  
C    1.7371420   -2.0043749   -5.5274506  
C    0.9346265   -1.6238671   -4.5062936  
C   -0.0220099   -0.7047839   -5.1034811  
C    0.3601279   -0.6444240   -6.5306852  
N    1.3906154   -1.4042326   -6.7851963  
C   -0.3537176    0.1694996   -7.4756927  
C   -1.4019189    0.8900579   -7.0159054  
O   -2.1569104    1.6919661   -7.7859522  
C   -1.8124079    0.8499980   -5.5813134  
O   -2.7762301    1.5318137   -5.2328955  
C   -1.0641734    0.0073898   -4.6315339  
H    0.9854830   -1.9292388   -3.4751598  
H   -2.8200953    2.0664814   -7.1784361  
H    2.5747581   -2.6829132   -5.4964945  
C    1.1319248    0.0015675   -0.8009270  
C    0.7969916    0.0034959   -2.1169404  
C   -0.6453336    0.0035703   -2.1842672  
C   -1.1266831    0.0015415   -0.7896027  
N    0.0000000    0.0000000    0.0000000  
C   -2.4346129    0.0013924   -0.4276297  
C   -3.4350110    0.0031352   -1.4820184  
O   -4.6384610    0.0030897   -1.2583919  
C   -2.9478958    0.0050460   -2.9661075  
O   -3.7809377    0.0062160   -3.8623775  
C   -1.5113821    0.0053068   -3.2312125  
H    1.4821240    0.0045436   -2.9459192  
H   -2.7664565    0.0000185    0.6013447  
H    2.1104318    0.0009428   -0.3488058  
C    2.5128556    2.1077716    2.9199648  
C    1.9592212    1.6432552    4.0696553  
C    0.8915788    0.7479214    3.6910360  
C    0.8684491    0.7287414    2.2159470  
N    1.8754542    1.5738793    1.8102719  
C    0.0000000    0.0000000    1.4700000  
C   -0.9772830   -0.8200135    2.1664417  
O   -1.8021297   -1.5120829    1.5842315  
C   -0.9711318   -0.8147624    3.7284083  
O   -1.7894187   -1.5009653    4.3257297  
C    0.0140216    0.0115358    4.4216297  
H    2.2638494    1.8988021    5.0689105  
H    0.0117648    0.0094386    5.5031631  
H    3.3327358    2.7953732    2.7900019  
H    2.1123206    1.7707734    0.8551938  
