58

C    7.9719829    0.7286174   -4.3633630  
C    8.5386754    0.5128832   -5.5784327  
C    9.6282073   -0.4128314   -5.3764256  
C    9.6499530   -0.7209579   -3.9337285  
N    8.6213209    0.0029129   -3.3762192  
C   10.5356664   -1.5604757   -3.3400726  
C   11.5343158   -2.2033079   -4.1779277  
O   12.3757181   -2.9757752   -3.7378830  
C   11.5300083   -1.8913427   -5.7084384  
O   12.3661928   -2.4264099   -6.4238102  
C   10.5250857   -0.9694366   -6.2319591  
H    8.2289252    0.9522470   -6.5098977  
H   10.5342995   -1.7729537   -2.2799969  
H   10.5287620   -0.7588855   -7.2927976  
H    7.1347596    1.3568660   -4.1059705  
C    4.7390840    0.0009613   -1.2727298  
C    5.7159780    0.0017137   -2.2159966  
C    6.9782049    0.0017419   -1.5148417  
C    6.6542736    0.0009092   -0.0754467  
N    5.2807306    0.0008646    0.0037337  
C    7.5764457    0.0002870    0.9201955  
C    8.9818048    0.0006743    0.5493866  
O    9.8878556    0.0002336    1.3724144  
C    9.3478544    0.0018078   -0.9691032  
O   10.5277193    0.0024491   -1.2934190  
C    8.2653746    0.0021236   -1.9499649  
H    5.5691178    0.0023766   -3.2813817  
H    7.3176385   -0.0004497    1.9699235  
H    4.7530492   -0.0011857    0.8573115  
C    3.2798077    0.0005856   -1.4499661  
C    2.5571132    0.0005565   -2.5996564  
C    1.1637425    0.0001547   -2.2210366  
C    1.1336959   -0.0000200   -0.7459475  
N    2.4483509   -0.0001429   -0.3402730  
C    0.0000000    0.0000000    0.0000000  
C   -1.2757370   -0.0000187   -0.6964411  
O   -2.3524597   -0.0000640   -0.1142306  
C   -1.2676502   -0.0000874   -2.2584078  
O   -2.3355774   -0.0004102   -2.8557287  
C    0.0181551    0.0001758   -2.9516297  
H    2.9547342    0.0006074   -3.5989118  
H    0.0150776    0.0003317   -4.0331632  
H    2.7563626    0.0012823    0.6148051  
C    0.8681109    0.7263879    2.2709268  
C    0.6127770    0.5096195    3.5869401  
C   -0.4920590   -0.4175482    3.6542670  
C   -0.8620974   -0.7254003    2.2596025  
N    0.0000000    0.0000000    1.4700000  
C   -1.8641242   -1.5660088    1.8976294  
C   -2.6293522   -2.2103885    2.9520183  
O   -3.5512764   -2.9839180    2.7283916  
C   -2.2549728   -1.8987399    4.4361073  
O   -2.8923672   -2.4351063    5.3323774  
C   -1.1543735   -0.9755647    4.7012123  
H    1.1382914    0.9492124    4.4159191  
H   -2.1192137   -1.7782617    0.8686553  
H   -0.9013378   -0.7652422    5.7314848  
H    1.6172880    1.3558399    1.8188057  
