60

C   -3.3003562   -0.0019863   -1.4738947  
C   -2.5232848   -0.0014650   -2.6090718  
C   -1.1623235   -0.0003819   -2.1820087  
C   -1.1711899   -0.0005760   -0.7636127  
N   -2.4852317    0.0003935   -0.3662329  
C    0.0000000    0.0000000    0.0000000  
C    1.2020371    0.0004793   -0.6806495  
O    2.3759233    0.0007007    0.0157714  
C    1.2314617    0.0010554   -2.0955526  
O    2.5054344    0.0019110   -2.6250211  
C    0.0764466    0.0007609   -2.8495197  
H   -2.8920006   -0.0007164   -3.6205269  
H   -2.8036222   -0.0100573    0.5858694  
H    3.0835619    0.0013281   -0.6418857  
H    2.4359992    0.0022293   -3.5845950  
H    0.1304040    0.0013996   -3.9319089  
C   -6.5908010   -0.0033253   -4.4182797  
C   -5.3731532   -0.0027736   -3.8171071  
C   -5.6071082   -0.0027888   -2.3922911  
C   -7.0713668   -0.0034283   -2.2113599  
N   -7.6095243   -0.0033309   -3.4775655  
C   -7.6973079   -0.0040281   -1.0072411  
C   -6.8738974   -0.0038186    0.1904780  
O   -7.3427959   -0.0042545    1.3211567  
C   -5.3209694   -0.0028912    0.0224952  
O   -4.6174375   -0.0024009    1.0236459  
C   -4.7630518   -0.0025808   -1.3275345  
H   -4.4198650   -0.0022162   -4.3149569  
H   -8.7727866   -0.0046216   -0.8965353  
H   -6.8296483   -0.0035115   -5.4693944  
C  -10.2110022   -2.0220235   -6.4811691  
C   -9.1163055   -1.6377699   -5.7843418  
C   -9.6183741   -0.7202971   -4.7730699  
C  -11.0767293   -0.6648715   -5.0112133  
N  -11.4300123   -1.4259516   -6.0111820  
C  -11.9487061    0.1461783   -4.2068869  
C  -11.3892720    0.8687028   -3.2097279  
O  -12.0830212    1.6683396   -2.3818792  
C   -9.9208108    0.8336136   -2.9441111  
O   -9.4804623    1.5169881   -2.0198206  
C   -9.0474131   -0.0061189   -3.7831288  
H   -8.0943353   -1.9397095   -5.9375880  
H  -13.0106907    0.1678011   -4.4034377  
H  -11.4137593    2.0451592   -1.7825052  
H  -10.2613090   -2.7007991   -7.3176535  
C    2.5128556    2.1077716    2.9199648  
C    1.9592212    1.6432552    4.0696553  
C    0.8915788    0.7479214    3.6910360  
C    0.8684491    0.7287414    2.2159470  
N    1.8754542    1.5738793    1.8102719  
C    0.0000000    0.0000000    1.4700000  
C   -0.9772830   -0.8200135    2.1664417  
O   -1.8021297   -1.5120829    1.5842315  
C   -0.9711318   -0.8147624    3.7284083  
O   -1.7894187   -1.5009653    4.3257297  
C    0.0140216    0.0115358    4.4216297  
H    2.2638494    1.8988021    5.0689105  
H    0.0117648    0.0094386    5.5031631  
H    3.3327358    2.7953732    2.7900019  
H    2.1123206    1.7707734    0.8551938  
