58

C    5.8540543   -0.7231598    3.1542636  
C    5.6419424   -0.5058864    4.4778474  
C    6.6567268    0.4211270    4.9202215  
C    7.4833400    0.7283381    3.7373761  
N    6.9446511    0.0027517    2.6999616  
C    8.5489842    1.5686308    3.7412818  
C    8.9057316    2.2133226    4.9941339  
O    9.8486121    2.9866073    5.1004824  
C    8.0443287    1.9023532    6.2594751  
O    8.3352919    2.4389868    7.3199582  
C    6.9193519    0.9794697    6.1307657  
H    4.8635536   -0.9450477    5.0760634  
H    9.1420170    1.7804135    2.8624360  
H    6.3278030    0.7696174    7.0115356  
H    5.3055390   -1.3526763    2.4725522  
C    4.7795901    0.0008674   -1.0815733  
C    5.7862015    0.0008770   -1.9861793  
C    7.0047289    0.0013409   -1.1913895  
C    6.5351378    0.0016825    0.2107760  
N    5.2316823    0.0013264    0.2814340  
C    7.4495164    0.0021404    1.3193780  
C    8.7728604    0.0018632    1.0399218  
O    9.7375503    0.0022374    1.9755576  
C    9.2780074    0.0011447   -0.3647085  
O   10.4956959    0.0010500   -0.5448630  
C    8.3200394    0.0007288   -1.4846285  
H    5.7111080    0.0005128   -3.0601606  
H   10.5714816    0.0018715    1.4718618  
H    8.7261888    0.0000952   -2.4872616  
C    3.3321168    0.0004716   -1.3379341  
C    2.6974177    0.0000118   -2.5332316  
C    1.2800432   -0.0002116   -2.2052842  
C    1.2395033    0.0000644   -0.7271298  
N    2.4394059    0.0005460   -0.2131041  
C    0.0000000    0.0000000    0.0000000  
C   -1.1468704    0.0000635   -0.7169542  
O   -2.3742206    0.0000074   -0.1695488  
C   -1.1388774    0.0001608   -2.2096352  
O   -2.2206238    0.0000906   -2.7970409  
C    0.1454514    0.0001818   -2.9324241  
H    3.1367978   -0.0000649   -3.5160956  
H   -2.9844350    0.0001027   -0.9290164  
H    0.1083567    0.0003684   -4.0135594  
C    0.0000000    0.0000000    1.4700000  
C    1.0541688    0.0001722    2.3260392  
C    0.5103138    0.0000454    3.6635956  
C   -0.9576371   -0.0002459    3.5155732  
N   -1.2018458    0.0001392    2.1615969  
C   -1.8348311   -0.0008317    4.5510609  
C   -1.2972847   -0.0009736    5.9014604  
O   -2.0050672   -0.0014265    6.9001319  
C    0.2542623   -0.0004184    6.0817573  
O    0.7184670   -0.0002256    7.2139121  
C    1.0974552   -0.0000873    4.8889129  
H    2.0940752    0.0005483    2.0517982  
H   -2.9081052   -0.0011668    4.4207061  
H    2.1707277    0.0000911    5.0223670  
H   -2.1128194   -0.0014912    1.7406791  
