58

C    5.1685593   -4.3196138   -3.5738584  
C    4.1892899   -3.4995825   -4.0350035  
C    4.2424562   -3.5498728   -5.4770438  
C    5.3408286   -4.4730635   -5.8206814  
N    5.8615685   -4.9048571   -4.6226520  
C    5.7113630   -4.7895419   -7.0872716  
C    4.9796801   -4.1800749   -8.1853273  
O    5.2372117   -4.4012278   -9.3613667  
C    3.8128587   -3.1991246   -7.8446352  
O    3.1898458   -2.6796945   -8.7607728  
C    3.5067131   -2.9364728   -6.4406617  
H    3.5076190   -2.9248919   -3.4336144  
H    6.5199677   -5.4692515   -7.3176229  
H    5.4424134   -4.5454715   -2.5560752  
H    6.6258596   -5.5478249   -4.5251977  
C    2.4064707   -2.0119089   -6.1315522  
C    1.9558554   -1.6301628   -4.9138516  
C    0.8614677   -0.7121811   -5.1897589  
C    0.7870647   -0.6537478   -6.6654397  
N    1.6902162   -1.4136452   -7.2229896  
C   -0.1829361    0.1586444   -7.3467641  
C   -1.0399141    0.8795786   -6.5883597  
O   -1.9953657    1.6801932   -7.0905249  
C   -0.9902402    0.8414484   -5.0969715  
O   -1.8010677    1.5235041   -4.4704098  
C    0.0139741    0.0003876   -4.4216236  
H    2.3209548   -1.9340559   -3.9477113  
H   -0.2145021    0.1824686   -8.4262756  
H   -2.4403313    2.0553964   -6.3092559  
C    3.2798085    0.0005853   -1.4499648  
C    2.5571144    0.0005562   -2.5996554  
C    1.1637436    0.0001546   -2.2210360  
C    1.1336965   -0.0000201   -0.7459470  
N    2.4483513   -0.0001430   -0.3402717  
C    0.0000000    0.0000000    0.0000000  
C   -1.2757367   -0.0000188   -0.6964414  
O   -2.3524597   -0.0000640   -0.1142313  
C   -1.2676494   -0.0000875   -2.2584081  
O   -2.3355762   -0.0004102   -2.8557294  
C    0.0181562    0.0001757   -2.9516296  
H    2.9547357    0.0006072   -3.5989105  
H    4.3498550    0.0008609   -1.3200021  
H    2.7563627    0.0012824    0.6148063  
C    0.0000000    0.0000000    1.4700000  
C    1.0662921    0.0000102    2.3034270  
C    0.4961870   -0.0000064    3.6418889  
C   -0.9663858    0.0000850    3.4240247  
N   -1.2632773    0.0000084    2.1528658  
C   -1.8985362    0.0000517    4.5177257  
C   -1.3925775   -0.0004564    5.7720543  
O   -2.1456383   -0.0005410    6.8851312  
C    0.0786232   -0.0009323    6.0245000  
O    0.4683759   -0.0012588    7.1921102  
C    1.0143166   -0.0008442    4.8859032  
H    2.1107198   -0.0000632    2.0421868  
H   -2.9622183    0.0003270    4.3293377  
H   -1.5042274   -0.0009692    7.6184419  
H    2.0724152   -0.0013148    5.1109744  
