58

C    2.5263060    0.0005353   -8.0873975  
C    3.5375541    0.0007967   -7.1810574  
C    4.7728736    0.0001917   -7.9286011  
C    4.3957139   -0.0004189   -9.3549745  
N    3.0201783   -0.0005744   -9.3830935  
C    5.2802768   -0.0006930  -10.3841746  
C    6.6984377   -0.0005910  -10.0658084  
O    7.5732993   -0.0008785  -10.9219142  
C    7.1206228   -0.0001998   -8.5619592  
O    8.3117161   -0.0004173   -8.2816798  
C    6.0753131    0.0003521   -7.5415762  
H    3.4303580    0.0011678   -6.1109539  
H    4.9826675   -0.0010110  -11.4235671  
H    6.3759836    0.0008259   -6.5026728  
H    2.4611632    0.0005903  -10.2164890  
C    0.0950448    0.0004350   -4.4015596  
C    1.1192393    0.0002597   -5.2932436  
C    0.5298386    0.0006950   -6.6113645  
C   -0.9321731    0.0011707   -6.4130916  
N   -1.1298097    0.0005870   -5.0515376  
C   -1.8443588    0.0020606   -7.4178909  
C   -1.3534348    0.0023586   -8.7859287  
O   -2.0950458    0.0030849   -9.7597423  
C    0.1910172    0.0016126   -9.0193235  
O    0.6161266    0.0015487  -10.1667301  
C    1.0746177    0.0009552   -7.8560944  
H    2.1679381   -0.0003125   -5.0548232  
H   -2.9125319    0.0025267   -7.2508092  
H   -2.0258137    0.0022750   -4.5996293  
C    3.3321173    0.0004714   -1.3379336  
C    2.6974184    0.0000115   -2.5332313  
C    1.2800437   -0.0002119   -2.2052840  
C    1.2395034    0.0000643   -0.7271298  
N    2.4394063    0.0005459   -0.2131037  
C    0.0000000    0.0000000    0.0000000  
C   -1.1468702    0.0000634   -0.7169544  
O   -2.3742202    0.0000072   -0.1695489  
C   -1.1388770    0.0001606   -2.2096356  
O   -2.2206231    0.0000903   -2.7970412  
C    0.1454523    0.0001814   -2.9324241  
H    3.1367986   -0.0000653   -3.5160949  
H   -2.9844345    0.0001025   -0.9290168  
H    4.3940040    0.0007618   -1.1498638  
C    2.5128556    2.1077716    2.9199648  
C    1.9592212    1.6432552    4.0696553  
C    0.8915788    0.7479214    3.6910360  
C    0.8684491    0.7287414    2.2159470  
N    1.8754542    1.5738793    1.8102719  
C    0.0000000    0.0000000    1.4700000  
C   -0.9772830   -0.8200135    2.1664417  
O   -1.8021297   -1.5120829    1.5842315  
C   -0.9711318   -0.8147624    3.7284083  
O   -1.7894187   -1.5009653    4.3257297  
C    0.0140216    0.0115358    4.4216297  
H    2.2638494    1.8988021    5.0689105  
H    0.0117648    0.0094386    5.5031631  
H    3.3327358    2.7953732    2.7900019  
H    2.1123206    1.7707734    0.8551938  
