58

C    6.8806480   -2.1182901   -6.6322255  
C    7.9445793   -2.9609519   -6.5869811  
C    8.5130812   -2.9928441   -7.9138662  
C    7.6872388   -2.0932158   -8.7417811  
N    6.7147329   -1.5952154   -7.9056486  
C    7.8998489   -1.8501090  -10.0598863  
C    9.0164487   -2.5193261  -10.7063303  
O    9.2904569   -2.3659815  -11.8894210  
C    9.9041474   -3.4766293   -9.8487958  
O   10.8468600   -4.0458639  -10.3822050  
C    9.5758873   -3.6583354   -8.4370316  
H    8.2914273   -3.4989520   -5.7227667  
H    7.2822186   -1.1864588  -10.6489623  
H   10.1955561   -4.3226774   -7.8501889  
H    5.9964449   -0.9495098   -8.1779983  
C    5.9676386   -2.1403208   -4.2647271  
C    5.9574583   -1.7327295   -5.5552103  
C    4.8270665   -0.8220467   -5.6520095  
C    4.2518649   -0.7958519   -4.2900103  
N    4.9163000   -1.5666197   -3.4724335  
C    3.1006054    0.0006263   -3.9654951  
C    2.5492761    0.7377400   -4.9564709  
O    1.4731213    1.5264225   -4.7955008  
C    3.1069016    0.7327484   -6.3410975  
O    2.5539563    1.4279021   -7.1932905  
C    4.2884408   -0.0925702   -6.6488933  
H    1.3195669    1.9186832   -5.6739683  
H    4.6618646   -0.0685372   -7.6638847  
H    6.6542204   -2.8225237   -3.7891469  
C    3.2798083    0.0005857   -1.4499652  
C    2.5571142    0.0005565   -2.5996556  
C    1.1637432    0.0001548   -2.2210361  
C    1.1336964   -0.0000200   -0.7459473  
N    2.4483512   -0.0001428   -0.3402723  
C    0.0000000    0.0000000    0.0000000  
C   -1.2757368   -0.0000186   -0.6964415  
O   -2.3524598   -0.0000639   -0.1142311  
C   -1.2676497   -0.0000872   -2.2584083  
O   -2.3355766   -0.0004101   -2.8557295  
C    0.0181558    0.0001758   -2.9516296  
H    0.0150788    0.0003319   -4.0331631  
H    4.3498547    0.0008612   -1.3200026  
H    2.7563626    0.0012823    0.6148059  
C    2.3971438    2.0127888    3.1728260  
C    1.9431056    1.6308205    1.9564670  
C    0.8496017    0.7127664    2.2356185  
C    0.7794028    0.6545384    3.7115134  
N    1.6840587    1.4146091    4.2663826  
C   -0.1885723   -0.1578550    4.3957118  
C   -1.0476298   -0.8789867    3.6398520  
O   -2.0015663   -1.6796266    4.1448486  
C   -1.0022026   -0.8410666    2.1483229  
O   -1.8147390   -1.5232959    1.5241687  
C    0.0000000    0.0000000    1.4700000  
H    2.3054237    1.9346118    0.9892483  
H   -0.2170646   -0.1815267    5.4753125  
H   -2.4487139   -2.0549881    3.3649027  
H    3.2048689    2.6911772    3.3971983  
