62

C    1.1188644    0.0008221   -0.8003803  
C    0.0000000    0.0000000    0.0000000  
C   -1.1323861    0.0008897   -0.8673528  
C   -0.6382656    0.0019677   -2.1969279  
N    0.7324021    0.0038481   -2.1202232  
C   -1.4770906    0.0027314   -3.3154809  
C   -2.8395466    0.0020937   -3.0876859  
O   -3.7039194    0.0024420   -4.1440356  
C   -3.3517866    0.0013925   -1.7684332  
O   -4.7300489    0.0012359   -1.7073127  
C   -2.5248544    0.0009119   -0.6644817  
H    1.3576319   -0.0056169   -2.9057036  
H   -4.5940025    0.0021821   -3.7685136  
H   -4.9934594    0.0007257   -0.7819926  
H   -2.9462580    0.0005599    0.3339654  
H    2.1619891    0.0009355   -0.5342062  
C    1.9333069   -2.1182742   -5.2802152  
C    1.0133392   -1.6572494   -4.3672080  
C    0.1426192   -0.7691972   -5.0656420  
C    0.5838560   -0.7277675   -6.4130547  
N    1.6740004   -1.5566761   -6.5085133  
C   -0.0442372    0.0493812   -7.3909745  
C   -1.1378606    0.7981155   -7.0016641  
O   -1.7887534    1.5744842   -7.9163248  
C   -1.5929370    0.7702827   -5.6619077  
O   -2.6929646    1.5704861   -5.4317836  
C   -0.9736286    0.0040459   -4.6965760  
H    0.9752628   -1.9268941   -3.3256537  
H    0.2872442    0.0854147   -8.4195773  
H   -2.5111337    2.0069652   -7.4426248  
H   -2.9358037    1.4942139   -4.5039822  
H    2.7547995   -2.8021592   -5.1521112  
C    3.4425265   -5.2383273   -8.1860685  
C    2.7964146   -4.3364812   -7.4029412  
C    2.8944791   -3.0571973   -8.0652485  
C    3.6561213   -3.2893388   -9.3073441  
N    3.9589600   -4.6313513   -9.3208010  
C    3.9622972   -2.3260728  -10.2129266  
C    3.5118030   -0.9701475   -9.9463614  
O    3.7372914   -0.0329221  -10.7007259  
C    2.7038452   -0.7013591   -8.6368721  
O    2.3195794    0.4362884   -8.4015877  
C    2.4354514   -1.8209803   -7.7378370  
H    2.3071300   -4.5437206   -6.4679194  
H    4.5219843   -2.5175222  -11.1179166  
H    3.5850431   -6.2952552   -8.0295997  
H    4.4738868   -5.0983373  -10.0445556  
C    2.5128556    2.1077716    2.9199648  
C    1.9592212    1.6432552    4.0696553  
C    0.8915788    0.7479214    3.6910360  
C    0.8684491    0.7287414    2.2159470  
N    1.8754542    1.5738793    1.8102719  
C    0.0000000    0.0000000    1.4700000  
C   -0.9772830   -0.8200135    2.1664417  
O   -1.8021297   -1.5120829    1.5842315  
C   -0.9711318   -0.8147624    3.7284083  
O   -1.7894187   -1.5009653    4.3257297  
C    0.0140216    0.0115358    4.4216297  
H    2.2638494    1.8988021    5.0689105  
H    0.0117648    0.0094386    5.5031631  
H    3.3327358    2.7953732    2.7900019  
H    2.1123206    1.7707734    0.8551938  
