64

C   -3.3000858   -0.0420369   -1.4739007  
C   -2.5230754   -0.0320855   -2.6090763  
C   -1.1622279   -0.0144870   -2.1820107  
C   -1.1710945   -0.0147886   -0.7636148  
N   -2.4850515   -0.0297654   -0.3662375  
C    0.0000000    0.0000000    0.0000000  
C    1.2019447    0.0150663   -0.6806468  
O    2.3757414    0.0295330    0.0157761  
C    1.2313639    0.0159994   -2.0955502  
O    2.5052322    0.0323149   -2.6250163  
C    0.0764385    0.0016885   -2.8495194  
H   -2.8917711   -0.0358114   -3.6205317  
H   -2.8032936   -0.0440792    0.5858646  
H    3.0833215    0.0387477   -0.6418798  
H    2.4358009    0.0317906   -3.5845906  
H    0.1303849    0.0029820   -3.9319085  
C   -6.6258339   -0.0865808   -4.4617214  
C   -5.3876554   -0.0710046   -3.8624401  
C   -5.6072001   -0.0720491   -2.4530434  
C   -7.0109863   -0.0889966   -2.2504990  
N   -7.5996604   -0.0955262   -3.4906752  
C   -7.5915647   -0.0949249   -0.9786176  
C   -6.7395037   -0.0838442    0.1086024  
O   -7.2532385   -0.0893285    1.3731419  
C   -5.3361135   -0.0665118   -0.0730925  
O   -4.6228244   -0.0566848    1.1077829  
C   -4.7626664   -0.0603814   -1.3275431  
H   -4.4424937   -0.0591112   -4.3777273  
H   -8.6607173   -0.1076821   -0.8175253  
H   -6.4975622   -0.0794284    1.9749050  
H   -3.6843739   -0.0451938    0.8961654  
H   -6.8913822   -0.0905719   -5.5049985  
C   -9.6718235   -0.8635540   -4.7246772  
C   -9.0473048   -0.1282708   -3.7439621  
C  -10.0669731    0.5798539   -3.0415123  
C  -11.3039715    0.2339386   -3.6432632  
N  -11.0278235   -0.6426034   -4.6630837  
C  -12.5281033    0.7479643   -3.2050096  
C  -12.5030661    1.6269713   -2.1396941  
O  -13.6697153    2.1584605   -1.6712265  
C  -11.2788475    1.9845748   -1.5263209  
O  -11.4202154    2.8703825   -0.4781303  
C  -10.0708069    1.4780734   -1.9583174  
H  -11.7108174   -1.0686266   -5.2630868  
H  -13.4743089    0.4883963   -3.6594564  
H  -13.4300867    2.7378798   -0.9363004  
H  -10.5475338    3.0596592   -0.1200734  
H   -9.1491992    1.7705000   -1.4688236  
H   -9.2571493   -1.5270139   -5.4641538  
C    0.8400945    0.7047457    2.2710304  
C    0.0000000    0.0000000    1.4700000  
C   -0.8844236   -0.7423113    2.3369512  
C   -0.4878984   -0.4098547    3.7186280  
N    0.5629682    0.4714286    3.6095011  
C   -1.0836927   -0.9095027    4.8308716  
C   -2.1891196   -1.8367527    4.6554461  
O   -2.7906899   -2.3413415    5.5944904  
C   -2.6257283   -2.2031529    3.2011665  
O   -3.5549479   -2.9829990    3.0410059  
C   -1.9068976   -1.5999348    2.0816745  
H   -0.7774656   -0.6525820    5.8354244  
H   -2.2155208   -1.8586617    1.0779135  
H    1.6384792    1.3747609    1.9961646  
H    1.0518368    0.8833920    4.3830260  
