58

C    4.1609149   -0.7148456   -9.0112389  
C    4.8761953   -0.7111032  -10.1655505  
C    4.8565379    0.6421834  -10.6686060  
C    4.0655251    1.4322180   -9.7058313  
N    3.6725643    0.5509951   -8.7250566  
C    3.8138637    2.7605013   -9.8242958  
C    4.3582273    3.4585608  -10.9770826  
O    4.1871885    4.6545943  -11.1734275  
C    5.1987619    2.6416478  -12.0095353  
O    5.6619160    3.2185039  -12.9842082  
C    5.4020855    1.2144672  -11.7735969  
H    5.3619794   -1.5595642  -10.6135920  
H    3.2312814    3.3212937   -9.1066479  
H    5.9854063    0.6560684  -12.4930781  
H    3.9492768   -1.5358880   -8.3456656  
C    3.9135206   -0.7081242   -4.5250692  
C    2.8699641   -0.0020530   -4.0185824  
C    2.2916402    0.7390435   -5.1145539  
C    3.0895148    0.4044295   -6.3096354  
N    4.0568591   -0.4768161   -5.8847344  
C    2.8606216    0.9024528   -7.5511207  
C    1.7547623    1.8301061   -7.7216207  
O    1.4676786    2.3333351   -8.7998801  
C    0.8966364    2.1987794   -6.4696198  
O   -0.0368096    2.9789838   -6.6008460  
C    1.2404685    1.5971818   -5.1836525  
H    0.6412574    1.8574786   -4.3217272  
H    4.5900518   -1.3778175   -4.0193959  
H    4.7576402   -0.8900200   -6.4722854  
C    3.2573670   -0.0002921   -1.5109382  
C    2.5379468   -0.0001711   -0.3591962  
C    1.1435043    0.0000330   -0.7338498  
C    1.1092608   -0.0000085   -2.2088474  
N    2.4227562    0.0001906   -2.6182610  
C   -0.0265533   -0.0002525   -2.9515663  
C   -1.3003033   -0.0002641   -2.2514979  
O   -2.3786785   -0.0004132   -2.8306425  
C   -1.2877724    0.0000310   -0.6895608  
O   -2.3539956    0.0003306   -0.0892035  
C    0.0000000    0.0000000    0.0000000  
H    2.9384091   -0.0000370    0.6389240  
H   -0.0296290   -0.0004088   -4.0327231  
H    4.3270394   -0.0004767   -1.6439445  
C    0.8175213    0.6860729    2.3021913  
C    0.0000000    0.0000000    1.4700000  
C   -0.8887526   -0.7456559    2.3478473  
C   -0.4549825   -0.3816753    3.7138435  
N    0.5448156    0.4573574    3.6934124  
C   -1.0945674   -0.9182058    4.8835240  
C   -2.1210866   -1.7789155    4.6970523  
O   -2.8083856   -2.3554314    5.6976972  
C   -2.5824069   -2.1655116    3.3310774  
O   -3.5227682   -2.9541547    3.2362962  
C   -1.9100805   -1.6015804    2.1470656  
H   -0.7567140   -0.6349833    5.8697035  
H   -3.4728268   -2.9124471    5.2533954  
H   -2.2742832   -1.9066565    1.1752040  
H    1.6189533    1.3585343    2.0405121  
