58

C   -3.9876871    0.7052803   -1.9724716  
C   -3.2941072    0.0012877   -2.9038239  
C   -4.2617030   -0.7397006   -3.6781175  
C   -5.5853415   -0.4072884   -3.1175169  
N   -5.3499113    0.4727083   -2.0864649  
C   -6.7615309   -0.9058816   -3.5754343  
C   -6.7210836   -1.8318683   -4.6950092  
O   -7.7260358   -2.3354490   -5.1795490  
C   -5.3302200   -2.1981989   -5.3041936  
O   -5.2836143   -2.9769868   -6.2468373  
C   -4.1319540   -1.5961844   -4.7248928  
H   -3.1728427   -1.8548546   -5.1525834  
H   -3.6182638    1.3742587   -1.2122847  
H   -6.0586652    0.8843287   -1.5074279  
C    0.0000000    0.0000000    0.0000000  
C    1.0541689   -0.0001720   -0.8560391  
C    0.5103137   -0.0000453   -2.1935958  
C   -0.9576369    0.0002463   -2.0455729  
N   -1.2018460   -0.0001389   -0.6915970  
C   -1.8348311    0.0008320   -3.0810608  
C   -1.2972847    0.0009741   -4.4314602  
O   -2.0050673    0.0014271   -5.4301316  
C    0.2542620    0.0004189   -4.6117571  
O    0.7184668    0.0002261   -5.7439123  
C    1.0974554    0.0000878   -3.4189128  
H    2.0940754   -0.0005482   -0.5817983  
H    2.1707279   -0.0000909   -3.5523674  
H   -2.1128195    0.0014915   -0.2706788  
C   -8.4397577    2.8957167   -2.0828405  
C   -7.6309171    1.9388680   -2.6065705  
C   -8.3785109    0.7036255   -2.5959349  
C   -9.6986709    1.0215512   -2.0189678  
N   -9.6713581    2.3661238   -1.7286782  
C  -10.6963452    0.1194491   -1.8385161  
C  -10.4536335   -1.2564732   -2.2390944  
O  -11.2889105   -2.1429112   -2.1172759  
C   -9.0626332   -1.6157257   -2.8521707  
O   -8.8466141   -2.7709466   -3.1928475  
C   -8.0670487   -0.5566324   -2.9970321  
H   -6.6252703    2.0819968   -2.9598442  
H  -11.6574988    0.3734266   -1.4135567  
H   -8.2396524    3.9431545   -1.9256088  
H  -10.4300378    2.8834733   -1.3239526  
C    1.0672568    0.0000697    2.3021913  
C    0.0000000    0.0000000    1.4700000  
C   -1.1601224    0.0000736    2.3478473  
C   -0.5938729    0.0000769    3.7138435  
N    0.7113367    0.0001554    3.6934124  
C   -1.4286986    0.0001879    4.8835240  
C   -2.7683114    0.0006799    4.6970523  
O   -3.6653903    0.0008304    5.6976972  
C   -3.3702025    0.0010610    3.3310774  
O   -4.5974910    0.0013779    3.2362962  
C   -2.4926826    0.0008943    2.1470656  
H   -0.9878360   -0.0000190    5.8697035  
H   -4.5324246    0.0012261    5.2533954  
H   -2.9677772    0.0012974    1.1752040  
H    2.1134392    0.0000545    2.0405121  
