58

C    4.3280524   -3.5868933   -5.6508431  
C    3.5218373   -2.9372290   -6.5294953  
C    3.9410731   -3.3290050   -7.8544820  
C    5.0656615   -4.2669148   -7.6744397  
N    5.2505414   -4.3803396   -6.3158213  
C    5.7395122   -4.8634333   -8.6902132  
C    5.3299649   -4.5613920  -10.0516748  
O    5.8739925   -5.0478785  -11.0343565  
C    4.1415366   -3.5706388  -10.2658082  
O    3.7880060   -3.3084845  -11.4075403  
C    3.4932876   -2.9911400   -9.0920091  
H    6.5616209   -5.5485639   -8.5364554  
H    2.6710843   -2.3062282   -9.2488611  
H    4.3260370   -3.5526150   -4.5734805  
H    5.9468870   -4.9530295   -5.8751656  
C    2.4320882   -2.0124030   -6.1859205  
C    2.0200837   -1.6305796   -4.9546439  
C    0.9177872   -0.7123209   -5.1959807  
C    0.7970290   -0.6538285   -6.6685907  
N    1.6820128   -1.4139329   -7.2542818  
C   -0.1937174    0.1588212   -7.3190579  
C   -1.0262436    0.8799454   -6.5340644  
O   -1.9968167    1.6808089   -7.0059188  
C   -0.9297033    0.8417617   -5.0449767  
O   -1.7202575    1.5239995   -4.3932128  
C    0.0950446    0.0004351   -4.4015596  
H    2.4153101   -1.9345894   -4.0004689  
H   -0.2592098    0.1826830   -8.3970423  
H   -2.4169006    2.0561000   -6.2110357  
C    3.3321173    0.0004713   -1.3379338  
C    2.6974181    0.0000116   -2.5332314  
C    1.2800438   -0.0002119   -2.2052841  
C    1.2395034    0.0000643   -0.7271299  
N    2.4394062    0.0005460   -0.2131038  
C    0.0000000    0.0000000    0.0000000  
C   -1.1468702    0.0000634   -0.7169543  
O   -2.3742203    0.0000074   -0.1695487  
C   -1.1388770    0.0001607   -2.2096355  
O   -2.2206234    0.0000905   -2.7970411  
C    0.1454522    0.0001815   -2.9324241  
H    3.1367984   -0.0000653   -3.5160950  
H   -2.9844346    0.0001026   -0.9290167  
H    4.3940038    0.0007618   -1.1498640  
C    0.8400945    0.7047457    2.2710304  
C    0.0000000    0.0000000    1.4700000  
C   -0.8844236   -0.7423113    2.3369512  
C   -0.4878984   -0.4098547    3.7186280  
N    0.5629682    0.4714286    3.6095011  
C   -1.0836927   -0.9095027    4.8308716  
C   -2.1891196   -1.8367527    4.6554461  
O   -2.7906899   -2.3413415    5.5944904  
C   -2.6257283   -2.2031529    3.2011665  
O   -3.5549479   -2.9829990    3.0410059  
C   -1.9068976   -1.5999348    2.0816745  
H   -0.7774656   -0.6525820    5.8354244  
H   -2.2155208   -1.8586617    1.0779135  
H    1.6384792    1.3747609    1.9961646  
H    1.0518368    0.8833920    4.3830260  
