60

C    2.1473375   -2.0926199   -5.9901677  
C    1.6357181   -1.6303826   -4.8202715  
C    0.5546356   -0.7348949   -5.1582028  
C    0.4777943   -0.7131856   -6.6314352  
N    1.4702310   -1.5565182   -7.0749998  
C   -0.4180461    0.0158273   -7.3439762  
C   -1.3699446    0.8338316   -6.6109729  
O   -2.2161079    1.5260620   -7.1615425  
C   -1.3065946    0.8262731   -5.0502888  
O   -2.1027135    1.5112426   -4.4223778  
C   -0.2963289   -0.0005348   -4.3948470  
H    1.9768484   -1.8872557   -3.8332256  
H   -0.4575768    0.0175016   -8.4244137  
H    2.9621990   -2.7796376   -6.1510954  
H    1.6703713   -1.7538860   -8.0383468  
C    3.1301148   -0.0010315   -1.7028253  
C    2.5367766   -0.0002767   -0.4864666  
C    1.1089903    0.0001025   -0.7656183  
C    1.0177867   -0.0004153   -2.2415131  
N    2.1993574   -0.0011616   -2.7963821  
C   -0.2459218   -0.0002884   -2.9257117  
C   -1.3675324   -0.0000610   -2.1698519  
O   -2.6129318    0.0000862   -2.6748483  
C   -1.3083588    0.0000908   -0.6783229  
O   -2.3693264    0.0004202   -0.0541688  
C    0.0000000    0.0000000    0.0000000  
H    3.0096015   -0.0001006    0.4807520  
H   -3.1967441    0.0002093   -1.8949029  
C    6.8847531   -0.0023788    0.6986597  
C    5.5715638   -0.0012906    0.3713792  
C    5.5475441   -0.0015355   -1.0832421  
C    6.9721653   -0.0027421   -1.4795212  
N    7.7607274   -0.0033215   -0.4392522  
C    7.3784663   -0.0033623   -2.8579280  
C    6.4057878   -0.0031913   -3.7977314  
O    6.6406177   -0.0037051   -5.1209456  
C    4.9592100   -0.0023551   -3.4295283  
O    4.1279719   -0.0021192   -4.3374180  
C    4.5679459   -0.0016858   -2.0086704  
H    4.7238863   -0.0005185    1.0350946  
H    8.4267351   -0.0040367   -3.1187792  
H    5.7562729   -0.0034397   -5.5297086  
H    7.3236776   -0.0025892    1.6837078  
C    0.0000000    0.0000000    1.4700000  
C    1.0521667    0.0011902    2.3562342  
C    0.4917218    0.0011957    3.6679131  
C   -0.9187428   -0.0003148    3.5178682  
N   -1.1833171    0.0009411    2.1707914  
C   -1.7951701   -0.0010350    4.6072090  
C   -1.2375837   -0.0005224    5.8710424  
O   -2.0474215   -0.0015360    6.9697579  
C    0.1673580    0.0013566    6.0411963  
O    0.5673524    0.0020687    7.3615553  
C    1.0325770    0.0023412    4.9669890  
H    2.0953057    0.0030649    2.0900562  
H   -2.0989778   -0.0102372    1.7591824  
H   -2.8710934   -0.0020419    4.4995513  
H   -1.4634884   -0.0006497    7.7393593  
H    1.5290710    0.0033153    7.3880045  
H    2.1042148    0.0039609    5.1284455  
