62

C    3.3003547    0.0005275   -1.4738980  
C    2.5232816    0.0003495   -2.6090742  
C    1.1623206   -0.0001320   -2.1820096  
C    1.1711889    0.0000583   -0.7636136  
N    2.4852300   -0.0014920   -0.3662353  
C    0.0000000    0.0000000    0.0000000  
C   -1.2020382    0.0000519   -0.6806479  
O   -2.3759247    0.0003494    0.0157745  
C   -1.2314650   -0.0005113   -2.0955508  
O   -2.5054383   -0.0008037   -2.6250181  
C   -0.0764510   -0.0007273   -2.8495192  
H    2.8919962   -0.0005621   -3.6205295  
H    2.8036265    0.0088181    0.5858667  
H   -3.0835641    0.0000347   -0.6418820  
H   -2.4360047   -0.0011529   -3.5845921  
C    5.6629511   -0.0164394   -2.3673672  
C    6.9417950   -0.0276367   -1.8605133  
C    6.8262885   -0.0188866   -0.4388308  
C    5.4411301   -0.0025424   -0.1338823  
N    4.7630506    0.0004754   -1.3275394  
C    4.9554564    0.0092547    1.1771367  
C    5.8850238    0.0041584    2.1989272  
O    5.4654670    0.0148221    3.4977244  
C    7.2713270   -0.0117224    1.9147999  
O    8.0693761   -0.0145362    3.0401682  
C    7.7511738   -0.0230936    0.6216857  
H    7.8466234   -0.0394206   -2.4437276  
H    3.9009935    0.0218758    1.4162031  
H    6.2632887    0.0091679    4.0424383  
H    8.9897851   -0.0255550    2.7602965  
H    8.8186392   -0.0349826    0.4349970  
H    5.3215478   -0.0177349   -3.3883477  
C   -0.1496409   -0.0015614   -4.3176961  
C    0.8605992   -0.0020607   -5.2251594  
C    0.2508230   -0.0027747   -6.5339786  
C   -1.2079374   -0.0026205   -6.3130523  
N   -1.3844299   -0.0022740   -4.9485963  
C   -2.1355994   -0.0027543   -7.3035806  
C   -1.6659548   -0.0032977   -8.6790687  
O   -2.4225823   -0.0035181   -9.6412628  
C   -0.1253088   -0.0037216   -8.9363927  
O    0.2819513   -0.0044870  -10.0902551  
C    0.7762289   -0.0032489   -7.7870091  
H    1.9128700   -0.0021246   -5.0030339  
H   -3.2010522   -0.0025068   -7.1199508  
H    1.8415257   -0.0033414   -7.9737350  
H   -2.2733171   -0.0005419   -4.4828448  
C    0.8175213    0.6860729    2.3021913  
C    0.0000000    0.0000000    1.4700000  
C   -0.8887526   -0.7456559    2.3478473  
C   -0.4549825   -0.3816753    3.7138435  
N    0.5448156    0.4573574    3.6934124  
C   -1.0945674   -0.9182058    4.8835240  
C   -2.1210866   -1.7789155    4.6970523  
O   -2.8083856   -2.3554314    5.6976972  
C   -2.5824069   -2.1655116    3.3310774  
O   -3.5227682   -2.9541547    3.2362962  
C   -1.9100805   -1.6015804    2.1470656  
H   -0.7567140   -0.6349833    5.8697035  
H   -3.4728268   -2.9124471    5.2533954  
H   -2.2742832   -1.9066565    1.1752040  
H    1.6189533    1.3585343    2.0405121  
