58

C    0.9857760   -0.0077417   -8.7876914  
C    2.0727623   -0.6825371   -9.2428713  
C    2.2347253   -0.3305851  -10.6338186  
C    1.1452005    0.6113444  -10.9539684  
N    0.4236976    0.7648795   -9.7926110  
C    0.9509371    1.1769168  -12.1722019  
C    1.8765816    0.8349449  -13.2393369  
O    1.7861038    1.2916216  -14.3713964  
C    3.0376921   -0.1607634  -12.9228071  
O    3.8230476   -0.4563916  -13.8133579  
C    3.1443381   -0.7046566  -11.5712681  
H    2.6904942   -1.3507437   -8.6697045  
H    0.1454269    1.8656433  -12.3860221  
H    3.9511977   -1.3932551  -11.3602396  
H   -0.3852518    1.3498282   -9.6902222  
C    2.0577022   -2.1067621   -5.0538573  
C    2.0213370   -1.6421659   -6.3293585  
C    0.8918566   -0.7471757   -6.4193649  
C    0.2687258   -0.7282841   -5.0821507  
N    1.0227496   -1.5732442   -4.3008819  
C   -0.8287665    0.0000939   -4.7555305  
C   -1.4369815    0.8199926   -5.7901200  
O   -2.4278330    1.5117412   -5.5951879  
C   -0.7938991    0.8150424   -7.2135759  
O   -1.2973732    1.5011518   -8.0927957  
C    0.3886479   -0.0108729   -7.4444391  
H    2.7073333   -1.8974440   -7.1173025  
H    2.7533683   -2.7941806   -4.6006523  
H    0.8492696   -1.7702611   -3.3323078  
C    1.0672569   -0.0000698   -0.8321910  
C    0.0000000    0.0000000    0.0000000  
C   -1.1601223   -0.0000736   -0.8778472  
C   -0.5938729   -0.0000768   -2.2438435  
N    0.7113367   -0.0001553   -2.2234123  
C   -1.4286985   -0.0001877   -3.4135239  
C   -2.7683113   -0.0006798   -3.2270524  
O   -3.6653902   -0.0008302   -4.2276970  
C   -3.3702024   -0.0010610   -1.8610774  
O   -4.5974910   -0.0013779   -1.7662963  
C   -2.4926825   -0.0008943   -0.6770658  
H   -4.5324245   -0.0012258   -3.7833954  
H   -2.9677772   -0.0012974    0.2947961  
H    2.1134391   -0.0000547   -0.5705119  
C    2.5128556    2.1077716    2.9199648  
C    1.9592212    1.6432552    4.0696553  
C    0.8915788    0.7479214    3.6910360  
C    0.8684491    0.7287414    2.2159470  
N    1.8754542    1.5738793    1.8102719  
C    0.0000000    0.0000000    1.4700000  
C   -0.9772830   -0.8200135    2.1664417  
O   -1.8021297   -1.5120829    1.5842315  
C   -0.9711318   -0.8147624    3.7284083  
O   -1.7894187   -1.5009653    4.3257297  
C    0.0140216    0.0115358    4.4216297  
H    2.2638494    1.8988021    5.0689105  
H    0.0117648    0.0094386    5.5031631  
H    3.3327358    2.7953732    2.7900019  
H    2.1123206    1.7707734    0.8551938  
