58

C    3.9404948   -0.7293556   -4.5163115  
C    4.0976527   -0.5146864   -5.8479622  
C    3.0657856    0.4119867   -6.2496620  
C    2.2890370    0.7218361   -5.0341601  
N    2.8699640   -0.0020532   -4.0185825  
C    1.2244920    1.5626418   -4.9954966  
C    0.8163866    2.2051407   -6.2337135  
O   -0.1297731    2.9786848   -6.3023652  
C    1.6244750    1.8913596   -7.5330744  
O    1.2900273    2.4261317   -8.5816083  
C    2.7534400    0.9681704   -7.4493442  
H    0.6684828    1.7763748   -4.0932320  
H    3.3078881    0.7563649   -8.3534737  
H    4.5165357   -1.3578517   -3.8567213  
C    3.2573669   -0.0002920   -1.5109380  
C    2.5379466   -0.0001708   -0.3591961  
C    1.1435042    0.0000330   -0.7338502  
C    1.1092605   -0.0000086   -2.2088474  
N    2.4227561    0.0001905   -2.6182611  
C   -0.0265534   -0.0002528   -2.9515662  
C   -1.3003036   -0.0002642   -2.2514981  
O   -2.3786785   -0.0004138   -2.8306424  
C   -1.2877727    0.0000310   -0.6895608  
O   -2.3539955    0.0003305   -0.0892036  
C    0.0000000    0.0000000    0.0000000  
H    2.9384091   -0.0000368    0.6389240  
H   -0.0296294   -0.0004092   -4.0327231  
H    4.3270392   -0.0004765   -1.6439446  
C    5.8207200   -4.5756610   -6.0375801  
C    5.0948784   -3.4765803   -5.7070491  
C    5.5127207   -2.4145035   -6.5914900  
C    6.5489007   -2.9890476   -7.4707057  
N    6.6891579   -4.3017276   -7.0832929  
C    7.1952109   -2.3033532   -8.4473382  
C    6.8472181   -0.9061726   -8.6456343  
O    7.3727004   -0.2034970   -9.4991069  
C    5.7527862   -0.2770096   -7.7257549  
O    5.4516647    0.8984969   -7.8831465  
C    5.1265464   -1.1170219   -6.7078869  
H    4.3517135   -3.4166463   -4.9319832  
H    7.9521757   -2.7437204   -9.0813669  
H    5.7944255   -5.5626450   -5.6050745  
H    7.3231361   -4.9599665   -7.4978303  
C    0.0000000    0.0000000    1.4700000  
C    1.0662921    0.0000102    2.3034270  
C    0.4961870   -0.0000064    3.6418889  
C   -0.9663858    0.0000850    3.4240247  
N   -1.2632773    0.0000084    2.1528658  
C   -1.8985362    0.0000517    4.5177257  
C   -1.3925775   -0.0004564    5.7720543  
O   -2.1456383   -0.0005410    6.8851312  
C    0.0786232   -0.0009323    6.0245000  
O    0.4683759   -0.0012588    7.1921102  
C    1.0143166   -0.0008442    4.8859032  
H    2.1107198   -0.0000632    2.0421868  
H   -2.9622183    0.0003270    4.3293377  
H   -1.5042274   -0.0009692    7.6184419  
H    2.0724152   -0.0013148    5.1109744  
