64

C   -4.5382360    2.1274890   -0.3187874  
C   -3.4269604    1.6643334   -0.9843851  
C   -3.8900485    0.7769749   -2.0006253  
C   -5.3047950    0.7381441   -1.9062260  
N   -5.6653098    1.5678667   -0.8736531  
C   -6.0984770   -0.0376822   -2.7564911  
C   -5.4522277   -0.7877417   -3.7197927  
O   -6.1789762   -1.5629116   -4.5765088  
C   -4.0415022   -0.7625028   -3.8294926  
O   -3.5480074   -1.5637590   -4.8383502  
C   -3.2578655    0.0024282   -2.9908505  
H   -2.4078385    1.9321496   -0.7637973  
H   -6.6070984    1.7501466   -0.5773600  
H   -5.5421678   -1.9966430   -5.1592752  
H   -2.5888325   -1.4892402   -4.8442641  
H   -4.6159715    2.8116397    0.5087710  
C   -9.1698388    3.1192713   -1.9883488  
C   -7.9857455    2.4480981   -2.1881419  
C   -8.3157994    1.0780303   -2.4085470  
C   -9.7281763    0.9725119   -2.3311844  
N  -10.2152882    2.2297697   -2.0730342  
C  -10.4064732   -0.2383575   -2.4999932  
C   -9.6451358   -1.3631446   -2.7517820  
O  -10.2563918   -2.5711876   -2.9250220  
C   -8.2347761   -1.2781481   -2.8322729  
O   -7.6188681   -2.4857665   -3.0885104  
C   -7.5649325   -0.0839759   -2.6655750  
H   -7.0047029    2.8912524   -2.1753771  
H  -11.1858359    2.4673348   -1.9751484  
H  -11.4826994   -0.3254581   -2.4420852  
H   -9.5524156   -3.2127103   -3.0866716  
H   -6.6686155   -2.3403924   -3.1271213  
H   -9.3512730    4.1618561   -1.7907185  
C    0.0000000    0.0000000    0.0000000  
C    1.0521666   -0.0011982   -0.8862343  
C    0.4917215   -0.0011996   -2.1979132  
C   -0.9187429    0.0003215   -2.0478682  
N   -1.1833171   -0.0009323   -0.7007913  
C   -1.7951703    0.0010483   -3.1372089  
C   -1.2375841    0.0005313   -4.4010422  
O   -2.0474218    0.0015510   -5.4997578  
C    0.1673576   -0.0013585   -4.5711963  
O    0.5673520   -0.0020735   -5.8915554  
C    1.0325768   -0.0023493   -3.4969892  
H    2.0953056   -0.0030808   -0.6200564  
H   -2.0989778    0.0102529   -0.2891822  
H   -1.4634888    0.0006601   -6.2693595  
H    1.5290707   -0.0033271   -5.9180047  
H    2.1042146   -0.0039770   -3.6584456  
C    3.2798086   -0.0005857    2.9199648  
C    2.5571146   -0.0005566    4.0696553  
C    1.1637436   -0.0001548    3.6910360  
C    1.1336965    0.0000200    2.2159470  
N    2.4483514    0.0001428    1.8102719  
C    0.0000000    0.0000000    1.4700000  
C   -1.2757367    0.0000186    2.1664417  
O   -2.3524596    0.0000640    1.5842315  
C   -1.2676493    0.0000873    3.7284083  
O   -2.3355761    0.0004100    4.3257297  
C    0.0181563   -0.0001760    4.4216297  
H    2.9547357   -0.0006076    5.0689105  
H    0.0150794   -0.0003319    5.5031631  
H    4.3498549   -0.0008612    2.7900019  
H    2.7563627   -0.0012824    0.8551938  
