58

C    4.7958796   -0.0599117   -8.0281473  
C    5.8552484   -0.7173144   -8.5663241  
C    5.9229050   -0.3385981   -9.9580255  
C    4.8081386    0.6000821  -10.1881692  
N    4.1635403    0.7263753   -8.9792727  
C    4.5302204    1.1862889  -11.3801538  
C    5.3860253    0.8715426  -12.5119978  
O    5.2180939    1.3481457  -13.6268735  
C    6.5723581   -0.1202529  -12.2911786  
O    7.2994740   -0.3930530  -13.2367697  
C    6.7714681   -0.6879474  -10.9600400  
H    6.5139905   -1.3908339   -8.0476308  
H    3.7076064    1.8721953  -11.5276275  
H    7.5952440   -1.3736637  -10.8154367  
H    3.3590185    1.3026979   -8.8130042  
C    5.9676386   -2.1403205   -4.2647281  
C    5.9574583   -1.7327294   -5.5552103  
C    4.8270664   -0.8220463   -5.6520101  
C    4.2518651   -0.7958517   -4.2900113  
N    4.9163000   -1.5666196   -3.4724335  
C    3.1006054    0.0006263   -3.9654951  
C    2.5492762    0.7377402   -4.9564714  
O    1.4731211    1.5264225   -4.7955004  
C    3.1069015    0.7327486   -6.3410976  
O    2.5539561    1.4279025   -7.1932906  
C    4.2884409   -0.0925699   -6.6488938  
H    6.6335874   -2.0151073   -6.3439990  
H    1.3195668    1.9186834   -5.6739683  
H    6.6542206   -2.8225236   -3.7891473  
C    3.2798083    0.0005857   -1.4499652  
C    2.5571142    0.0005565   -2.5996556  
C    1.1637432    0.0001548   -2.2210361  
C    1.1336964   -0.0000200   -0.7459473  
N    2.4483512   -0.0001428   -0.3402723  
C    0.0000000    0.0000000    0.0000000  
C   -1.2757368   -0.0000186   -0.6964415  
O   -2.3524598   -0.0000639   -0.1142311  
C   -1.2676497   -0.0000872   -2.2584083  
O   -2.3355766   -0.0004101   -2.8557295  
C    0.0181558    0.0001758   -2.9516296  
H    0.0150788    0.0003319   -4.0331631  
H    4.3498547    0.0008612   -1.3200026  
H    2.7563626    0.0012823    0.6148059  
C    2.3971438    2.0127888    3.1728260  
C    1.9431056    1.6308205    1.9564670  
C    0.8496017    0.7127664    2.2356185  
C    0.7794028    0.6545384    3.7115134  
N    1.6840587    1.4146091    4.2663826  
C   -0.1885723   -0.1578550    4.3957118  
C   -1.0476298   -0.8789867    3.6398520  
O   -2.0015663   -1.6796266    4.1448486  
C   -1.0022026   -0.8410666    2.1483229  
O   -1.8147390   -1.5232959    1.5241687  
C    0.0000000    0.0000000    1.4700000  
H    2.3054237    1.9346118    0.9892483  
H   -0.2170646   -0.1815267    5.4753125  
H   -2.4487139   -2.0549881    3.3649027  
H    3.2048689    2.6911772    3.3971983  
