60

C    3.3003545    0.0005278   -1.4738990  
C    2.5232811    0.0003501   -2.6090748  
C    1.1623201   -0.0001316   -2.1820103  
C    1.1711885    0.0000584   -0.7636139  
N    2.4852301   -0.0014918   -0.3662354  
C    0.0000000    0.0000000    0.0000000  
C   -1.2020382    0.0000521   -0.6806474  
O   -2.3759248    0.0003495    0.0157751  
C   -1.2314658   -0.0005109   -2.0955506  
O   -2.5054388   -0.0008033   -2.6250176  
C   -0.0764518   -0.0007268   -2.8495194  
H    2.8919955   -0.0005615   -3.6205301  
H    2.8036267    0.0088180    0.5858660  
H   -3.0835639    0.0000349   -0.6418815  
H   -2.4360047   -0.0011523   -3.5845918  
H    4.3715547    0.0004897   -1.3667132  
C   -0.1496417   -0.0015607   -4.3176960  
C    0.8605984   -0.0020136   -5.2251594  
C    0.2508224   -0.0027513   -6.5339785  
C   -1.2079382   -0.0026611   -6.3130517  
N   -1.3844308   -0.0023257   -4.9485959  
C   -2.1356004   -0.0028332   -7.3035804  
C   -1.6659559   -0.0033528   -8.6790693  
O   -2.4225834   -0.0036039   -9.6412618  
C   -0.1253098   -0.0037089   -8.9363920  
O    0.2819500   -0.0044537  -10.0902551  
C    0.7762279   -0.0031995   -7.7870091  
H    1.9128694   -0.0020322   -5.0030341  
H    1.8415248   -0.0032451   -7.9737351  
H   -2.2733179   -0.0006336   -4.4828447  
C   -4.2308545    0.7025786   -6.0901929  
C   -3.5842424   -0.0025605   -7.0539081  
C   -4.5889115   -0.7449687   -7.7779977  
C   -5.8831214   -0.4121403   -7.1526684  
N   -5.5969778    0.4694289   -6.1358857  
C   -7.0804645   -0.9117556   -7.5507382  
C   -7.0954628   -1.8393602   -8.6696036  
O   -8.1231047   -2.3439501   -9.1027804  
C   -5.7365171   -2.2061573   -9.3467539  
O   -5.7366111   -2.9863039  -10.2894272  
C   -4.5111204   -1.6029375   -8.8287004  
H   -8.0183764   -0.6545593   -7.0784233  
H   -3.5743958   -1.8619405   -9.3032402  
H   -3.8242911    1.3727753   -5.3503064  
H   -6.2761774    0.8816783   -5.5228717  
C    0.8400945    0.7047457    2.2710304  
C    0.0000000    0.0000000    1.4700000  
C   -0.8844236   -0.7423113    2.3369512  
C   -0.4878984   -0.4098547    3.7186280  
N    0.5629682    0.4714286    3.6095011  
C   -1.0836927   -0.9095027    4.8308716  
C   -2.1891196   -1.8367527    4.6554461  
O   -2.7906899   -2.3413415    5.5944904  
C   -2.6257283   -2.2031529    3.2011665  
O   -3.5549479   -2.9829990    3.0410059  
C   -1.9068976   -1.5999348    2.0816745  
H   -0.7774656   -0.6525820    5.8354244  
H   -2.2155208   -1.8586617    1.0779135  
H    1.6384792    1.3747609    1.9961646  
H    1.0518368    0.8833920    4.3830260  
