60

C   -1.1036577    0.2149000   -0.7919005  
C   -0.7370180    0.1263823   -2.1148551  
C    0.6603606   -0.1586160   -2.1414705  
C    1.0956081   -0.2335182   -0.7935553  
N    0.0000000    0.0000000    0.0000000  
C    2.4219217   -0.5004679   -0.4408238  
C    3.3252509   -0.6956555   -1.4675061  
O    4.6329886   -0.9598538   -1.1793472  
C    2.9102609   -0.6245410   -2.8186325  
O    3.9277282   -0.8414095   -3.7247626  
C    1.6020371   -0.3609613   -3.1673484  
H   -1.3954850    0.2528809   -2.9571209  
H    2.7600341   -0.5587304    0.5845971  
H    5.0844978   -1.0605767   -2.0274390  
H    3.5632731   -0.7759735   -4.6127346  
H   -2.0648150    0.4157414   -0.3505407  
C    1.2110792   -0.2951505   -4.5828766  
C   -0.0161122   -0.0497932   -5.0980274  
C    0.1655320   -0.1011160   -6.5405501  
C    1.6027315   -0.3961304   -6.7249610  
N    2.2207661   -0.5110384   -5.5809250  
C    2.1908854   -0.5290631   -8.0293729  
C    1.3800550   -0.3746921   -9.1008482  
O    1.7941598   -0.4718668  -10.3756484  
C   -0.0745550   -0.0768228   -8.9474073  
O   -0.7527009    0.0511718   -9.9667000  
C   -0.6540986    0.0548447   -7.5988094  
H   -0.9315671    0.1422090   -4.5649662  
H    0.9941798   -0.3143162  -10.9089048  
H   -1.7118625    0.2708967   -7.5303509  
C    3.6241413   -0.8225776   -8.1726470  
C    4.5406639   -0.9994843   -7.1927143  
C    5.7901051   -1.2611116   -7.8905305  
C    5.4351127   -1.2033163   -9.3248334  
N    4.1668056   -0.9465095   -9.4964033  
C    6.4106260   -1.4124953  -10.3590979  
C    7.6830186   -1.6674250   -9.9778317  
O    8.6948897   -1.8821838  -10.8357580  
C    8.0726454   -1.7318331   -8.5383172  
O    9.2491239   -1.9684828   -8.2642443  
C    7.0536932   -1.5137784   -7.4961500  
H    4.3877681   -0.9575223   -6.1278490  
H    6.1232158   -1.3646887  -11.3993001  
H    9.4724738   -2.0344923  -10.2689091  
H    7.3763642   -1.5686633   -6.4650820  
C    0.0000000    0.0000000    1.4700000  
C    1.0541688    0.0001722    2.3260392  
C    0.5103138    0.0000454    3.6635956  
C   -0.9576371   -0.0002459    3.5155732  
N   -1.2018458    0.0001392    2.1615969  
C   -1.8348311   -0.0008317    4.5510609  
C   -1.2972847   -0.0009736    5.9014604  
O   -2.0050672   -0.0014265    6.9001319  
C    0.2542623   -0.0004184    6.0817573  
O    0.7184670   -0.0002256    7.2139121  
C    1.0974552   -0.0000873    4.8889129  
H    2.0940752    0.0005483    2.0517982  
H   -2.9081052   -0.0011668    4.4207061  
H    2.1707277    0.0000911    5.0223670  
H   -2.1128194   -0.0014912    1.7406791  
