58

C    8.8767183    0.0032714   -4.0131856  
C    9.6237664    0.0050013   -2.8791703  
C   11.0087449    0.0061018   -3.2874209  
C   11.0073264    0.0048918   -4.7628147  
N    9.6843207    0.0027962   -5.1403583  
C   12.1248561    0.0058153   -5.5327714  
C   13.4151547    0.0079313   -4.8636968  
O   14.4792143    0.0088361   -5.4687388  
C   13.4403801    0.0089892   -3.3019134  
O   14.5208038    0.0104638   -2.7275044  
C   12.1696533    0.0081164   -2.5814265  
H    9.2475480    0.0052723   -1.8716626  
H   12.1017976    0.0050284   -6.6136863  
H   12.1957947    0.0090634   -1.5002052  
H    9.3560087    0.0031332   -6.0886507  
C    5.5868526   -0.0000801   -1.0681557  
C    6.8043821    0.0011457   -1.6695671  
C    6.5701481    0.0006875   -3.0943372  
C    5.1058548   -0.0008880   -3.2749812  
N    4.5679461   -0.0016854   -2.0086701  
C    4.4796776   -0.0013316   -4.4789774  
C    5.3028527   -0.0004068   -5.6768576  
O    4.8337325   -0.0007721   -6.8074447  
C    6.8558133    0.0010129   -5.5091795  
O    7.5591489    0.0014936   -6.5104681  
C    7.4139952    0.0016562   -4.1592592  
H    7.7577676    0.0020630   -1.1719040  
H    3.4041775   -0.0023631   -4.5894723  
H    5.3482113   -0.0001626   -0.0169941  
C    3.1301149   -0.0010311   -1.7028252  
C    2.5367768   -0.0002767   -0.4864665  
C    1.1089904    0.0001028   -0.7656183  
C    1.0177872   -0.0004148   -2.2415132  
N    2.1993578   -0.0011611   -2.7963820  
C   -0.2459209   -0.0002877   -2.9257118  
C   -1.3675319   -0.0000605   -2.1698524  
O   -2.6129313    0.0000867   -2.6748490  
C   -1.3083584    0.0000910   -0.6783232  
O   -2.3693261    0.0004206   -0.0541692  
C    0.0000000    0.0000000    0.0000000  
H    3.0096017   -0.0001007    0.4807525  
H   -0.2829630   -0.0004687   -4.0053125  
H   -3.1967441    0.0002094   -1.8949034  
C    2.5128556    2.1077716    2.9199648  
C    1.9592212    1.6432552    4.0696553  
C    0.8915788    0.7479214    3.6910360  
C    0.8684491    0.7287414    2.2159470  
N    1.8754542    1.5738793    1.8102719  
C    0.0000000    0.0000000    1.4700000  
C   -0.9772830   -0.8200135    2.1664417  
O   -1.8021297   -1.5120829    1.5842315  
C   -0.9711318   -0.8147624    3.7284083  
O   -1.7894187   -1.5009653    4.3257297  
C    0.0140216    0.0115358    4.4216297  
H    2.2638494    1.8988021    5.0689105  
H    0.0117648    0.0094386    5.5031631  
H    3.3327358    2.7953732    2.7900019  
H    2.1123206    1.7707734    0.8551938  
