58

C    4.3047788   -2.1086498   -1.2859241  
C    5.3774559   -1.6442160   -1.9771116  
C    4.8701586   -0.7486137   -2.9897227  
C    3.4034920   -0.7291860   -2.8306572  
N    3.1250159   -1.5744517   -1.7814350  
C    2.5562217   -0.0001543   -3.6003001  
C    3.1269051    0.8199330   -4.6559100  
O    2.4474939    1.5122577   -5.4024942  
C    4.6776933    0.8144235   -4.8425424  
O    5.1696079    1.5006855   -5.7281632  
C    5.4870227   -0.0121789   -3.9505975  
H    6.5600129   -0.0102596   -4.0862901  
H    4.2768475   -2.7963881   -0.4563907  
H    2.2064273   -1.7712340   -1.4285626  
C    7.2599540   -3.2254696   -1.4151140  
C    6.7841712   -1.9938173   -1.7325050  
C    7.9199339   -1.1036225   -1.7818190  
C    9.1049022   -1.9235000   -1.4648968  
N    8.6367836   -3.1996978   -1.2525898  
C   10.3754573   -1.4497573   -1.4104842  
C   10.5901729   -0.0381175   -1.6819717  
O   11.6969939    0.4840476   -1.6575848  
C    9.3496251    0.8489472   -2.0195567  
O    9.5179962    2.0388969   -2.2496262  
C    8.0295220    0.2241732   -2.0484397  
H   11.2307746   -2.0682017   -1.1762394  
H    7.1757762    0.8452424   -2.2832076  
H    6.7205748   -4.1497552   -1.2860567  
H    9.2076590   -3.9909513   -1.0179261  
C    0.0000000    0.0000000    0.0000000  
C    1.0541688   -0.0001719   -0.8560391  
C    0.5103141   -0.0000449   -2.1935955  
C   -0.9576367    0.0002461   -2.0455733  
N   -1.2018459   -0.0001392   -0.6915970  
C   -1.8348306    0.0008319   -3.0810611  
C   -1.2972842    0.0009739   -4.4314605  
O   -2.0050664    0.0014267   -5.4301321  
C    0.2542628    0.0004190   -4.6117571  
O    0.7184677    0.0002263   -5.7439119  
C    1.0974556    0.0000880   -3.4189127  
H    2.0940752   -0.0005479   -0.5817978  
H   -2.9081050    0.0011669   -2.9507065  
H   -2.1128195    0.0014911   -0.2706793  
C    1.1319247   -0.0015655    2.2709268  
C    0.7969915   -0.0034943    3.5869401  
C   -0.6453339   -0.0035710    3.6542670  
C   -1.1266833   -0.0015433    2.2596025  
N    0.0000000    0.0000000    1.4700000  
C   -2.4346130   -0.0013964    1.8976294  
C   -3.4350110   -0.0031408    2.9520183  
O   -4.6384611   -0.0030974    2.7283916  
C   -2.9478959   -0.0050506    4.4361073  
O   -3.7809380   -0.0062218    5.3323774  
C   -1.5113823   -0.0053090    4.7012123  
H    1.4821238   -0.0045407    4.4159191  
H   -2.7664565   -0.0000232    0.8686553  
H   -1.1823530   -0.0068408    5.7314848  
H    2.1104316   -0.0009391    1.8188057  
