58

C   -0.2737646   -1.0880494   -9.6236601  
C   -0.4370037   -0.0099613   -8.8142440  
C   -0.6708257    1.1283352   -9.6712415  
C   -0.6301653    0.6213968  -11.0562141  
N   -0.3853752   -0.7289308  -10.9583197  
C   -0.8071586    1.3888331  -12.1613932  
C   -1.0539655    2.8089162  -11.9743488  
O   -1.2259200    3.5835408  -12.9063833  
C   -1.1009602    3.3674769  -10.5164032  
O   -1.3077063    4.5614812  -10.3464919  
C   -0.8957570    2.4416545   -9.4052788  
H   -0.7735949    0.9970932  -13.1685287  
H   -0.9300286    2.8363182   -8.3989039  
H   -0.0811064   -2.1146465   -9.3574456  
H   -0.3027547   -1.3571729  -11.7364801  
C    2.1650265   -2.1089225   -5.9297630  
C    1.5723604   -1.6445161   -7.0598730  
C    0.5184572   -0.7489600   -6.6450207  
C    0.5459257   -0.7295296   -5.1700093  
N    1.5661286   -1.5747494   -4.7989582  
C   -0.2963293   -0.0005341   -4.3948471  
C   -1.2968019    0.8195082   -5.0575088  
O   -2.1011000    1.5117978   -4.4474755  
C   -1.3442162    0.8139947   -6.6187666  
O   -2.1824061    1.5002193   -7.1877951  
C   -0.3835313   -0.0125662   -7.3452196  
H    1.8425077   -1.9002757   -8.0689424  
H    2.9887828   -2.7966241   -5.8278727  
H    1.8355782   -1.7715191   -3.8525301  
C    3.1301146   -0.0010313   -1.7028256  
C    2.5367765   -0.0002766   -0.4864669  
C    1.1089901    0.0001027   -0.7656184  
C    1.0177865   -0.0004150   -2.2415133  
N    2.1993571   -0.0011612   -2.7963824  
C   -0.2459219   -0.0002879   -2.9257116  
C   -1.3675326   -0.0000606   -2.1698520  
O   -2.6129318    0.0000865   -2.6748483  
C   -1.3083588    0.0000910   -0.6783229  
O   -2.3693264    0.0004206   -0.0541685  
C    0.0000000    0.0000000    0.0000000  
H    3.0096016   -0.0001007    0.4807518  
H   -3.1967444    0.0002093   -1.8949026  
H    4.1849275   -0.0015114   -1.9271979  
C    0.0000000    0.0000000    1.4700000  
C    1.0541688    0.0001722    2.3260392  
C    0.5103138    0.0000454    3.6635956  
C   -0.9576371   -0.0002459    3.5155732  
N   -1.2018458    0.0001392    2.1615969  
C   -1.8348311   -0.0008317    4.5510609  
C   -1.2972847   -0.0009736    5.9014604  
O   -2.0050672   -0.0014265    6.9001319  
C    0.2542623   -0.0004184    6.0817573  
O    0.7184670   -0.0002256    7.2139121  
C    1.0974552   -0.0000873    4.8889129  
H    2.0940752    0.0005483    2.0517982  
H   -2.9081052   -0.0011668    4.4207061  
H    2.1707277    0.0000911    5.0223670  
H   -2.1128194   -0.0014912    1.7406791  
