58

C    5.9718891   -2.1066114   -4.3836097  
C    5.8824617   -1.6421429   -5.6565381  
C    4.7503165   -0.7470247   -5.6994994  
C    4.1834492   -0.7279189   -4.3374836  
N    4.9692736   -1.5728897   -3.5882214  
C    3.1006054    0.0006263   -3.9654951  
C    2.4499047    0.8204919   -4.9739314  
O    1.4681175    1.5123811   -4.7379561  
C    3.0331143    0.8153162   -6.4229469  
O    2.4935221    1.5013959   -7.2804989  
C    4.2049177   -0.0107666   -6.7027951  
H    4.6026870   -0.0086185   -7.7085282  
H    6.6857548   -2.7940674   -3.9597112  
H    4.8362804   -1.7697855   -2.6132382  
C    7.2833776   -3.2561392   -7.0243152  
C    8.0769598   -3.2502565   -8.1262535  
C    8.0901175   -1.8965359   -8.6283519  
C    7.2330273   -1.1085792   -7.7220895  
N    6.7743884   -1.9912971   -6.7716434  
C    6.9881141    0.2194352   -7.8566285  
C    7.6100037    0.9193762   -8.9683274  
O    7.4511253    2.1153325   -9.1750785  
C    8.5213693    0.1046795   -9.9406889  
O    9.0500842    0.6831310  -10.8804306  
C    8.7100705   -1.3224130   -9.6923909  
H    8.5939606   -4.0975740   -8.5402310  
H    6.3563050    0.7786895   -7.1806406  
H    9.3427394   -1.8792706  -10.3701540  
H    7.0273834   -4.0781132   -6.3756894  
C    3.2798083    0.0005857   -1.4499652  
C    2.5571142    0.0005565   -2.5996556  
C    1.1637432    0.0001548   -2.2210361  
C    1.1336964   -0.0000200   -0.7459473  
N    2.4483512   -0.0001428   -0.3402723  
C    0.0000000    0.0000000    0.0000000  
C   -1.2757368   -0.0000186   -0.6964415  
O   -2.3524598   -0.0000639   -0.1142311  
C   -1.2676497   -0.0000872   -2.2584083  
O   -2.3355766   -0.0004101   -2.8557295  
C    0.0181558    0.0001758   -2.9516296  
H    0.0150788    0.0003319   -4.0331631  
H    4.3498547    0.0008612   -1.3200026  
H    2.7563626    0.0012823    0.6148059  
C    2.4951002    2.0940188    2.9809380  
C    1.9440701    1.6314916    1.8291961  
C    0.8759964    0.7350050    2.2038498  
C    0.8497377    0.7130254    3.6788474  
N    1.8560616    1.5571714    4.0882609  
C   -0.0205033   -0.0168748    4.4215661  
C   -0.9962600   -0.8356168    3.7214979  
O   -1.8224391   -1.5286685    4.3006425  
C   -0.9864710   -0.8277881    2.1595606  
O   -1.8030528   -1.5133726    1.5592035  
C    0.0000000    0.0000000    1.4700000  
H    2.2509283    1.8888011    0.8310761  
H   -0.0229599   -0.0187323    5.5027230  
H    3.3143982    2.7817323    3.1139444  
H    2.0889452    1.7545833    5.0442112  
