58

C   -0.0307358   -0.0004643   -4.4215602  
C    1.0209930   -0.0006519   -5.2805951  
C    0.4733348   -0.0007741   -6.6165989  
C   -0.9941891   -0.0006121   -6.4644009  
N   -1.2345445   -0.0008267   -5.1097353  
C   -1.8743257   -0.0002659   -7.4973888  
C   -1.3406230   -0.0002637   -8.8493124  
O   -2.0512444   -0.0000277   -9.8459663  
C    0.2104047   -0.0006857   -9.0340221  
O    0.6713865   -0.0009944  -10.1674936  
C    1.0569876   -0.0007580   -7.8435818  
H    2.0616754   -0.0008816   -5.0093143  
H   -2.9472243   -0.0000221   -7.3639810  
H    2.1298761   -0.0008456   -7.9800891  
H   -2.1443170    0.0007710   -4.6862273  
C    3.2573667   -0.0002917   -1.5109384  
C    2.5379466   -0.0001708   -0.3591963  
C    1.1435040    0.0000333   -0.7338502  
C    1.1092604   -0.0000080   -2.2088477  
N    2.4227557    0.0001912   -2.6182616  
C   -0.0265537   -0.0002520   -2.9515661  
C   -1.3003040   -0.0002638   -2.2514979  
O   -2.3786786   -0.0004130   -2.8306424  
C   -1.2877728    0.0000313   -0.6895606  
O   -2.3539959    0.0003306   -0.0892032  
C    0.0000000    0.0000000    0.0000000  
H    2.9384091   -0.0000367    0.6389235  
H    2.7280487   -0.0013403   -3.5742117  
C    6.7921796   -0.0024531    1.2037500  
C    5.5119029   -0.0013792    0.7650370  
C    5.6127421   -0.0007796   -0.6862835  
C    7.0661040   -0.0015327   -0.9589055  
N    7.7625303   -0.0025956    0.1451683  
C    7.5891408   -0.0012857   -2.2973817  
C    6.7006583   -0.0007186   -3.3171530  
O    7.0481222   -0.0004242   -4.6153478  
C    5.2278295   -0.0003229   -3.0743870  
O    4.4775293    0.0003125   -4.0502300  
C    4.7161330   -0.0005432   -1.6923264  
H    4.6104190   -0.0011264    1.3535969  
H    8.6559208   -0.0016444   -2.4673563  
H    6.2020979   -0.0000585   -5.0984592  
H    7.1449939   -0.0031693    2.2228160  
C    2.5528530    2.1414826    2.8079335  
C    2.0663498    1.7338582    4.0032312  
C    0.9804344    0.8229586    3.6752840  
C    0.9495562    0.7966882    2.1971295  
N    1.8690446    1.5676019    1.6831036  
C    0.0000000    0.0000000    1.4700000  
C   -0.8785127   -0.7372425    2.1869543  
O   -1.8187535   -1.5261249    1.6395491  
C   -0.8723269   -0.7321790    3.6796354  
O   -1.7010379   -1.4274584    4.2670412  
C    0.1115397    0.0933559    4.4024240  
H    2.4028853    2.0163452    4.9860947  
H   -2.2861435   -1.9184361    2.3990168  
H    0.0832434    0.0693689    5.4835595  
H    3.3664920    2.8238276    2.6198634  
