58

C   -6.4685347    0.0035666   -5.8888707  
C   -5.3693572    0.0036798   -6.6862936  
C   -5.8396416    0.0045338   -8.0514558  
C   -7.3134714    0.0049408   -7.9835119  
N   -7.6309769    0.0039216   -6.6448255  
C   -8.1330340    0.0061481   -9.0651854  
C   -7.5228206    0.0068847  -10.3843425  
O   -8.1752246    0.0079192  -11.4200379  
C   -5.9637624    0.0062189  -10.4799658  
O   -5.4386540    0.0065229  -11.5851911  
C   -5.1867105    0.0051932   -9.2430167  
H   -4.3459100    0.0030354   -6.3558871  
H   -9.2118111    0.0065569   -8.9934112  
H   -4.1077676    0.0049427   -9.3178861  
H   -8.5634996    0.0054621   -6.2740883  
C   -3.2941076    0.0012874   -2.9038237  
C   -3.9928925    0.0012414   -1.7448249  
C   -5.3903273    0.0018078   -2.1493932  
C   -5.3503934    0.0022633   -3.6275642  
N   -4.1243041    0.0018803   -4.0755528  
C   -6.5485048    0.0028442   -4.4210475  
C   -7.7326801    0.0025755   -3.7675465  
O   -8.9284333    0.0030583   -4.3809106  
C   -7.8059023    0.0017437   -2.2766413  
O   -8.9180025    0.0016641   -1.7489540  
C   -6.5627960    0.0012027   -1.4850537  
H   -3.6076322    0.0007785   -0.7395141  
H   -9.5790601    0.0026681   -3.6557643  
H   -6.6586510    0.0004896   -0.4075375  
C    0.0000000    0.0000000    0.0000000  
C    1.0541688   -0.0001722   -0.8560393  
C    0.5103135   -0.0000454   -2.1935957  
C   -0.9576374    0.0002459   -2.0455730  
N   -1.2018460   -0.0001391   -0.6915968  
C   -1.8348314    0.0008317   -3.0810607  
C   -1.2972851    0.0009737   -4.4314604  
O   -2.0050676    0.0014265   -5.4301315  
C    0.2542619    0.0004184   -4.6117571  
O    0.7184666    0.0002257   -5.7439121  
C    1.0974550    0.0000874   -3.4189130  
H    2.0940752   -0.0005483   -0.5817984  
H    2.1707276   -0.0000911   -3.5523671  
H   -2.1128194    0.0014912   -0.2706789  
C    3.2798086   -0.0005857    2.9199648  
C    2.5571146   -0.0005566    4.0696553  
C    1.1637436   -0.0001548    3.6910360  
C    1.1336965    0.0000200    2.2159470  
N    2.4483514    0.0001428    1.8102719  
C    0.0000000    0.0000000    1.4700000  
C   -1.2757367    0.0000186    2.1664417  
O   -2.3524596    0.0000640    1.5842315  
C   -1.2676493    0.0000873    3.7284083  
O   -2.3355761    0.0004100    4.3257297  
C    0.0181563   -0.0001760    4.4216297  
H    2.9547357   -0.0006076    5.0689105  
H    0.0150794   -0.0003319    5.5031631  
H    4.3498549   -0.0008612    2.7900019  
H    2.7563627   -0.0012824    0.8551938  
