58

C   -4.6016035    3.7048855    1.9167028  
C   -3.8858799    4.5013112    2.7518803  
C   -2.5005155    4.3821872    2.3627667  
C   -2.4675734    3.4443749    1.2242529  
N   -3.7730325    3.0700583    1.0039033  
C   -1.3395203    3.0685772    0.5700539  
C   -0.0733210    3.6247167    1.0172488  
O    0.9977874    3.3482351    0.4932392  
C   -0.0845954    4.6196553    2.2213145  
O    0.9753520    5.0941006    2.6068968  
C   -1.3637155    4.9486821    2.8453706  
H   -4.2830613    5.1033740    3.5496158  
H   -1.3372734    2.3793720   -0.2629536  
H   -1.3629231    5.6385139    3.6783502  
H   -5.6646236    3.5281441    1.8913880  
C   -4.2186876    2.1401316   -0.0437264  
C   -5.4804255    1.7323137   -0.3144299  
C   -5.3466902    0.8217457   -1.4411423  
C   -3.8965667    0.7958595   -1.7293374  
N   -3.2302264    1.5666941   -0.9133756  
C   -3.3460097   -0.0004262   -2.7913647  
C   -4.2050300   -0.7376509   -3.5315801  
O   -3.8298201   -1.5261790   -4.5530897  
C   -5.6737588   -0.7329696   -3.2651715  
O   -6.3965398   -1.4282093   -3.9789291  
C   -6.2140639    0.0921557   -2.1701087  
H   -6.3895971    2.0144730    0.1884314  
H   -4.6590772   -1.9185774   -4.8809756  
H   -7.2835617    0.0678998   -2.0094328  
C    0.0000000    0.0000000    0.0000000  
C    1.0662919   -0.0000103   -0.8334272  
C    0.4961868    0.0000066   -2.1718889  
C   -0.9663860   -0.0000849   -1.9540248  
N   -1.2632775   -0.0000084   -0.6828659  
C   -1.8985364   -0.0000515   -3.0477258  
C   -1.3925778    0.0004567   -4.3020543  
O   -2.1456385    0.0005412   -5.4151314  
C    0.0786229    0.0009326   -4.5544999  
O    0.4683756    0.0012594   -5.7221104  
C    1.0143162    0.0008443   -3.4159034  
H    2.1107195    0.0000631   -0.5721869  
H   -1.5042277    0.0009692   -6.1484420  
H    2.0724151    0.0013151   -3.6409746  
C    0.0000000    0.0000000    1.4700000  
C    1.0662921    0.0000102    2.3034270  
C    0.4961870   -0.0000064    3.6418889  
C   -0.9663858    0.0000850    3.4240247  
N   -1.2632773    0.0000084    2.1528658  
C   -1.8985362    0.0000517    4.5177257  
C   -1.3925775   -0.0004564    5.7720543  
O   -2.1456383   -0.0005410    6.8851312  
C    0.0786232   -0.0009323    6.0245000  
O    0.4683759   -0.0012588    7.1921102  
C    1.0143166   -0.0008442    4.8859032  
H    2.1107198   -0.0000632    2.0421868  
H   -2.9622183    0.0003270    4.3293377  
H   -1.5042274   -0.0009692    7.6184419  
H    2.0724152   -0.0013148    5.1109744  
