60

C    3.3041275    0.0001174   -1.5420427  
C    2.5845373   -0.0004781   -0.3695847  
C    1.2040009   -0.0000009   -0.7283587  
C    1.1422379    0.0006033   -2.1454375  
N    2.4348645    0.0026106   -2.6077463  
C   -0.0655177    0.0008794   -2.8497921  
C   -1.2321765    0.0002322   -2.1101403  
O   -2.4392807    0.0001143   -2.7472524  
C   -1.1911209   -0.0000009   -0.6955264  
O   -2.4371522   -0.0002320   -0.1032871  
C    0.0000000    0.0000000    0.0000000  
H    3.0031536   -0.0000662    0.6222589  
H   -0.1193541    0.0014839   -3.9297470  
H   -3.1132983   -0.0000650   -2.0551793  
H   -2.3200281   -0.0004069    0.8516406  
H    4.3686628    0.0004068   -1.7024286  
C    5.6502451   -2.1159098   -4.7187972  
C    5.4250940   -1.6663859   -5.9802687  
C    4.2912982   -0.7748315   -5.9133905  
C    3.8713727   -0.7415302   -4.4994090  
N    4.7351851   -1.5757179   -3.8279561  
C    2.8310672   -0.0116225   -4.0232748  
C    2.0743475    0.7948328   -4.9664295  
O    1.1203098    1.4867872   -4.6358044  
C    2.5012821    0.7745011   -6.4688001  
O    1.8714994    1.4492142   -7.2721659  
C    3.6401563   -0.0516392   -6.8616232  
H    5.9888062   -1.9294835   -6.8575500  
H    6.4075330   -2.7965357   -4.3650266  
H    4.7066632   -1.7617131   -2.8422384  
C    4.9645880   -3.3506038   -9.3815854  
C    5.1747883   -2.7357086  -10.5687251  
C    4.8431798   -1.3391622  -10.3316727  
C    4.4410551   -1.2877721   -8.9096185  
N    4.5102878   -2.4638483   -8.3474432  
C    4.0333919   -0.0630432   -8.2780042  
C    4.0280779    1.0593974   -9.0326123  
O    3.6705895    2.2707803   -8.5734887  
C    4.4288473    1.0399733  -10.4703774  
O    4.3999470    2.0993431  -11.0965727  
C    4.8430143   -0.2288176  -11.0953257  
H    5.5131745   -3.1754948  -11.4913066  
H    3.7689377    2.8650750   -9.3391875  
H    5.1260255   -0.2006869  -12.1390412  
H    5.0971081   -4.3934988   -9.1412076  
C    0.8681109    0.7263879    2.2709268  
C    0.6127770    0.5096195    3.5869401  
C   -0.4920590   -0.4175482    3.6542670  
C   -0.8620974   -0.7254003    2.2596025  
N    0.0000000    0.0000000    1.4700000  
C   -1.8641242   -1.5660088    1.8976294  
C   -2.6293522   -2.2103885    2.9520183  
O   -3.5512764   -2.9839180    2.7283916  
C   -2.2549728   -1.8987399    4.4361073  
O   -2.8923672   -2.4351063    5.3323774  
C   -1.1543735   -0.9755647    4.7012123  
H    1.1382914    0.9492124    4.4159191  
H   -2.1192137   -1.7782617    0.8686553  
H   -0.9013378   -0.7652422    5.7314848  
H    1.6172880    1.3558399    1.8188057  
