60

C    1.1243353    0.0105905   -0.7919006  
C    0.7473943    0.0238517   -2.1148545  
C   -0.6787511    0.0230872   -2.1414699  
C   -1.1201797    0.0092629   -0.7935547  
N    0.0000000    0.0000000    0.0000000  
C   -2.4730852    0.0050546   -0.4408234  
C   -3.3972050    0.0152897   -1.4675052  
O   -4.7313597    0.0121079   -1.1793461  
C   -2.9763814    0.0287659   -2.8186319  
O   -4.0166691    0.0373733   -3.7247613  
C   -1.6418747    0.0326515   -3.1673479  
H   -2.8160142   -0.0056097    0.5845976  
H   -5.1938938    0.0203222   -2.0274371  
H   -3.6464943    0.0462878   -4.6127335  
H   -1.3497712    0.0428676   -4.2109230  
H    2.1062430    0.0064026   -0.3505409  
C    2.8198362   -0.6677298   -3.3744987  
C    1.6628757    0.0347745   -3.2649302  
C    1.5099691    0.7874339   -4.4876153  
C    2.6810671    0.4634926   -5.3245033  
N    3.4363134   -0.4232432   -4.5922515  
C    2.9070243    0.9740368   -6.5614318  
C    1.9318251    1.9048656   -7.1046434  
O    2.0453930    2.4190888   -8.2096216  
C    0.6841112    2.2623883   -6.2356244  
O   -0.1435483    3.0451486   -6.6823093  
C    0.5500224    1.6476767   -4.9172916  
H    3.7725231    0.7232275   -7.1588572  
H   -0.3168598    1.9003083   -4.3219628  
H    3.2740801   -1.3433136   -2.6680015  
C    5.0938051   -2.3073072   -4.8433067  
C    4.7029616   -1.0214503   -5.0379549  
C    5.7653471   -0.3634289   -5.7612668  
C    6.8146765   -1.3786183   -5.9736062  
N    6.3462976   -2.5347077   -5.3931163  
C    7.9852967   -1.1506103   -6.6211907  
C    8.2280286    0.1837657   -7.1437390  
O    9.2515150    0.4889288   -7.7417791  
C    7.1305837    1.2745422   -6.9301328  
O    7.3238847    2.4016895   -7.3653724  
C    5.9096937    0.9086318   -6.2164180  
H    8.7417425   -1.9093215   -6.7663002  
H    5.1546812    1.6696031   -6.0728793  
H    4.5723194   -3.1078757   -4.3442751  
H    6.8376696   -3.4094809   -5.3738018  
C    0.8400945    0.7047457    2.2710304  
C    0.0000000    0.0000000    1.4700000  
C   -0.8844236   -0.7423113    2.3369512  
C   -0.4878984   -0.4098547    3.7186280  
N    0.5629682    0.4714286    3.6095011  
C   -1.0836927   -0.9095027    4.8308716  
C   -2.1891196   -1.8367527    4.6554461  
O   -2.7906899   -2.3413415    5.5944904  
C   -2.6257283   -2.2031529    3.2011665  
O   -3.5549479   -2.9829990    3.0410059  
C   -1.9068976   -1.5999348    2.0816745  
H   -0.7774656   -0.6525820    5.8354244  
H   -2.2155208   -1.8586617    1.0779135  
H    1.6384792    1.3747609    1.9961646  
H    1.0518368    0.8833920    4.3830260  
