58

C    4.7455560   -0.0078477   -8.0697627  
C    5.8125523   -0.6828224   -8.5697674  
C    5.9164569   -0.3310340   -9.9662936  
C    4.8146486    0.6109946  -10.2408685  
N    4.1421824    0.7647380   -9.0504724  
C    4.5698578    1.1764646  -11.4500106  
C    5.4501922    0.8342698  -12.5547521  
O    5.3126750    1.2908402  -13.6821078  
C    6.6233670   -0.1615472  -12.2867711  
O    7.3708975   -0.4573631  -13.2092412  
C    6.7861734   -0.7053133  -10.9407907  
H    6.4535526   -1.3510448   -8.0227659  
H    3.7562182    1.8652671  -11.6301553  
H    7.6010448   -1.3939880  -10.7634917  
H    3.3382707    1.3497956   -8.9145280  
C    5.9718894   -2.1066118   -4.3836096  
C    5.8824616   -1.6421431   -5.6565382  
C    4.7503166   -0.7470250   -5.6994994  
C    4.1834492   -0.7279190   -4.3374836  
N    4.9692737   -1.5728901   -3.5882209  
C    3.1006054    0.0006263   -3.9654951  
C    2.4499047    0.8204918   -4.9739314  
O    1.4681175    1.5123811   -4.7379561  
C    3.0331143    0.8153159   -6.4229468  
O    2.4935220    1.5013956   -7.2804984  
C    4.2049177   -0.0107672   -6.7027951  
H    6.5349995   -1.8975863   -6.4723546  
H    6.6857550   -2.7940678   -3.9597111  
H    4.8362802   -1.7697855   -2.6132378  
C    3.2798083    0.0005857   -1.4499652  
C    2.5571142    0.0005565   -2.5996556  
C    1.1637432    0.0001548   -2.2210361  
C    1.1336964   -0.0000200   -0.7459473  
N    2.4483512   -0.0001428   -0.3402723  
C    0.0000000    0.0000000    0.0000000  
C   -1.2757368   -0.0000186   -0.6964415  
O   -2.3524598   -0.0000639   -0.1142311  
C   -1.2676497   -0.0000872   -2.2584083  
O   -2.3355766   -0.0004101   -2.8557295  
C    0.0181558    0.0001758   -2.9516296  
H    0.0150788    0.0003319   -4.0331631  
H    4.3498547    0.0008612   -1.3200026  
H    2.7563626    0.0012823    0.6148059  
C    0.0000000    0.0000000    1.4700000  
C    1.0662921    0.0000102    2.3034270  
C    0.4961870   -0.0000064    3.6418889  
C   -0.9663858    0.0000850    3.4240247  
N   -1.2632773    0.0000084    2.1528658  
C   -1.8985362    0.0000517    4.5177257  
C   -1.3925775   -0.0004564    5.7720543  
O   -2.1456383   -0.0005410    6.8851312  
C    0.0786232   -0.0009323    6.0245000  
O    0.4683759   -0.0012588    7.1921102  
C    1.0143166   -0.0008442    4.8859032  
H    2.1107198   -0.0000632    2.0421868  
H   -2.9622183    0.0003270    4.3293377  
H   -1.5042274   -0.0009692    7.6184419  
H    2.0724152   -0.0013148    5.1109744  
