58

C    3.2573672   -0.0002920   -1.5109380  
C    2.5379469   -0.0001709   -0.3591961  
C    1.1435040    0.0000331   -0.7338498  
C    1.1092607   -0.0000083   -2.2088474  
N    2.4227561    0.0001908   -2.6182610  
C   -0.0265531   -0.0002525   -2.9515662  
C   -1.3003047   -0.0002641   -2.2514977  
O   -2.3786789   -0.0004134   -2.8306425  
C   -1.2877729    0.0000311   -0.6895606  
O   -2.3539957    0.0003306   -0.0892034  
C    0.0000000    0.0000000    0.0000000  
H    2.9384086   -0.0000367    0.6389239  
H   -0.0296291   -0.0004087   -4.0327232  
H    2.7280494   -0.0013408   -3.5742114  
C    6.4550019   -0.0009257    1.4492357  
C    7.5628473   -0.0014712    0.6718960  
C    7.0625123   -0.0013727   -0.6941806  
C    5.5906518   -0.0008360   -0.5520172  
N    5.2286136   -0.0004914    0.7021430  
C    4.7161331   -0.0005435   -1.6923257  
C    5.2860928   -0.0003877   -2.9188983  
O    4.5914249   -0.0001201   -4.0693230  
C    6.7683529   -0.0005474   -3.0951524  
O    7.2177897   -0.0005153   -4.2411135  
C    7.6440949   -0.0008910   -1.9098252  
H    8.5924156   -0.0017984    0.9866399  
H    5.2697922   -0.0000403   -4.7685866  
H    6.3993983   -0.0008022    2.5262135  
C   10.8186423   -2.1432097    0.1686876  
C   11.9225183   -1.7354123   -0.4996985  
C   11.4278292   -0.8241502   -1.5201808  
C    9.9632309   -0.7978811   -1.3180795  
N    9.6002542   -1.5691080   -0.3294206  
C    9.0957829   -0.0008794   -2.1411282  
C    9.6656062    0.7366642   -3.1212636  
O    8.9771096    1.5258584   -3.9633951  
C   11.1406666    0.7316104   -3.3500286  
O   11.5903890    1.4271731   -4.2606122  
C   12.0092249   -0.0942496   -2.4924233  
H   12.9460781   -2.0180047   -0.3221019  
H    9.6535913    1.9183327   -4.5443337  
H   13.0724407   -0.0702445   -2.6904747  
H   10.7609103   -2.8258297    1.0015561  
C    2.4951002    2.0940188    2.9809380  
C    1.9440701    1.6314916    1.8291961  
C    0.8759964    0.7350050    2.2038498  
C    0.8497377    0.7130254    3.6788474  
N    1.8560616    1.5571714    4.0882609  
C   -0.0205033   -0.0168748    4.4215661  
C   -0.9962600   -0.8356168    3.7214979  
O   -1.8224391   -1.5286685    4.3006425  
C   -0.9864710   -0.8277881    2.1595606  
O   -1.8030528   -1.5133726    1.5592035  
C    0.0000000    0.0000000    1.4700000  
H    2.2509283    1.8888011    0.8310761  
H   -0.0229599   -0.0187323    5.5027230  
H    3.3143982    2.7817323    3.1139444  
H    2.0889452    1.7545833    5.0442112  
