58

C    7.3838309   -3.3940069   -6.8373878  
C    8.2121211   -3.4233536   -7.9130975  
C    8.2557808   -2.0827057   -8.4475056  
C    7.3787644   -1.2640272   -7.5887856  
N    6.8806481   -2.1182897   -6.6322265  
C    7.1525177    0.0626078   -7.7635888  
C    7.8169666    0.7285355   -8.8715539  
O    7.6775889    1.9205140   -9.1125151  
C    8.7500460   -0.1190524   -9.7939209  
O    9.3145936    0.4306215  -10.7300854  
C    8.9154267   -1.5413489   -9.5048302  
H    8.7329258   -4.2857773   -8.2893978  
H    6.5055352    0.6447136   -7.1221243  
H    9.5633499   -2.1211113  -10.1480983  
H    7.0985094   -4.1970501   -6.1773860  
C    5.9676386   -2.1403205   -4.2647281  
C    5.9574583   -1.7327294   -5.5552103  
C    4.8270664   -0.8220463   -5.6520101  
C    4.2518649   -0.7958517   -4.2900108  
N    4.9163000   -1.5666196   -3.4724335  
C    3.1006054    0.0006263   -3.9654951  
C    2.5492758    0.7377403   -4.9564710  
O    1.4731211    1.5264225   -4.7955004  
C    3.1069012    0.7327485   -6.3410972  
O    2.5539556    1.4279022   -7.1932903  
C    4.2884406   -0.0925700   -6.6488934  
H    1.3195665    1.9186833   -5.6739679  
H    4.6618643   -0.0685368   -7.6638849  
H    6.6542206   -2.8225236   -3.7891473  
C    3.2798083    0.0005857   -1.4499652  
C    2.5571142    0.0005565   -2.5996556  
C    1.1637432    0.0001548   -2.2210361  
C    1.1336964   -0.0000200   -0.7459473  
N    2.4483512   -0.0001428   -0.3402723  
C    0.0000000    0.0000000    0.0000000  
C   -1.2757368   -0.0000186   -0.6964415  
O   -2.3524598   -0.0000639   -0.1142311  
C   -1.2676497   -0.0000872   -2.2584083  
O   -2.3355766   -0.0004101   -2.8557295  
C    0.0181558    0.0001758   -2.9516296  
H    0.0150788    0.0003319   -4.0331631  
H    4.3498547    0.0008612   -1.3200026  
H    2.7563626    0.0012823    0.6148059  
C    2.5528530    2.1414826    2.8079335  
C    2.0663498    1.7338582    4.0032312  
C    0.9804344    0.8229586    3.6752840  
C    0.9495562    0.7966882    2.1971295  
N    1.8690446    1.5676019    1.6831036  
C    0.0000000    0.0000000    1.4700000  
C   -0.8785127   -0.7372425    2.1869543  
O   -1.8187535   -1.5261249    1.6395491  
C   -0.8723269   -0.7321790    3.6796354  
O   -1.7010379   -1.4274584    4.2670412  
C    0.1115397    0.0933559    4.4024240  
H    2.4028853    2.0163452    4.9860947  
H   -2.2861435   -1.9184361    2.3990168  
H    0.0832434    0.0693689    5.4835595  
H    3.3664920    2.8238276    2.6198634  
