58

C    4.7455560   -0.0078477   -8.0697627  
C    5.8125523   -0.6828224   -8.5697674  
C    5.9164569   -0.3310340   -9.9662936  
C    4.8146486    0.6109946  -10.2408685  
N    4.1421824    0.7647380   -9.0504724  
C    4.5698578    1.1764646  -11.4500106  
C    5.4501922    0.8342698  -12.5547521  
O    5.3126750    1.2908402  -13.6821078  
C    6.6233670   -0.1615472  -12.2867711  
O    7.3708975   -0.4573631  -13.2092412  
C    6.7861734   -0.7053133  -10.9407907  
H    6.4535526   -1.3510448   -8.0227659  
H    3.7562182    1.8652671  -11.6301553  
H    7.6010448   -1.3939880  -10.7634917  
H    3.3382707    1.3497956   -8.9145280  
C    5.9718894   -2.1066118   -4.3836096  
C    5.8824616   -1.6421431   -5.6565382  
C    4.7503166   -0.7470250   -5.6994994  
C    4.1834492   -0.7279190   -4.3374836  
N    4.9692737   -1.5728901   -3.5882209  
C    3.1006054    0.0006263   -3.9654951  
C    2.4499047    0.8204918   -4.9739314  
O    1.4681175    1.5123811   -4.7379561  
C    3.0331143    0.8153159   -6.4229468  
O    2.4935220    1.5013956   -7.2804984  
C    4.2049177   -0.0107672   -6.7027951  
H    6.5349995   -1.8975863   -6.4723546  
H    6.6857550   -2.7940678   -3.9597111  
H    4.8362802   -1.7697855   -2.6132378  
C    3.2798083    0.0005857   -1.4499652  
C    2.5571142    0.0005565   -2.5996556  
C    1.1637432    0.0001548   -2.2210361  
C    1.1336964   -0.0000200   -0.7459473  
N    2.4483512   -0.0001428   -0.3402723  
C    0.0000000    0.0000000    0.0000000  
C   -1.2757368   -0.0000186   -0.6964415  
O   -2.3524598   -0.0000639   -0.1142311  
C   -1.2676497   -0.0000872   -2.2584083  
O   -2.3355766   -0.0004101   -2.8557295  
C    0.0181558    0.0001758   -2.9516296  
H    0.0150788    0.0003319   -4.0331631  
H    4.3498547    0.0008612   -1.3200026  
H    2.7563626    0.0012823    0.6148059  
C    2.5128556    2.1077716    2.9199648  
C    1.9592212    1.6432552    4.0696553  
C    0.8915788    0.7479214    3.6910360  
C    0.8684491    0.7287414    2.2159470  
N    1.8754542    1.5738793    1.8102719  
C    0.0000000    0.0000000    1.4700000  
C   -0.9772830   -0.8200135    2.1664417  
O   -1.8021297   -1.5120829    1.5842315  
C   -0.9711318   -0.8147624    3.7284083  
O   -1.7894187   -1.5009653    4.3257297  
C    0.0140216    0.0115358    4.4216297  
H    2.2638494    1.8988021    5.0689105  
H    0.0117648    0.0094386    5.5031631  
H    3.3327358    2.7953732    2.7900019  
H    2.1123206    1.7707734    0.8551938  
