58

C    7.1971784    0.5319773   -4.8169681  
C    7.6696277   -0.3112498   -3.8631159  
C    9.1063330   -0.3430471   -4.0034906  
C    9.4345222    0.5572535   -5.1253377  
N    8.2335187    1.0555129   -5.5750244  
C   10.6922272    0.8006374   -5.5732751  
C   11.7963192    0.1310310   -4.9060842  
O   12.9652322    0.2845815   -5.2352709  
C   11.4719410   -0.8269852   -3.7157951  
O   12.3932555   -1.3965521   -3.1465562  
C   10.0764731   -1.0089361   -3.3241115  
H    7.0790637   -0.8496840   -3.1434388  
H   10.9112872    1.4647817   -6.3977967  
H    9.8603537   -1.6737721   -2.4988790  
H    8.1265058    1.7016713   -6.3353368  
C    3.4828009   -0.6865220   -2.8918306  
C    2.5562217   -0.0001543   -3.6003001  
C    3.3178344    0.7455286   -4.5904534  
C    4.7268475    0.3812391   -4.3286147  
N    4.8297833   -0.4579832   -3.3340797  
C    5.8087692    0.9177002   -5.1075500  
C    5.4972190    1.7786389   -6.1030679  
O    6.4055169    2.3551225   -6.9084883  
C    4.0848318    2.1655491   -6.3922451  
O    3.8748883    2.9543892   -7.3135893  
C    2.9927228    1.6016833   -5.5790544  
H    5.8827274    2.9123397   -7.5129323  
H    1.9834055    1.9069896   -5.8205007  
H    3.3218865   -1.3590951   -2.0643489  
C    0.0000000    0.0000000    0.0000000  
C    1.0541688   -0.0001719   -0.8560391  
C    0.5103141   -0.0000449   -2.1935955  
C   -0.9576367    0.0002461   -2.0455733  
N   -1.2018459   -0.0001392   -0.6915970  
C   -1.8348306    0.0008319   -3.0810611  
C   -1.2972842    0.0009739   -4.4314605  
O   -2.0050664    0.0014267   -5.4301321  
C    0.2542628    0.0004190   -4.6117571  
O    0.7184677    0.0002263   -5.7439119  
C    1.0974556    0.0000880   -3.4189127  
H    2.0940752   -0.0005479   -0.5817978  
H   -2.9081050    0.0011669   -2.9507065  
H   -2.1128195    0.0014911   -0.2706793  
C    1.0672568    0.0000697    2.3021913  
C    0.0000000    0.0000000    1.4700000  
C   -1.1601224    0.0000736    2.3478473  
C   -0.5938729    0.0000769    3.7138435  
N    0.7113367    0.0001554    3.6934124  
C   -1.4286986    0.0001879    4.8835240  
C   -2.7683114    0.0006799    4.6970523  
O   -3.6653903    0.0008304    5.6976972  
C   -3.3702025    0.0010610    3.3310774  
O   -4.5974910    0.0013779    3.2362962  
C   -2.4926826    0.0008943    2.1470656  
H   -0.9878360   -0.0000190    5.8697035  
H   -4.5324246    0.0012261    5.2533954  
H   -2.9677772    0.0012974    1.1752040  
H    2.1134392    0.0000545    2.0405121  
