64

C    3.3041270    0.0001178   -1.5420432  
C    2.5845372   -0.0004779   -0.3695853  
C    1.2040007   -0.0000006   -0.7283591  
C    1.1422373    0.0006039   -2.1454374  
N    2.4348636    0.0026110   -2.6077466  
C   -0.0655186    0.0008800   -2.8497915  
C   -1.2321770    0.0002326   -2.1101397  
O   -2.4392818    0.0001149   -2.7472515  
C   -1.1911209   -0.0000006   -0.6955262  
O   -2.4371522   -0.0002319   -0.1032858  
C    0.0000000    0.0000000    0.0000000  
H    3.0031535   -0.0000661    0.6222580  
H    2.7054625   -0.0071097   -3.5745263  
H   -3.1132993   -0.0000646   -2.0551781  
H   -2.3200286   -0.0004070    0.8516413  
C    5.7082757    0.0170072   -0.7673040  
C    6.9602955    0.0287163   -1.3371950  
C    6.7741497    0.0207406   -2.7513683  
C    5.3755275    0.0043196   -2.9869819  
N    4.7577214    0.0005130   -1.7610465  
C    4.8251842   -0.0068313   -4.2722002  
C    5.7027234   -0.0009973   -5.3390031  
O    5.2190233   -0.0110097   -6.6153055  
C    7.1014511    0.0149721   -5.1242409  
O    7.8424792    0.0185579   -6.2879461  
C    7.6450841    0.0257060   -3.8566158  
H    7.8930383    0.0403357   -0.7997483  
H    3.7601289   -0.0195069   -4.4584764  
H    5.9887337   -0.0049083   -7.1990633  
H    8.7756807    0.0295845   -6.0542418  
H    8.7205207    0.0376812   -3.7233001  
H    5.4181286    0.0176706    0.2694090  
C    0.6885576   -0.7240829   -5.1615361  
C    0.3679846   -0.5066242   -6.4630813  
C   -0.7389728    0.4203837   -6.4747896  
C   -1.0391596    0.7273897   -5.0632567  
N   -0.1387086    0.0017020   -4.3179679  
C   -2.0220479    1.5676167   -4.6513656  
C   -2.8389207    2.2124490   -5.6659812  
O   -3.7486839    2.9856886   -5.3962914  
C   -2.5388501    1.9016974   -7.1670460  
O   -3.2201592    2.4384509   -8.0301645  
C   -1.4526764    0.9788672   -7.4871439  
H    0.8516394   -0.9456596   -7.3174463  
H   -2.2256211    1.7792486   -3.6108468  
H   -1.2512191    0.7691660   -8.5288562  
H    1.4594109   -1.3536536   -4.7476336  
C    0.8676693    0.7151171    2.2619005  
C    0.5875920    0.4624972    3.5848544  
C   -0.5048400   -0.4542819    3.6114698  
C   -0.8517165   -0.7276451    2.2635546  
N    0.0000000    0.0000000    1.4700000  
C   -1.8902865   -1.5946756    1.9108239  
C   -2.5912627   -2.1969500    2.9375057  
O   -3.6148162   -3.0527051    2.6493466  
C   -2.2603868   -1.9365747    4.2886322  
O   -3.0513550   -2.6123276    5.1947621  
C   -1.2361111   -1.0811317    4.6373480  
H    1.1060808    0.8876438    4.4271209  
H   -2.1597133   -1.8070987    0.8854031  
H   -3.9636755   -3.3565188    3.4974381  
H   -2.7621927   -2.3810384    6.0827341  
H   -1.0058879   -0.9010589    5.6809233  
H    1.6167816    1.3499334    1.8205408  
