58

C   -4.4297974    2.1087673   -0.2339398  
C   -5.6380117    1.6447708   -0.6450366  
C   -5.3911869    0.7496347   -1.7507691  
C   -3.9296541    0.7300041   -1.9515856  
N   -3.4052345    1.5747190   -1.0006226  
C   -3.2941076    0.0012878   -2.9038237  
C   -4.1035805   -0.8182215   -3.7902176  
O   -3.6253066   -1.5102279   -4.6794205  
C   -5.6534087   -0.8124874   -3.5957845  
O   -6.3452686   -1.4982635   -4.3362586  
C   -6.2225101    0.0137348   -2.5340257  
H   -6.5931606    1.9005375   -0.2220859  
H   -7.2964260    0.0119737   -2.4058667  
H   -2.4284974    1.7712471   -0.8805871  
C   -5.0521787    3.6459541    1.6864935  
C   -4.4475157    4.4605511    2.5892049  
C   -3.0280273    4.3914706    2.3340249  
C   -2.8540293    3.4632205    1.2005052  
N   -4.1187218    3.0460991    0.8548857  
C   -1.6563116    3.1306718    0.6559061  
C   -0.4586405    3.7265984    1.2242287  
O    0.6665519    3.4904629    0.8041306  
C   -0.6193231    4.7122266    2.4252793  
O    0.3818783    5.2198953    2.9122398  
C   -1.9628268    4.9930849    2.9252484  
H   -4.9396899    5.0431793    3.3474415  
H   -1.5506404    2.4477193   -0.1755497  
H   -2.0654935    5.6767683    3.7569701  
H   -6.1011586    3.4332137    1.5589269  
C    0.0000000    0.0000000    0.0000000  
C    1.0541688   -0.0001723   -0.8560392  
C    0.5103136   -0.0000455   -2.1935956  
C   -0.9576373    0.0002461   -2.0455730  
N   -1.2018460   -0.0001389   -0.6915968  
C   -1.8348314    0.0008319   -3.0810607  
C   -1.2972851    0.0009739   -4.4314603  
O   -2.0050676    0.0014268   -5.4301316  
C    0.2542619    0.0004184   -4.6117572  
O    0.7184666    0.0002257   -5.7439122  
C    1.0974551    0.0000873   -3.4189129  
H    2.0940752   -0.0005484   -0.5817983  
H    2.1707276   -0.0000912   -3.5523673  
H   -2.1128194    0.0014915   -0.2706789  
C    3.2573670    0.0002920    2.9809380  
C    2.5379467    0.0001709    1.8291961  
C    1.1435042   -0.0000331    2.2038498  
C    1.1092607    0.0000083    3.6788474  
N    2.4227561   -0.0001909    4.0882609  
C   -0.0265533    0.0002524    4.4215661  
C   -1.3003036    0.0002640    3.7214979  
O   -2.3786784    0.0004133    4.3006425  
C   -1.2877726   -0.0000311    2.1595606  
O   -2.3539958   -0.0003306    1.5592035  
C    0.0000000    0.0000000    1.4700000  
H    2.9384090    0.0000368    0.8310761  
H   -0.0296291    0.0004086    5.5027230  
H    4.3270393    0.0004765    3.1139444  
H    2.7280493    0.0013407    5.0442112  
