62

C    2.8328491   -0.6823044   -3.3633882  
C    1.6628815    0.0345983   -3.2649297  
C    1.5242912    0.7738313   -4.4769226  
C    2.6492360    0.4649617   -5.2837838  
N    3.4245380   -0.4204016   -4.5769204  
C    2.8431021    1.0161408   -6.5539830  
C    1.8837143    1.8949006   -7.0182411  
O    2.0233097    2.4618221   -8.2519853  
C    0.7545198    2.2158484   -6.2278435  
O   -0.1103054    3.1064221   -6.8297560  
C    0.5627562    1.6726824   -4.9745582  
H    3.6983950    0.7849126   -7.1738300  
H    1.2554401    3.0343597   -8.3778525  
H   -0.8448250    3.2695318   -6.2301888  
H   -0.3119894    1.9375279   -4.3921880  
H    3.2928057   -1.3586318   -2.6634023  
C    1.1243370    0.0104708   -0.7919001  
C    0.7473984    0.0237727   -2.1148544  
C   -0.6787472    0.0231603   -2.1414704  
C   -1.1201781    0.0093826   -0.7935552  
N    0.0000000    0.0000000    0.0000000  
C   -2.4730837    0.0053186   -0.4408252  
C   -3.3972020    0.0156525   -1.4675073  
O   -4.7313574    0.0126130   -1.1793487  
C   -2.9763764    0.0290844   -2.8186338  
O   -4.0166627    0.0378030   -3.7247643  
C   -1.6418692    0.0328277   -3.1673487  
H   -2.8160145   -0.0053094    0.5845953  
H   -5.1938903    0.0208767   -2.0274402  
H   -3.6464859    0.0466784   -4.6127360  
H   -1.3497638    0.0430128   -4.2109241  
H    2.1062445    0.0061782   -0.3505403  
C    5.0681474   -2.3326847   -4.8599121  
C    6.2846305   -2.5695429   -5.4150176  
C    6.7259193   -1.3288242   -6.0072309  
C    5.6591741   -0.3426399   -5.7497698  
N    4.6829000   -1.0144005   -5.0508309  
C    5.6971243    0.9533515   -6.1506084  
C    6.8665638    1.4071540   -6.8847809  
O    6.9951997    2.5554235   -7.2888004  
C    8.0082724    0.3797372   -7.1688917  
O    8.9975920    0.7501697   -7.7863767  
C    7.8532507   -0.9901180   -6.6858619  
H    6.8124973   -3.5065323   -5.4103373  
H    4.9039462    1.6605065   -5.9513351  
H    8.6483583   -1.6952836   -6.8865299  
H    4.4205846   -3.0103259   -4.3276020  
C    2.5128556    2.1077716    2.9199648  
C    1.9592212    1.6432552    4.0696553  
C    0.8915788    0.7479214    3.6910360  
C    0.8684491    0.7287414    2.2159470  
N    1.8754542    1.5738793    1.8102719  
C    0.0000000    0.0000000    1.4700000  
C   -0.9772830   -0.8200135    2.1664417  
O   -1.8021297   -1.5120829    1.5842315  
C   -0.9711318   -0.8147624    3.7284083  
O   -1.7894187   -1.5009653    4.3257297  
C    0.0140216    0.0115358    4.4216297  
H    2.2638494    1.8988021    5.0689105  
H    0.0117648    0.0094386    5.5031631  
H    3.3327358    2.7953732    2.7900019  
H    2.1123206    1.7707734    0.8551938  
