58

C   -0.0307358   -0.0004643   -4.4215602  
C    1.0209930   -0.0006519   -5.2805951  
C    0.4733348   -0.0007741   -6.6165989  
C   -0.9941891   -0.0006121   -6.4644009  
N   -1.2345445   -0.0008267   -5.1097353  
C   -1.8743257   -0.0002659   -7.4973888  
C   -1.3406230   -0.0002637   -8.8493124  
O   -2.0512444   -0.0000277   -9.8459663  
C    0.2104047   -0.0006857   -9.0340221  
O    0.6713865   -0.0009944  -10.1674936  
C    1.0569876   -0.0007580   -7.8435818  
H    2.0616754   -0.0008816   -5.0093143  
H   -2.9472243   -0.0000221   -7.3639810  
H    2.1298761   -0.0008456   -7.9800891  
H   -2.1443170    0.0007710   -4.6862273  
C    3.2573667   -0.0002917   -1.5109384  
C    2.5379466   -0.0001708   -0.3591963  
C    1.1435040    0.0000333   -0.7338502  
C    1.1092604   -0.0000080   -2.2088477  
N    2.4227557    0.0001912   -2.6182616  
C   -0.0265537   -0.0002520   -2.9515661  
C   -1.3003040   -0.0002638   -2.2514979  
O   -2.3786786   -0.0004130   -2.8306424  
C   -1.2877728    0.0000313   -0.6895606  
O   -2.3539959    0.0003306   -0.0892032  
C    0.0000000    0.0000000    0.0000000  
H    2.9384091   -0.0000367    0.6389235  
H    2.7280487   -0.0013403   -3.5742117  
C    5.6736564   -0.0009555   -0.7359124  
C    4.7161330   -0.0005432   -1.6923264  
C    5.4441200   -0.0005494   -2.9519032  
C    6.8695485   -0.0008927   -2.5585356  
N    7.0103274   -0.0012125   -1.2607796  
C    7.9272785   -0.0010472   -3.5313120  
C    7.5769325   -0.0012560   -4.8376782  
O    8.4592368   -0.0014094   -5.8513738  
C    6.1471278   -0.0012905   -5.2664177  
O    5.9016317   -0.0013609   -6.4726315  
C    5.0804441   -0.0010858   -4.2495050  
H    8.9603207   -0.0010917   -3.2155062  
H    7.9113444   -0.0015665   -6.6569585  
H    4.0573864   -0.0012335   -4.6010479  
H    5.5430687   -0.0010918    0.3345642  
C    2.4951002    2.0940188    2.9809380  
C    1.9440701    1.6314916    1.8291961  
C    0.8759964    0.7350050    2.2038498  
C    0.8497377    0.7130254    3.6788474  
N    1.8560616    1.5571714    4.0882609  
C   -0.0205033   -0.0168748    4.4215661  
C   -0.9962600   -0.8356168    3.7214979  
O   -1.8224391   -1.5286685    4.3006425  
C   -0.9864710   -0.8277881    2.1595606  
O   -1.8030528   -1.5133726    1.5592035  
C    0.0000000    0.0000000    1.4700000  
H    2.2509283    1.8888011    0.8310761  
H   -0.0229599   -0.0187323    5.5027230  
H    3.3143982    2.7817323    3.1139444  
H    2.0889452    1.7545833    5.0442112  
