58

C   -4.4297974    2.1087673   -0.2339398  
C   -5.6380117    1.6447708   -0.6450366  
C   -5.3911869    0.7496347   -1.7507691  
C   -3.9296541    0.7300041   -1.9515856  
N   -3.4052345    1.5747190   -1.0006226  
C   -3.2941076    0.0012878   -2.9038237  
C   -4.1035805   -0.8182215   -3.7902176  
O   -3.6253066   -1.5102279   -4.6794205  
C   -5.6534087   -0.8124874   -3.5957845  
O   -6.3452686   -1.4982635   -4.3362586  
C   -6.2225101    0.0137348   -2.5340257  
H   -6.5931606    1.9005375   -0.2220859  
H   -7.2964260    0.0119737   -2.4058667  
H   -2.4284974    1.7712471   -0.8805871  
C   -6.9727850    4.2643741    2.6614022  
C   -6.5155523    3.4737360    1.6564617  
C   -5.0776066    3.6035972    1.6396618  
C   -4.7321048    4.5414026    2.7249914  
N   -5.9252892    4.9054654    3.3052145  
C   -3.4682307    4.9258650    3.0356625  
C   -2.3752934    4.3797252    2.2484181  
O   -1.2020080    4.6644565    2.4499876  
C   -2.7180569    3.3849779    1.0939503  
O   -1.8062477    2.9189061    0.4241429  
C   -4.1187218    3.0460991    0.8548857  
H   -7.1169724    2.8687549    1.0015540  
H   -3.2364314    5.6148943    3.8359240  
H   -7.9868631    4.4328020    2.9856982  
H   -6.0203408    5.5377502    4.0786670  
C    0.0000000    0.0000000    0.0000000  
C    1.0541688   -0.0001723   -0.8560392  
C    0.5103136   -0.0000455   -2.1935956  
C   -0.9576373    0.0002461   -2.0455730  
N   -1.2018460   -0.0001389   -0.6915968  
C   -1.8348314    0.0008319   -3.0810607  
C   -1.2972851    0.0009739   -4.4314603  
O   -2.0050676    0.0014268   -5.4301316  
C    0.2542619    0.0004184   -4.6117572  
O    0.7184666    0.0002257   -5.7439122  
C    1.0974551    0.0000873   -3.4189129  
H    2.0940752   -0.0005484   -0.5817983  
H    2.1707276   -0.0000912   -3.5523673  
H   -2.1128194    0.0014915   -0.2706789  
C    3.2573670    0.0002920    2.9809380  
C    2.5379467    0.0001709    1.8291961  
C    1.1435042   -0.0000331    2.2038498  
C    1.1092607    0.0000083    3.6788474  
N    2.4227561   -0.0001909    4.0882609  
C   -0.0265533    0.0002524    4.4215661  
C   -1.3003036    0.0002640    3.7214979  
O   -2.3786784    0.0004133    4.3006425  
C   -1.2877726   -0.0000311    2.1595606  
O   -2.3539958   -0.0003306    1.5592035  
C    0.0000000    0.0000000    1.4700000  
H    2.9384090    0.0000368    0.8310761  
H   -0.0296291    0.0004086    5.5027230  
H    4.3270393    0.0004765    3.1139444  
H    2.7280493    0.0013407    5.0442112  
