60

C   -1.1036577    0.2149000   -0.7919005  
C   -0.7370180    0.1263823   -2.1148551  
C    0.6603606   -0.1586160   -2.1414705  
C    1.0956081   -0.2335182   -0.7935553  
N    0.0000000    0.0000000    0.0000000  
C    2.4219217   -0.5004679   -0.4408238  
C    3.3252509   -0.6956555   -1.4675061  
O    4.6329886   -0.9598538   -1.1793472  
C    2.9102609   -0.6245410   -2.8186325  
O    3.9277282   -0.8414095   -3.7247626  
C    1.6020371   -0.3609613   -3.1673484  
H   -1.3954850    0.2528809   -2.9571209  
H    2.7600341   -0.5587304    0.5845971  
H    5.0844978   -1.0605767   -2.0274390  
H    3.5632731   -0.7759735   -4.6127346  
H   -2.0648150    0.4157414   -0.3505407  
C    1.2110792   -0.2951505   -4.5828766  
C   -0.0161122   -0.0497932   -5.0980274  
C    0.1655320   -0.1011160   -6.5405501  
C    1.6027315   -0.3961304   -6.7249610  
N    2.2207661   -0.5110384   -5.5809250  
C    2.1908854   -0.5290631   -8.0293729  
C    1.3800550   -0.3746921   -9.1008482  
O    1.7941598   -0.4718668  -10.3756484  
C   -0.0745550   -0.0768228   -8.9474073  
O   -0.7527009    0.0511718   -9.9667000  
C   -0.6540986    0.0548447   -7.5988094  
H   -0.9315671    0.1422090   -4.5649662  
H    0.9941798   -0.3143162  -10.9089048  
H   -1.7118625    0.2708967   -7.5303509  
C    3.6241413   -0.8225776   -8.1726470  
C    4.5614973   -1.0040389   -7.2069814  
C    5.8126361   -1.2656355   -7.8785868  
C    5.5252920   -1.2213577   -9.3250526  
N    4.1812802   -0.9489852   -9.4361176  
C    6.4495135   -1.4189123  -10.2989576  
C    7.8185812   -1.6936938   -9.8956157  
O    8.7233924   -1.8856936  -10.6973333  
C    8.1454877   -1.7454965   -8.3690983  
O    9.2945508   -1.9763079   -8.0174709  
C    7.0645796   -1.5159386   -7.4136973  
H    4.3953946   -0.9598768   -6.1453442  
H    6.2178732   -1.3820008  -11.3543670  
H    7.2992739   -1.5533156   -6.3585925  
H    3.6824172   -0.8543840  -10.3017005  
C    0.8681109    0.7263879    2.2709268  
C    0.6127770    0.5096195    3.5869401  
C   -0.4920590   -0.4175482    3.6542670  
C   -0.8620974   -0.7254003    2.2596025  
N    0.0000000    0.0000000    1.4700000  
C   -1.8641242   -1.5660088    1.8976294  
C   -2.6293522   -2.2103885    2.9520183  
O   -3.5512764   -2.9839180    2.7283916  
C   -2.2549728   -1.8987399    4.4361073  
O   -2.8923672   -2.4351063    5.3323774  
C   -1.1543735   -0.9755647    4.7012123  
H    1.1382914    0.9492124    4.4159191  
H   -2.1192137   -1.7782617    0.8686553  
H   -0.9013378   -0.7652422    5.7314848  
H    1.6172880    1.3558399    1.8188057  
