60

C    1.1188644    0.0008222   -0.8003801  
C    0.0000000    0.0000000    0.0000000  
C   -1.1323860    0.0008896   -0.8673528  
C   -0.6382657    0.0019677   -2.1969276  
N    0.7324021    0.0038479   -2.1202232  
C   -1.4770905    0.0027313   -3.3154810  
C   -2.8395469    0.0020939   -3.0876861  
O   -3.7039192    0.0024417   -4.1440353  
C   -3.3517864    0.0013925   -1.7684334  
O   -4.7300488    0.0012359   -1.7073129  
C   -2.5248543    0.0009118   -0.6644815  
H    1.3576321   -0.0056169   -2.9057036  
H   -4.5940026    0.0021818   -3.7685138  
H   -4.9934596    0.0007255   -0.7819925  
H   -2.9462582    0.0005600    0.3339656  
H    2.1619894    0.0009355   -0.5342064  
C    1.8836783   -2.1362887   -5.0810755  
C    1.8358595   -1.7275863   -6.3703601  
C    0.7030376   -0.8169594   -6.4333924  
C    0.1677643   -0.7920101   -5.0551891  
N    0.8558157   -1.5634008   -4.2579870  
C   -0.9736285    0.0040458   -4.6965762  
C   -1.5536714    0.7419460   -5.6704279  
O   -2.6247563    1.5303568   -5.4774864  
C   -1.0366283    0.7382173   -7.0707186  
O   -1.6142386    1.4340375   -7.9058357  
C    0.1355216   -0.0866900   -7.4135263  
H   -2.8038810    1.9233557   -6.3507665  
H    0.4792091   -0.0617357   -8.4389466  
H    2.5838933   -2.8188171   -4.6262934  
C    3.7859211   -5.5067414   -7.7044090  
C    3.0438064   -4.6294056   -6.9894772  
C    3.2011779   -3.3571730   -7.6773423  
C    4.0950138   -3.6574148   -8.8164193  
N    4.4410205   -4.9159155   -8.8375226  
C    4.4992211   -2.6457700   -9.7535841  
C    4.0314281   -1.3912941   -9.5617629  
O    4.3271349   -0.3500202  -10.3582222  
C    3.1275462   -1.0568632   -8.4218890  
O    2.7402240    0.1060486   -8.3085828  
C    2.7273128   -2.1121042   -7.4741525  
H    2.4614412   -4.8218334   -6.1046624  
H    5.1534632   -2.8933074  -10.5767497  
H    3.8492538    0.4040537   -9.9681509  
H    3.9306312   -6.5593128   -7.5196761  
C    0.0000000    0.0000000    1.4700000  
C    1.0541688    0.0001722    2.3260392  
C    0.5103138    0.0000454    3.6635956  
C   -0.9576371   -0.0002459    3.5155732  
N   -1.2018458    0.0001392    2.1615969  
C   -1.8348311   -0.0008317    4.5510609  
C   -1.2972847   -0.0009736    5.9014604  
O   -2.0050672   -0.0014265    6.9001319  
C    0.2542623   -0.0004184    6.0817573  
O    0.7184670   -0.0002256    7.2139121  
C    1.0974552   -0.0000873    4.8889129  
H    2.0940752    0.0005483    2.0517982  
H   -2.9081052   -0.0011668    4.4207061  
H    2.1707277    0.0000911    5.0223670  
H   -2.1128194   -0.0014912    1.7406791  
