58

C    2.1473375   -2.0926199   -5.9901677  
C    1.6357181   -1.6303826   -4.8202715  
C    0.5546356   -0.7348949   -5.1582028  
C    0.4777943   -0.7131856   -6.6314352  
N    1.4702310   -1.5565182   -7.0749998  
C   -0.4180461    0.0158273   -7.3439762  
C   -1.3699446    0.8338316   -6.6109729  
O   -2.2161079    1.5260620   -7.1615425  
C   -1.3065946    0.8262731   -5.0502888  
O   -2.1027135    1.5112426   -4.4223778  
C   -0.2963289   -0.0005348   -4.3948470  
H    1.9768484   -1.8872557   -3.8332256  
H   -0.4575768    0.0175016   -8.4244137  
H    2.9621990   -2.7796376   -6.1510954  
H    1.6703713   -1.7538860   -8.0383468  
C    3.1301148   -0.0010315   -1.7028253  
C    2.5367766   -0.0002767   -0.4864666  
C    1.1089903    0.0001025   -0.7656183  
C    1.0177867   -0.0004153   -2.2415131  
N    2.1993574   -0.0011616   -2.7963821  
C   -0.2459218   -0.0002884   -2.9257117  
C   -1.3675324   -0.0000610   -2.1698519  
O   -2.6129318    0.0000862   -2.6748483  
C   -1.3083588    0.0000908   -0.6783229  
O   -2.3693264    0.0004202   -0.0541688  
C    0.0000000    0.0000000    0.0000000  
H    3.0096015   -0.0001006    0.4807520  
H   -3.1967441    0.0002093   -1.8949029  
C    6.6685708   -0.0005968    0.8976874  
C    7.6427398   -0.0013908   -0.0483937  
C    6.9825039   -0.0021121   -1.3324978  
C    5.5334435   -0.0016408   -1.0549834  
N    5.4101707   -0.0011225    0.3153060  
C    4.5679459   -0.0016858   -2.0086704  
C    4.9837196   -0.0024613   -3.4013896  
O    4.1902295   -0.0026247   -4.3334167  
C    6.5131877   -0.0032224   -3.7184587  
O    6.8752468   -0.0041851   -4.8872926  
C    7.4587609   -0.0028173   -2.6050214  
H    8.7028560   -0.0016453    0.1326232  
H    8.5159864   -0.0031439   -2.8330526  
H    6.7640838    0.0001114    1.9713571  
H    4.5400778    0.0008357    0.8152879  
C    0.0000000    0.0000000    1.4700000  
C    1.0662921    0.0000102    2.3034270  
C    0.4961870   -0.0000064    3.6418889  
C   -0.9663858    0.0000850    3.4240247  
N   -1.2632773    0.0000084    2.1528658  
C   -1.8985362    0.0000517    4.5177257  
C   -1.3925775   -0.0004564    5.7720543  
O   -2.1456383   -0.0005410    6.8851312  
C    0.0786232   -0.0009323    6.0245000  
O    0.4683759   -0.0012588    7.1921102  
C    1.0143166   -0.0008442    4.8859032  
H    2.1107198   -0.0000632    2.0421868  
H   -2.9622183    0.0003270    4.3293377  
H   -1.5042274   -0.0009692    7.6184419  
H    2.0724152   -0.0013148    5.1109744  
