58

C    5.1698187   -0.7435226   -8.6600213  
C    6.0424685   -0.7726737   -9.7000729  
C    6.1085016    0.5680779  -10.2319194  
C    5.1962702    1.3866043   -9.4105546  
N    4.6584901    0.5321634   -8.4758813  
C    4.9775616    2.7132772   -9.5944281  
C    5.6878722    3.3794095  -10.6734379  
O    5.5587280    4.5714376  -10.9197967  
C    6.6587850    2.5319855  -11.5560511  
O    7.2620809    3.0818322  -12.4676227  
C    6.8118905    1.1096296  -11.2605611  
H    6.5785804   -1.6350328  -10.0543822  
H    4.3042659    3.2952686   -8.9805309  
H    7.4862015    0.5299814  -11.8762192  
H    4.8570762   -1.5466894   -8.0127153  
C    4.3834955   -0.6859722   -4.3011933  
C    3.2973506   -0.0000934   -3.8752374  
C    2.8440573    0.7452243   -5.0395080  
C    3.7976377    0.3812809   -6.1094678  
N    4.7022577   -0.4574405   -5.6826203  
C    3.6909720    0.9175298   -7.4384316  
C    2.6775117    1.7779344   -7.6873016  
O    2.4582900    2.3541659   -8.8814286  
C    1.6987829    2.1644848   -6.6286089  
O    0.8014172    2.9528433   -6.9260092  
C    1.8294973    1.6008465   -5.2731940  
H    1.6702335    2.9110075   -8.7470890  
H    1.1002949    1.9058792   -4.5346484  
H    5.0085212   -1.3581665   -3.7350919  
C    3.3321174    0.0004714   -1.3379332  
C    2.6974186    0.0000115   -2.5332308  
C    1.2800441   -0.0002119   -2.2052838  
C    1.2395035    0.0000643   -0.7271293  
N    2.4394063    0.0005458   -0.2131034  
C    0.0000000    0.0000000    0.0000000  
C   -1.1468701    0.0000634   -0.7169542  
O   -2.3742201    0.0000072   -0.1695492  
C   -1.1388767    0.0001606   -2.2096354  
O   -2.2206229    0.0000903   -2.7970413  
C    0.1454526    0.0001815   -2.9324239  
H   -2.9844344    0.0001023   -0.9290168  
H    0.1083580    0.0003680   -4.0135594  
H    4.3940040    0.0007617   -1.1498630  
C    0.8681109    0.7263879    2.2709268  
C    0.6127770    0.5096195    3.5869401  
C   -0.4920590   -0.4175482    3.6542670  
C   -0.8620974   -0.7254003    2.2596025  
N    0.0000000    0.0000000    1.4700000  
C   -1.8641242   -1.5660088    1.8976294  
C   -2.6293522   -2.2103885    2.9520183  
O   -3.5512764   -2.9839180    2.7283916  
C   -2.2549728   -1.8987399    4.4361073  
O   -2.8923672   -2.4351063    5.3323774  
C   -1.1543735   -0.9755647    4.7012123  
H    1.1382914    0.9492124    4.4159191  
H   -2.1192137   -1.7782617    0.8686553  
H   -0.9013378   -0.7652422    5.7314848  
H    1.6172880    1.3558399    1.8188057  
