58

C    4.6579140   -1.1313663   -8.9308926  
C    5.0015980   -0.8007129  -10.2023590  
C    4.7814158    0.6194294  -10.3421847  
C    4.2776996    1.0924311   -9.0386017  
N    4.2255539   -0.0174879   -8.2272746  
C    3.9499777    2.3800317   -8.7622205  
C    4.1034060    3.3657560   -9.8192645  
O    3.8350229    4.5505623   -9.6692471  
C    4.6350006    2.8870936  -11.2078230  
O    4.7680196    3.7078746  -12.1055331  
C    4.9550002    1.4728696  -11.3850873  
H    5.3674174   -1.4747625  -10.9563132  
H    3.5823396    2.7060967   -7.7991860  
H    5.3227096    1.1496039  -12.3494590  
H    4.6839099   -2.0950923   -8.4487661  
C    5.7035978   -2.1123453   -4.6323633  
C    5.5262381   -1.6495157   -5.8966447  
C    4.3945378   -0.7534734   -5.8620417  
C    3.9237597   -0.7320394   -4.4639367  
N    4.7591254   -1.5766811   -3.7699389  
C    2.8699641   -0.0020530   -4.0185824  
C    2.1513543    0.8170173   -4.9804860  
O    1.1888858    1.5100764   -4.6777910  
C    2.6323971    0.8093816   -6.4665363  
O    2.0350149    1.4947731   -7.2854586  
C    3.7812680   -0.0180953   -6.8260217  
H    6.1202750   -1.9066250   -6.7554977  
H    6.4446788   -2.7998490   -4.2581598  
H    4.6940936   -1.7721471   -2.7877924  
C    3.2573670   -0.0002921   -1.5109382  
C    2.5379468   -0.0001711   -0.3591962  
C    1.1435043    0.0000330   -0.7338498  
C    1.1092608   -0.0000085   -2.2088474  
N    2.4227562    0.0001906   -2.6182610  
C   -0.0265533   -0.0002525   -2.9515663  
C   -1.3003033   -0.0002641   -2.2514979  
O   -2.3786785   -0.0004132   -2.8306425  
C   -1.2877724    0.0000310   -0.6895608  
O   -2.3539956    0.0003306   -0.0892035  
C    0.0000000    0.0000000    0.0000000  
H    2.9384091   -0.0000370    0.6389240  
H   -0.0296290   -0.0004088   -4.0327231  
H    4.3270394   -0.0004767   -1.6439445  
C    0.0000000    0.0000000    1.4700000  
C    1.0662921    0.0000102    2.3034270  
C    0.4961870   -0.0000064    3.6418889  
C   -0.9663858    0.0000850    3.4240247  
N   -1.2632773    0.0000084    2.1528658  
C   -1.8985362    0.0000517    4.5177257  
C   -1.3925775   -0.0004564    5.7720543  
O   -2.1456383   -0.0005410    6.8851312  
C    0.0786232   -0.0009323    6.0245000  
O    0.4683759   -0.0012588    7.1921102  
C    1.0143166   -0.0008442    4.8859032  
H    2.1107198   -0.0000632    2.0421868  
H   -2.9622183    0.0003270    4.3293377  
H   -1.5042274   -0.0009692    7.6184419  
H    2.0724152   -0.0013148    5.1109744  
