58

C    5.3771347   -0.8722736   -8.6677831  
C    4.8833646    0.1895903   -7.9802429  
C    5.0201420    1.3451174   -8.8351610  
C    5.6384792    0.8659705  -10.0861072  
N    5.8298518   -0.4863540   -9.9203217  
C    5.9331049    1.6556115  -11.1497653  
C    5.6205367    3.0719726  -11.0561851  
O    5.8474644    3.8653262  -11.9602842  
C    4.9656307    3.6012775   -9.7406097  
O    4.6982484    4.7918990   -9.6501187  
C    4.6953049    2.6531283   -8.6627470  
H    6.3865505    1.2840810  -12.0582043  
H    4.2415124    3.0275980   -7.7552405  
H    5.4485805   -1.9042391   -8.3647432  
H    6.2340718   -1.0989872  -10.6046714  
C    6.1812373   -2.0122605   -4.4510963  
C    5.2702187   -1.6303461   -3.5260204  
C    4.3856200   -0.7126510   -4.2273195  
C    4.9238565   -0.6545500   -5.6033682  
N    5.9763881   -1.4143797   -5.7405736  
C    4.3191903    0.1574945   -6.6231959  
C    3.2262690    0.8784137   -6.2838837  
O    2.5612865    1.6787218   -7.1343809  
C    2.6590319    0.8406141   -4.9036753  
O    1.6623422    1.5226360   -4.6656073  
C    3.2973506   -0.0000934   -3.8752374  
H    5.2063282   -1.9339561   -2.4950913  
H    1.8346677    2.0540005   -6.6049057  
H    7.0103757   -2.6904146   -4.3261563  
C    3.3321174    0.0004714   -1.3379332  
C    2.6974186    0.0000115   -2.5332308  
C    1.2800441   -0.0002119   -2.2052838  
C    1.2395035    0.0000643   -0.7271293  
N    2.4394063    0.0005458   -0.2131034  
C    0.0000000    0.0000000    0.0000000  
C   -1.1468701    0.0000634   -0.7169542  
O   -2.3742201    0.0000072   -0.1695492  
C   -1.1388767    0.0001606   -2.2096354  
O   -2.2206229    0.0000903   -2.7970413  
C    0.1454526    0.0001815   -2.9324239  
H   -2.9844344    0.0001023   -0.9290168  
H    0.1083580    0.0003680   -4.0135594  
H    4.3940040    0.0007617   -1.1498630  
C    2.3971438    2.0127888    3.1728260  
C    1.9431056    1.6308205    1.9564670  
C    0.8496017    0.7127664    2.2356185  
C    0.7794028    0.6545384    3.7115134  
N    1.6840587    1.4146091    4.2663826  
C   -0.1885723   -0.1578550    4.3957118  
C   -1.0476298   -0.8789867    3.6398520  
O   -2.0015663   -1.6796266    4.1448486  
C   -1.0022026   -0.8410666    2.1483229  
O   -1.8147390   -1.5232959    1.5241687  
C    0.0000000    0.0000000    1.4700000  
H    2.3054237    1.9346118    0.9892483  
H   -0.2170646   -0.1815267    5.4753125  
H   -2.4487139   -2.0549881    3.3649027  
H    3.2048689    2.6911772    3.3971983  
