60

C    0.0000000    0.0000000    0.0000000  
C    1.0541691   -0.0001722   -0.8560385  
C    0.5103148   -0.0000454   -2.1935953  
C   -0.9576360    0.0002459   -2.0455733  
N   -1.2018453   -0.0001391   -0.6915972  
C   -1.8348299    0.0008316   -3.0810614  
C   -1.2972830    0.0009736   -4.4314610  
O   -2.0050651    0.0014265   -5.4301325  
C    0.2542642    0.0004184   -4.6117570  
O    0.7184692    0.0002257   -5.7439117  
C    1.0974567    0.0000874   -3.4189124  
H    2.0940754   -0.0005483   -0.5817975  
H   -2.1128192    0.0014911   -0.2706798  
C    4.3636281   -2.0897860   -1.3068084  
C    3.1526646   -1.6280929   -1.7123717  
C    3.3926039   -0.7336531   -2.8201811  
C    4.8530879   -0.7119657   -3.0282839  
N    5.3836012   -1.5543088   -2.0785979  
C    5.4827015    0.0161948   -3.9848787  
C    4.6675287    0.8332388   -4.8683193  
O    5.1402575    1.5246597   -5.7609365  
C    3.1187362    0.8256860   -4.6658587  
O    2.4221621    1.5098520   -5.4033969  
C    2.5562225   -0.0001552   -3.6002994  
H    2.2000533   -1.8846674   -1.2842191  
H    6.5552933    0.0178694   -4.1207268  
H    4.5967585   -2.7759988   -0.5089036  
H    6.3609949   -1.7514456   -1.9650836  
C   -4.4297981    2.1087665   -0.2339418  
C   -5.6380121    1.6447698   -0.6450391  
C   -5.3911861    0.7496337   -1.7507715  
C   -3.9296532    0.7300034   -1.9515874  
N   -3.4052343    1.5747183   -1.0006241  
C   -3.2941060    0.0012872   -2.9038252  
C   -4.1035784   -0.8182220   -3.7902195  
O   -3.6253038   -1.5102283   -4.6794217  
C   -5.6534072   -0.8124887   -3.5957873  
O   -6.3452665   -1.4982649   -4.3362617  
C   -6.2225092    0.0137336   -2.5340282  
H   -6.5931613    1.9005363   -0.2220888  
H   -7.2964256    0.0119722   -2.4058699  
H   -4.2016953    2.7960857    0.5644637  
H   -2.4284973    1.7712466   -0.8805879  
C    1.1243417   -0.0099156    2.2619005  
C    0.7474090   -0.0234034    3.5848544  
C   -0.6787367   -0.0234952    3.6114698  
C   -1.1201739   -0.0099357    2.2635546  
N    0.0000000    0.0000000    1.4700000  
C   -2.4730812   -0.0065396    1.9108239  
C   -3.3971947   -0.0173298    2.9375057  
O   -4.7313508   -0.0149487    2.6493466  
C   -2.9763630   -0.0305536    4.2886322  
O   -4.0166453   -0.0397858    5.1947621  
C   -1.6418541   -0.0336380    4.6373480  
H    1.4178735   -0.0310004    4.4271209  
H   -2.8160170    0.0039190    0.8854031  
H   -5.1938803   -0.0234410    3.4974381  
H   -3.6464643   -0.0484781    6.0827341  
H   -1.3497443   -0.0436789    5.6809233  
H    2.1062470   -0.0051382    1.8205408  
