58

C   -2.5562217    0.0003185   -3.6003004  
C   -3.5357960   -0.0001824   -2.6598167  
C   -4.7960228    0.0004446   -3.3645604  
C   -4.4679966    0.0013291   -4.8030279  
N   -3.0942340    0.0016061   -4.8782989  
C   -5.3873316    0.0017028   -5.8012902  
C   -6.7937412    0.0014264   -5.4344818  
O   -7.6974446    0.0017849   -6.2600841  
C   -7.1641094    0.0007442   -3.9170394  
O   -8.3448923    0.0008131   -3.5960821  
C   -6.0844253    0.0001079   -2.9331018  
H   -3.3919680   -0.0007259   -1.5940186  
H   -6.3492939   -0.0005676   -1.8844993  
H   -2.5641254    0.0006303   -5.7303735  
C    0.0000000    0.0000000    0.0000000  
C   -1.0541691    0.0002396   -0.8560393  
C   -0.5103143    0.0000779   -2.1935955  
C    0.9576367   -0.0003073   -2.0455731  
N    1.2018460    0.0000621   -0.6915968  
C    1.8348304   -0.0009493   -3.0810612  
C    1.2972842   -0.0010570   -4.4314604  
O    2.0050666   -0.0015552   -5.4301322  
C   -0.2542626   -0.0004024   -4.6117572  
O   -0.7184677   -0.0001800   -5.7439119  
C   -1.0974556   -0.0000173   -3.4189126  
H   -2.0940749    0.0006824   -0.5817981  
H    2.9081049   -0.0013531   -2.9507064  
H    2.1128196   -0.0016264   -0.2706790  
C   -4.0222677   -0.7019776   -7.8016500  
C   -5.0313847    0.0024092   -7.2275448  
C   -5.6796290    0.7451645   -8.2824995  
C   -4.9603150    0.4133596   -9.5272015  
N   -3.9670690   -0.4680086   -9.1672820  
C   -5.2691027    0.9135606  -10.7503752  
C   -6.3841913    1.8407605  -10.8473997  
O   -6.7405220    2.3458191  -11.9039252  
C   -7.1599786    2.2064753   -9.5419447  
O   -8.1003948    2.9862732   -9.6111834  
C   -6.7335624    1.6026971   -8.2819959  
H   -4.7287232    0.6571132  -11.6510053  
H   -7.2760743    1.8609511   -7.3827129  
H   -3.3141405   -1.3721495   -7.3419597  
H   -3.3054110   -0.8796154   -9.7996081  
C    3.1301144    0.0010313    3.1728260  
C    2.5367765    0.0002768    1.9564670  
C    1.1089900   -0.0001027    2.2356185  
C    1.0177864    0.0004150    3.7115134  
N    2.1993570    0.0011613    4.2663826  
C   -0.2459220    0.0002880    4.3957118  
C   -1.3675327    0.0000606    3.6398520  
O   -2.6129319   -0.0000866    4.1448486  
C   -1.3083589   -0.0000910    2.1483229  
O   -2.3693264   -0.0004206    1.5241687  
C    0.0000000    0.0000000    1.4700000  
H    3.0096015    0.0001008    0.9892483  
H   -0.2829642    0.0004689    5.4753125  
H   -3.1967446   -0.0002093    3.3649027  
H    4.1849273    0.0015113    3.3971983  
