58

C   10.0014584   -2.0936806   -1.0490937  
C    8.9907162   -1.6320523   -1.8297179  
C    9.5809602   -0.7374952   -2.7972997  
C   11.0288106   -0.7156683   -2.5143811  
N   11.2182211   -1.5580511   -1.4432113  
C   11.9375036    0.0126283   -3.2112068  
C   11.4574653    0.8296825   -4.3132602  
O   12.1969691    1.5212207   -5.0011627  
C    9.9280522    0.8219833   -4.6305000  
O    9.5121525    1.5061561   -5.5558082  
C    9.0469772   -0.0039980   -3.8087253  
H    7.9503695   -1.8887432   -1.7380597  
H   12.9952417    0.0144039   -2.9873872  
H    9.9597835   -2.7799442   -0.2189158  
H   12.1041933   -1.7551167   -1.0151160  
C    5.6039770   -0.0017519   -1.1379123  
C    4.5679461   -0.0016854   -2.0086701  
C    5.1852103   -0.0025558   -3.3260478  
C    6.6391264   -0.0029687   -3.0563960  
N    6.8907016   -0.0025811   -1.7754982  
C    7.6095177   -0.0038924   -4.1163136  
C    7.1484101   -0.0047705   -5.3878139  
O    7.9405118   -0.0056803   -6.4734530  
C    5.6870989   -0.0047545   -5.6923313  
O    5.3390449   -0.0054589   -6.8730425  
C    4.7115728   -0.0037536   -4.5876722  
H    7.3255396   -0.0061817   -7.2290731  
H    3.6621313   -0.0038906   -4.8501667  
H    5.5656908   -0.0012541   -0.0601800  
C    3.1301149   -0.0010311   -1.7028252  
C    2.5367768   -0.0002767   -0.4864665  
C    1.1089904    0.0001028   -0.7656183  
C    1.0177872   -0.0004148   -2.2415132  
N    2.1993578   -0.0011611   -2.7963820  
C   -0.2459209   -0.0002877   -2.9257118  
C   -1.3675319   -0.0000605   -2.1698524  
O   -2.6129313    0.0000867   -2.6748490  
C   -1.3083584    0.0000910   -0.6783232  
O   -2.3693261    0.0004206   -0.0541692  
C    0.0000000    0.0000000    0.0000000  
H    3.0096017   -0.0001007    0.4807525  
H   -0.2829630   -0.0004687   -4.0053125  
H   -3.1967441    0.0002094   -1.8949034  
C    0.8175213    0.6860729    2.3021913  
C    0.0000000    0.0000000    1.4700000  
C   -0.8887526   -0.7456559    2.3478473  
C   -0.4549825   -0.3816753    3.7138435  
N    0.5448156    0.4573574    3.6934124  
C   -1.0945674   -0.9182058    4.8835240  
C   -2.1210866   -1.7789155    4.6970523  
O   -2.8083856   -2.3554314    5.6976972  
C   -2.5824069   -2.1655116    3.3310774  
O   -3.5227682   -2.9541547    3.2362962  
C   -1.9100805   -1.6015804    2.1470656  
H   -0.7567140   -0.6349833    5.8697035  
H   -3.4728268   -2.9124471    5.2533954  
H   -2.2742832   -1.9066565    1.1752040  
H    1.6189533    1.3585343    2.0405121  
