60

C    3.3041273    0.0001179   -1.5420430  
C    2.5845371   -0.0004779   -0.3695859  
C    1.2040005   -0.0000007   -0.7283590  
C    1.1422373    0.0006038   -2.1454373  
N    2.4348640    0.0026111   -2.6077467  
C   -0.0655182    0.0008798   -2.8497918  
C   -1.2321770    0.0002324   -2.1101398  
O   -2.4392816    0.0001148   -2.7472518  
C   -1.1911211   -0.0000007   -0.6955265  
O   -2.4371525   -0.0002320   -0.1032864  
C    0.0000000    0.0000000    0.0000000  
H    3.0031536   -0.0000659    0.6222578  
H    2.7054629   -0.0071097   -3.5745262  
H   -3.1132988   -0.0000647   -2.0551787  
H   -2.3200281   -0.0004071    0.8516404  
H    4.3686621    0.0004072   -1.7024296  
C    2.2805262   -2.0884668   -5.9525543  
C    1.7869811   -1.6272474   -4.7745199  
C    0.7005263   -0.7318378   -5.0949771  
C    0.6008356   -0.7090651   -6.5668237  
N    1.5865173   -1.5517700   -7.0263552  
C   -0.3061620    0.0202024   -7.2648420  
C   -1.2468136    0.8373778   -6.5165548  
O   -2.1016165    1.5297582   -7.0534181  
C   -1.1592599    0.8286875   -4.9570470  
O   -1.9457422    1.5129527   -4.3163540  
C   -0.1387083    0.0017019   -4.3179684  
H    2.1434564   -1.8847454   -3.7930755  
H    3.0929929   -2.7751195   -6.1266129  
H    1.7717481   -1.7483671   -7.9928368  
C    0.1298538   -3.2540546  -10.1067828  
C   -0.0436345   -2.6265063  -11.2932329  
C   -0.2742320   -1.2317772  -10.9496422  
C   -0.2040848   -1.1951757   -9.4730504  
N    0.0326330   -2.3776571   -8.9733580  
C   -0.3826909    0.0235458   -8.7328446  
C   -0.6201787    1.1543694   -9.4358182  
O   -0.8060114    2.3615352   -8.8752312  
C   -0.6963972    1.1499114  -10.9265673  
O   -0.9159025    2.2162977  -11.5009008  
C   -0.5097820   -0.1129619  -11.6629433  
H   -0.0181697   -3.0568880  -12.2797421  
H   -0.9519897    2.9640821   -9.6267502  
H   -0.5723592   -0.0739476  -12.7421998  
H    0.3253188   -4.2999404   -9.9310285  
C    0.8681109    0.7263879    2.2709268  
C    0.6127770    0.5096195    3.5869401  
C   -0.4920590   -0.4175482    3.6542670  
C   -0.8620974   -0.7254003    2.2596025  
N    0.0000000    0.0000000    1.4700000  
C   -1.8641242   -1.5660088    1.8976294  
C   -2.6293522   -2.2103885    2.9520183  
O   -3.5512764   -2.9839180    2.7283916  
C   -2.2549728   -1.8987399    4.4361073  
O   -2.8923672   -2.4351063    5.3323774  
C   -1.1543735   -0.9755647    4.7012123  
H    1.1382914    0.9492124    4.4159191  
H   -2.1192137   -1.7782617    0.8686553  
H   -0.9013378   -0.7652422    5.7314848  
H    1.6172880    1.3558399    1.8188057  
