58

C   -0.1973562   -3.0087530  -10.3309911  
C   -0.3914060   -2.2722049  -11.4552323  
C   -0.6085335   -0.9086292  -11.0329137  
C   -0.5244425   -0.9111589   -9.5599197  
N   -0.2738214   -2.2143821   -9.1970302  
C   -0.6742159    0.1888312   -8.7793463  
C   -0.9359100    1.4600361   -9.4336319  
O   -1.0858741    2.5074811   -8.8182700  
C   -1.0292851    1.4860342  -10.9926095  
O   -1.2495210    2.5504252  -11.5545951  
C   -0.8498707    0.2351833  -11.7254360  
H   -0.3835398   -2.6419507  -12.4651025  
H   -0.9158178    0.2617630  -12.8046339  
H   -0.0051370   -4.0650743  -10.2354597  
H   -0.1615318   -2.5381681   -8.2538434  
C    2.0407259   -2.0139650   -6.1785238  
C    1.6287192   -1.6317253   -4.9473771  
C    0.5264171   -0.7135552   -5.1890257  
C    0.4056584   -0.6555640   -6.6616555  
N    1.2906467   -1.4158622   -7.2470885  
C   -0.5850929    0.1568589   -7.3123990  
C   -1.4176232    0.8782449   -6.5276508  
O   -2.3882008    1.6789420   -6.9997770  
C   -1.3210824    0.8405679   -5.0385497  
O   -2.1116406    1.5230226   -4.3870179  
C   -0.2963293   -0.0005341   -4.3948471  
H    2.0239474   -1.9354085   -3.9930991  
H   -2.8082867    2.0545009   -6.2050216  
H    2.8401847   -2.6925111   -6.4303447  
C    3.1301146   -0.0010313   -1.7028256  
C    2.5367765   -0.0002766   -0.4864669  
C    1.1089901    0.0001027   -0.7656184  
C    1.0177865   -0.0004150   -2.2415133  
N    2.1993571   -0.0011612   -2.7963824  
C   -0.2459219   -0.0002879   -2.9257116  
C   -1.3675326   -0.0000606   -2.1698520  
O   -2.6129318    0.0000865   -2.6748483  
C   -1.3083588    0.0000910   -0.6783229  
O   -2.3693264    0.0004206   -0.0541685  
C    0.0000000    0.0000000    0.0000000  
H    3.0096016   -0.0001007    0.4807518  
H   -3.1967444    0.0002093   -1.8949026  
H    4.1849275   -0.0015114   -1.9271979  
C    2.3971438    2.0127888    3.1728260  
C    1.9431056    1.6308205    1.9564670  
C    0.8496017    0.7127664    2.2356185  
C    0.7794028    0.6545384    3.7115134  
N    1.6840587    1.4146091    4.2663826  
C   -0.1885723   -0.1578550    4.3957118  
C   -1.0476298   -0.8789867    3.6398520  
O   -2.0015663   -1.6796266    4.1448486  
C   -1.0022026   -0.8410666    2.1483229  
O   -1.8147390   -1.5232959    1.5241687  
C    0.0000000    0.0000000    1.4700000  
H    2.3054237    1.9346118    0.9892483  
H   -0.2170646   -0.1815267    5.4753125  
H   -2.4487139   -2.0549881    3.3649027  
H    3.2048689    2.6911772    3.3971983  
