64

C    2.3027750   -2.1230394   -5.9144743  
C    1.6515182   -1.6244167   -7.0188784  
C    0.6310522   -0.7498916   -6.5409088  
C    0.7085809   -0.7546405   -5.1246134  
N    1.7328874   -1.6001003   -4.7773242  
C   -0.1496415   -0.0015615   -4.3176961  
C   -1.1033074    0.7706085   -4.9520869  
O   -1.9667112    1.5256558   -4.2121874  
C   -1.1966333    0.7882861   -6.3641049  
O   -2.1980387    1.6065087   -6.8447736  
C   -0.3504839    0.0453976   -7.1607688  
H    1.8827173   -1.8626514   -8.0429797  
H    2.0305491   -1.7962858   -3.8387665  
H   -2.5411493    1.9798215   -4.8422822  
H   -2.1929078    1.5610739   -7.8057695  
H   -0.4460588    0.0789897   -8.2397570  
C    4.0552807   -3.6549206   -6.8955469  
C    5.0519123   -4.4850887   -6.4372752  
C    5.0399263   -4.4033457   -5.0132756  
C    4.0056631   -3.5004474   -4.6569026  
N    3.4292971   -3.0630302   -5.8235581  
C    3.7068680   -3.1785368   -3.3295431  
C    4.4657839   -3.7792683   -2.3439745  
O    4.2162460   -3.5007245   -1.0312833  
C    5.5022562   -4.6825346   -2.6796112  
O    6.1671555   -5.1969358   -1.5856987  
C    5.7977580   -5.0003645   -3.9888815  
H    5.7076946   -5.0759561   -7.0535689  
H    2.9199872   -2.4910579   -3.0513440  
H    4.8502379   -4.0174850   -0.5172043  
H    6.8504549   -5.7970584   -1.8996399  
H    6.5976674   -5.6956101   -4.2152832  
H    3.7423703   -3.4370815   -7.9023202  
C    3.3003543    0.0005276   -1.4738987  
C    2.5232814    0.0003497   -2.6090747  
C    1.1623200   -0.0001320   -2.1820103  
C    1.1711883    0.0000582   -0.7636140  
N    2.4852300   -0.0014919   -0.3662360  
C    0.0000000    0.0000000    0.0000000  
C   -1.2020384    0.0000519   -0.6806477  
O   -2.3759249    0.0003493    0.0157743  
C   -1.2314656   -0.0005115   -2.0955510  
O   -2.5054392   -0.0008039   -2.6250180  
C   -0.0764516   -0.0007274   -2.8495195  
H    2.8919955   -0.0005620   -3.6205304  
H    2.8036267    0.0088183    0.5858662  
H   -3.0835638    0.0000347   -0.6418818  
H   -2.4360047   -0.0011529   -3.5845921  
H    4.3715549    0.0004895   -1.3667136  
C    0.8681109    0.7263879    2.2709268  
C    0.6127770    0.5096195    3.5869401  
C   -0.4920590   -0.4175482    3.6542670  
C   -0.8620974   -0.7254003    2.2596025  
N    0.0000000    0.0000000    1.4700000  
C   -1.8641242   -1.5660088    1.8976294  
C   -2.6293522   -2.2103885    2.9520183  
O   -3.5512764   -2.9839180    2.7283916  
C   -2.2549728   -1.8987399    4.4361073  
O   -2.8923672   -2.4351063    5.3323774  
C   -1.1543735   -0.9755647    4.7012123  
H    1.1382914    0.9492124    4.4159191  
H   -2.1192137   -1.7782617    0.8686553  
H   -0.9013378   -0.7652422    5.7314848  
H    1.6172880    1.3558399    1.8188057  
