62

C    1.1188643    0.0008226   -0.8003809  
C    0.0000000    0.0000000    0.0000000  
C   -1.1323862    0.0008893   -0.8673527  
C   -0.6382661    0.0019674   -2.1969282  
N    0.7324019    0.0038481   -2.1202243  
C   -1.4770916    0.0027306   -3.3154811  
C   -2.8395474    0.0020924   -3.0876858  
O   -3.7039196    0.0024401   -4.1440351  
C   -3.3517873    0.0013913   -1.7684329  
O   -4.7300492    0.0012340   -1.7073128  
C   -2.5248542    0.0009110   -0.6644820  
H   -1.1067564    0.0036975   -4.3313811  
H   -4.5940030    0.0021801   -3.7685135  
H   -4.9934603    0.0007236   -0.7819913  
H   -2.9462576    0.0005588    0.3339653  
H    2.1619897    0.0009363   -0.5342071  
C    4.5426446   -2.1280460   -2.8244673  
C    4.7840764   -1.6433654   -4.0890868  
C    3.7027654   -0.7718616   -4.4144297  
C    2.8248674   -0.7639989   -3.3003566  
N    3.3636328   -1.5993764   -2.3535230  
C    1.6478436   -0.0100096   -3.2703001  
C    1.3518117    0.7501216   -4.3850837  
O    0.2151945    1.5054722   -4.4087633  
C    2.2150333    0.7551145   -5.5065294  
O    1.7815966    1.5622772   -6.5380165  
C    3.3762254    0.0113188   -5.5369822  
H    2.9665981   -1.7854927   -1.4503587  
H    0.2007685    1.9502728   -5.2662070  
H    2.4205812    1.5086862   -7.2552545  
H    4.0176563    0.0350491   -6.4101841  
H    5.1174447   -2.8101409   -2.2217151  
C    6.9062469   -5.4291097   -4.7583185  
C    7.8548566   -5.0035722   -5.6318929  
C    7.6338947   -3.5917223   -5.8385121  
C    6.4704716   -3.2269894   -5.0077249  
N    6.0761125   -4.3853120   -4.3787105  
C    5.9450624   -1.9783883   -4.9262080  
C    6.5667913   -0.9233890   -5.7091288  
O    6.1674568    0.2336778   -5.7036528  
C    7.7999148   -1.2870802   -6.5962259  
O    8.3314940   -0.4072623   -7.2600061  
C    8.2753060   -2.6683215   -6.6014407  
H    8.6217383   -5.6095923   -6.0804969  
H    9.1297543   -2.9118505   -7.2181542  
H    6.7436325   -6.4174679   -4.3600787  
H    5.3053639   -4.4603878   -3.7404642  
C    0.0000000    0.0000000    1.4700000  
C    1.0541688    0.0001722    2.3260392  
C    0.5103138    0.0000454    3.6635956  
C   -0.9576371   -0.0002459    3.5155732  
N   -1.2018458    0.0001392    2.1615969  
C   -1.8348311   -0.0008317    4.5510609  
C   -1.2972847   -0.0009736    5.9014604  
O   -2.0050672   -0.0014265    6.9001319  
C    0.2542623   -0.0004184    6.0817573  
O    0.7184670   -0.0002256    7.2139121  
C    1.0974552   -0.0000873    4.8889129  
H    2.0940752    0.0005483    2.0517982  
H   -2.9081052   -0.0011668    4.4207061  
H    2.1707277    0.0000911    5.0223670  
H   -2.1128194   -0.0014912    1.7406791  
