64

C   -3.3003122   -0.0165560   -1.4739002  
C   -2.5232480   -0.0126041   -2.6090757  
C   -1.1623054   -0.0055129   -2.1820104  
C   -1.1711743   -0.0057463   -0.7636144  
N   -2.4852076   -0.0105778   -0.3662369  
C    0.0000000    0.0000000    0.0000000  
C    1.2020255    0.0057859   -0.6806470  
O    2.3758985    0.0111895    0.0157760  
C    1.2314490    0.0064920   -2.0955499  
O    2.5054065    0.0129717   -2.6250164  
C    0.0764491    0.0010986   -2.8495191  
H   -2.8919620   -0.0134832   -3.6205313  
H   -2.8035507   -0.0224341    0.5858653  
H    3.0835282    0.0149409   -0.6418800  
H    2.4359729    0.0129836   -3.5845905  
H    0.1304035    0.0019756   -3.9319084  
C   -6.5581266   -0.0348230   -4.4647512  
C   -7.6102847   -0.0393463   -3.5785178  
C   -7.0498508   -0.0358524   -2.2668388  
C   -5.6394028   -0.0288706   -2.4168833  
N   -5.3748187   -0.0303751   -3.7639581  
C   -4.7629912   -0.0236076   -1.3275425  
C   -5.3205775   -0.0251189   -0.0637101  
O   -4.5107559   -0.0198188    1.0350052  
C   -6.7255014   -0.0324280    0.1064437  
O   -7.1254968   -0.0334565    1.4268025  
C   -7.5907042   -0.0378959   -0.9677632  
H   -4.4592075   -0.0159485   -4.1755765  
H   -5.0946849   -0.0222863    1.8046062  
H   -8.0872029   -0.0385070    1.4532517  
H   -8.6623283   -0.0436268   -0.8063069  
H   -6.5581208   -0.0358635   -5.5413006  
C   -9.5939179   -0.7706374   -4.9702435  
C   -9.0346193   -0.0479290   -3.9419708  
C  -10.0935928    0.6750397   -3.3170780  
C  -11.2862669    0.3507215   -4.0129753  
N  -10.9469320   -0.5277928   -5.0118155  
C  -12.5319601    0.8835678   -3.6678486  
C  -12.5744767    1.7595380   -2.6005874  
O  -13.7648973    2.3088384   -2.2208733  
C  -11.3952459    2.0957231   -1.8940379  
O  -11.6022378    2.9812416   -0.8565626  
C  -10.1659548    1.5706475   -2.2341309  
H  -11.5887202   -0.9412287   -5.6638585  
H  -13.4446271    0.6405055   -4.1943088  
H  -13.5729862    2.8825474   -1.4676842  
H  -10.7566149    3.1554459   -0.4320885  
H   -9.2799652    1.8468817   -1.6744907  
H   -9.1345313   -1.4390138   -5.6781958  
C    2.5128556    2.1077716    2.9199648  
C    1.9592212    1.6432552    4.0696553  
C    0.8915788    0.7479214    3.6910360  
C    0.8684491    0.7287414    2.2159470  
N    1.8754542    1.5738793    1.8102719  
C    0.0000000    0.0000000    1.4700000  
C   -0.9772830   -0.8200135    2.1664417  
O   -1.8021297   -1.5120829    1.5842315  
C   -0.9711318   -0.8147624    3.7284083  
O   -1.7894187   -1.5009653    4.3257297  
C    0.0140216    0.0115358    4.4216297  
H    2.2638494    1.8988021    5.0689105  
H    0.0117648    0.0094386    5.5031631  
H    3.3327358    2.7953732    2.7900019  
H    2.1123206    1.7707734    0.8551938  
