62

C    3.3003567    0.0005272   -1.4738957  
C    2.5232846    0.0003491   -2.6090726  
C    1.1623230   -0.0001323   -2.1820094  
C    1.1711899    0.0000580   -0.7636134  
N    2.4852310   -0.0014922   -0.3662337  
C    0.0000000    0.0000000    0.0000000  
C   -1.2020371    0.0000517   -0.6806503  
O   -2.3759245    0.0003494    0.0157716  
C   -1.2314628   -0.0005116   -2.0955523  
O   -2.5054357   -0.0008042   -2.6250211  
C   -0.0764485   -0.0007278   -2.8495199  
H    2.8036265    0.0088179    0.5858688  
H   -3.0835627    0.0000348   -0.6418851  
H   -2.4360002   -0.0011535   -3.5845952  
H   -0.1304048   -0.0013427   -3.9319090  
H    4.3715568    0.0004891   -1.3667094  
C    5.9080493   -2.1212801   -4.5066860  
C    5.7372550   -1.6233291   -5.7776467  
C    4.6108351   -0.7493055   -5.7345029  
C    4.1315455   -0.7536537   -4.3995168  
N    4.9405926   -1.5984042   -3.6808671  
C    3.0267482   -0.0008959   -3.9901674  
C    2.3944545    0.7705355   -4.9458218  
O    1.3109418    1.5252422   -4.6002321  
C    2.8575206    0.7878042   -6.2830161  
O    2.1214491    1.6052977   -7.1156306  
C    3.9472040    0.0452315   -6.6876180  
H    4.8499668   -1.7941743   -2.7003354  
H    1.0265095    1.9789010   -5.4043196  
H    2.4998764    1.5596259   -7.9989825  
H    4.2786944    0.0784961   -7.7188729  
H    6.6425573   -2.8091606   -4.1242236  
C    7.5279077   -5.4003429   -7.1234063  
C    8.1516410   -4.9650593   -8.2483774  
C    7.8802075   -3.5513078   -8.3600294  
C    7.0412194   -3.1960802   -7.1995541  
N    6.8636881   -4.3611586   -6.4896496  
C    6.5719999   -1.9487844   -6.9430568  
C    6.9160949   -0.8852577   -7.8720587  
O    6.5420940    0.2713915   -7.7285755  
C    7.8033326   -1.2388075   -9.1080270  
O    8.0992587   -0.3517558   -9.8972207  
C    8.2489690   -2.6195650   -9.2776392  
H    8.7351236   -5.5658212   -8.9230971  
H    8.8631260   -2.8560464  -10.1359001  
H    7.4974187   -6.3928993   -6.7041310  
H    6.3349170   -4.4434259   -5.6407205  
C    0.8400945    0.7047457    2.2710304  
C    0.0000000    0.0000000    1.4700000  
C   -0.8844236   -0.7423113    2.3369512  
C   -0.4878984   -0.4098547    3.7186280  
N    0.5629682    0.4714286    3.6095011  
C   -1.0836927   -0.9095027    4.8308716  
C   -2.1891196   -1.8367527    4.6554461  
O   -2.7906899   -2.3413415    5.5944904  
C   -2.6257283   -2.2031529    3.2011665  
O   -3.5549479   -2.9829990    3.0410059  
C   -1.9068976   -1.5999348    2.0816745  
H   -0.7774656   -0.6525820    5.8354244  
H   -2.2155208   -1.8586617    1.0779135  
H    1.6384792    1.3747609    1.9961646  
H    1.0518368    0.8833920    4.3830260  
