58

C    9.9912793    0.7294616   -1.1824460  
C   11.2521200    0.5131673   -0.7268470  
C   11.1483129   -0.4142622    0.3749397  
C    9.7133552   -0.7227848    0.5249430  
N    9.0661420    0.0025169   -0.4486803  
C    9.2012550   -1.5638046    1.4588287  
C   10.1250079   -2.2079512    2.3776820  
O    9.7619400   -2.9818145    3.2538212  
C   11.6489843   -1.8955944    2.2372103  
O   12.4362244   -2.4317589    3.0053505  
C   12.0805773   -0.9720219    1.1909821  
H   12.1521568    0.9532387   -1.1178529  
H    8.1453155   -1.7765474    1.5517960  
H   13.1374819   -0.7612095    1.1002442  
H    9.6600854    1.3589240   -1.9923704  
C    6.8068812    0.0035022   -4.1747019  
C    5.5278581    0.0022330   -3.7323476  
C    5.6328267    0.0014349   -2.2813200  
C    7.0869584    0.0022985   -2.0128347  
N    7.7802401    0.0035921   -3.1188854  
C    7.6138018    0.0019125   -0.6758521  
C    6.7282252    0.0011070    0.3464433  
O    7.0793813    0.0006615    1.6436439  
C    5.2547112    0.0005945    0.1078690  
O    4.5071908   -0.0002588    1.0858431  
C    4.7390840    0.0009613   -1.2727298  
H    4.6247032    0.0019722   -4.3183399  
H    6.2347357    0.0001390    2.1291604  
H    7.1567941    0.0044018   -5.1947674  
C    3.2798077    0.0005856   -1.4499661  
C    2.5571132    0.0005565   -2.5996564  
C    1.1637425    0.0001547   -2.2210366  
C    1.1336959   -0.0000200   -0.7459475  
N    2.4483509   -0.0001429   -0.3402730  
C    0.0000000    0.0000000    0.0000000  
C   -1.2757370   -0.0000187   -0.6964411  
O   -2.3524597   -0.0000640   -0.1142306  
C   -1.2676502   -0.0000874   -2.2584078  
O   -2.3355774   -0.0004102   -2.8557287  
C    0.0181551    0.0001758   -2.9516297  
H    2.9547342    0.0006074   -3.5989118  
H    0.0150776    0.0003317   -4.0331632  
H    2.7563626    0.0012823    0.6148051  
C    0.0000000    0.0000000    1.4700000  
C    1.0662921    0.0000102    2.3034270  
C    0.4961870   -0.0000064    3.6418889  
C   -0.9663858    0.0000850    3.4240247  
N   -1.2632773    0.0000084    2.1528658  
C   -1.8985362    0.0000517    4.5177257  
C   -1.3925775   -0.0004564    5.7720543  
O   -2.1456383   -0.0005410    6.8851312  
C    0.0786232   -0.0009323    6.0245000  
O    0.4683759   -0.0012588    7.1921102  
C    1.0143166   -0.0008442    4.8859032  
H    2.1107198   -0.0000632    2.0421868  
H   -2.9622183    0.0003270    4.3293377  
H   -1.5042274   -0.0009692    7.6184419  
H    2.0724152   -0.0013148    5.1109744  
