62

C    3.3041270    0.0001178   -1.5420432  
C    2.5845372   -0.0004779   -0.3695853  
C    1.2040007   -0.0000006   -0.7283591  
C    1.1422373    0.0006039   -2.1454374  
N    2.4348636    0.0026110   -2.6077466  
C   -0.0655186    0.0008800   -2.8497915  
C   -1.2321770    0.0002326   -2.1101397  
O   -2.4392818    0.0001149   -2.7472515  
C   -1.1911209   -0.0000006   -0.6955262  
O   -2.4371522   -0.0002319   -0.1032858  
C    0.0000000    0.0000000    0.0000000  
H    3.0031535   -0.0000661    0.6222580  
H    2.7054625   -0.0071097   -3.5745263  
H   -3.1132993   -0.0000646   -2.0551781  
H   -2.3200286   -0.0004070    0.8516413  
C    6.7748104   -0.0036706    1.2764671  
C    5.5082316   -0.0035545    0.7395824  
C    5.6573261   -0.0010104   -0.6789959  
C    7.0493885    0.0000631   -0.9511879  
N    7.6991157    0.0003497    0.2581387  
C    7.5659478    0.0022524   -2.2503990  
C    6.6607397    0.0030713   -3.2938426  
O    7.1109041    0.0048476   -4.5823934  
C    5.2680297    0.0023992   -3.0424938  
O    4.4967627    0.0037872   -4.1863858  
C    4.7577214    0.0005130   -1.7610465  
H    4.5898239   -0.0040066    1.3012937  
H    8.6954215   -0.0094974    0.3816709  
H    8.6258301    0.0032241   -2.4645276  
H    6.3261385    0.0054441   -5.1457819  
H    3.5699429    0.0031882   -3.9283021  
H    7.0920031   -0.0048575    2.3052266  
C    0.6885576   -0.7240829   -5.1615361  
C    0.3679846   -0.5066242   -6.4630813  
C   -0.7389728    0.4203837   -6.4747896  
C   -1.0391596    0.7273897   -5.0632567  
N   -0.1387086    0.0017020   -4.3179679  
C   -2.0220479    1.5676167   -4.6513656  
C   -2.8389207    2.2124490   -5.6659812  
O   -3.7486839    2.9856886   -5.3962914  
C   -2.5388501    1.9016974   -7.1670460  
O   -3.2201592    2.4384509   -8.0301645  
C   -1.4526764    0.9788672   -7.4871439  
H    0.8516394   -0.9456596   -7.3174463  
H   -2.2256211    1.7792486   -3.6108468  
H   -1.2512191    0.7691660   -8.5288562  
H    1.4594109   -1.3536536   -4.7476336  
C    2.5528530    2.1414826    2.8079335  
C    2.0663498    1.7338582    4.0032312  
C    0.9804344    0.8229586    3.6752840  
C    0.9495562    0.7966882    2.1971295  
N    1.8690446    1.5676019    1.6831036  
C    0.0000000    0.0000000    1.4700000  
C   -0.8785127   -0.7372425    2.1869543  
O   -1.8187535   -1.5261249    1.6395491  
C   -0.8723269   -0.7321790    3.6796354  
O   -1.7010379   -1.4274584    4.2670412  
C    0.1115397    0.0933559    4.4024240  
H    2.4028853    2.0163452    4.9860947  
H   -2.2861435   -1.9184361    2.3990168  
H    0.0832434    0.0693689    5.4835595  
H    3.3664920    2.8238276    2.6198634  
