58

C   -3.9842539    0.7274599   -1.9451209  
C   -5.3215327    0.5112356   -2.0400278  
C   -5.5219228   -0.4153214   -3.1291425  
C   -4.1821622   -0.7234085   -3.6647869  
N   -3.2941077    0.0012869   -2.9038234  
C   -3.9439561   -1.5635947   -4.7035602  
C   -5.0831561   -2.2072390   -5.3363959  
O   -4.9726043   -2.9803461   -6.2789380  
C   -6.5111636   -1.8953301   -4.7856585  
O   -7.4779449   -2.4310782   -5.3106038  
C   -6.6412928   -0.9726601   -3.6606705  
H   -2.9533236   -1.7760304   -5.0809562  
H   -7.6334625   -0.7621531   -3.2851578  
H   -3.4448692    1.3563720   -1.2556112  
C    0.0000000    0.0000000    0.0000000  
C    1.0541686   -0.0001723   -0.8560392  
C    0.5103131   -0.0000457   -2.1935955  
C   -0.9576376    0.0002457   -2.0455728  
N   -1.2018463   -0.0001391   -0.6915967  
C   -1.8348316    0.0008313   -3.0810606  
C   -1.2972858    0.0009730   -4.4314603  
O   -2.0050684    0.0014259   -5.4301316  
C    0.2542618    0.0004177   -4.6117574  
O    0.7184662    0.0002248   -5.7439123  
C    1.0974548    0.0000868   -3.4189132  
H    2.0940753   -0.0005485   -0.5817987  
H    2.1707274   -0.0000914   -3.5523672  
H   -2.1128195    0.0014912   -0.2706788  
C   -5.7806178    4.5654840   -0.4165586  
C   -6.9455544    4.4050043    0.2625908  
C   -7.3591907    3.0349395    0.0711128  
C   -6.3323658    2.4058680   -0.7813486  
N   -5.4036497    3.3868479   -1.0422202  
C   -6.3595340    1.1120644   -1.1900524  
C   -7.4746250    0.2839143   -0.7619463  
O   -7.5896084   -0.8932507   -1.0771639  
C   -8.5736497    0.9294053    0.1409881  
O   -9.5173725    0.2420938    0.5073913  
C   -8.4347880    2.3342655    0.5164046  
H   -7.4568534    5.1602529    0.8324909  
H   -9.1999071    2.7735918    1.1419517  
H   -5.1658964    5.4456787   -0.5128086  
H   -4.5780261    3.2647736   -1.5994373  
C    3.3321173   -0.0004715    2.8079335  
C    2.6974184   -0.0000116    4.0032312  
C    1.2800439    0.0002118    3.6752840  
C    1.2395035   -0.0000644    2.1971295  
N    2.4394063   -0.0005460    1.6831036  
C    0.0000000    0.0000000    1.4700000  
C   -1.1468701   -0.0000635    2.1869543  
O   -2.3742202   -0.0000073    1.6395491  
C   -1.1388768   -0.0001607    3.6796354  
O   -2.2206231   -0.0000905    4.2670412  
C    0.1454524   -0.0001816    4.4024240  
H    3.1367986    0.0000651    4.9860947  
H   -2.9844344   -0.0001026    2.3990168  
H    0.1083576   -0.0003682    5.4835595  
H    4.3940039   -0.0007619    2.6198634  
