58

C    9.0339157   -0.0011769    0.8952693  
C    9.5963626   -0.0004809    2.1312822  
C   11.0278526   -0.0011238    1.9424086  
C   11.2549017   -0.0022301    0.4845888  
N   10.0063098   -0.0026073   -0.0932587  
C   12.4781738   -0.0026827   -0.1030413  
C   13.6493134   -0.0022634    0.7577560  
O   14.7942243   -0.0026778    0.3247727  
C   13.4324067   -0.0013457    2.3046096  
O   14.4108567   -0.0012927    3.0393854  
C   12.0654414   -0.0006429    2.8196451  
H    9.0686779    0.0002016    3.0683846  
H   12.6227650   -0.0033655   -1.1744905  
H   11.9238514    0.0001961    3.8918742  
H    9.8287930   -0.0017847   -1.0809502  
C    6.5597225   -0.0008208    1.3835019  
C    7.6114515   -0.0009111    0.5244666  
C    7.0637929   -0.0009869   -0.8115371  
C    5.5962696   -0.0009036   -0.6593386  
N    5.3559137   -0.0012035    0.6953271  
C    4.7161325   -0.0005435   -1.6923264  
C    5.2498348   -0.0004421   -3.0442500  
O    4.5392134   -0.0001860   -4.0409037  
C    6.8008623   -0.0007795   -3.2289604  
O    7.2618442   -0.0010043   -4.3624314  
C    7.6474457   -0.0008758   -2.0385199  
H    8.7203338   -0.0009044   -2.1750270  
H    6.5627896   -0.0007237    2.4614069  
H    4.4461411    0.0003273    1.1188348  
C    3.2573665   -0.0002920   -1.5109385  
C    2.5379463   -0.0001709   -0.3591964  
C    1.1435038    0.0000331   -0.7338500  
C    1.1092599   -0.0000083   -2.2088477  
N    2.4227553    0.0001909   -2.6182613  
C   -0.0265539   -0.0002524   -2.9515660  
C   -1.3003040   -0.0002640   -2.2514977  
O   -2.3786790   -0.0004133   -2.8306421  
C   -1.2877727    0.0000311   -0.6895603  
O   -2.3539959    0.0003306   -0.0892030  
C    0.0000000    0.0000000    0.0000000  
H    2.9384091   -0.0000367    0.6389234  
H   -0.0296303   -0.0004086   -4.0327229  
H    2.7280482   -0.0013407   -3.5742119  
C    0.0000000    0.0000000    1.4700000  
C    1.0662921    0.0000102    2.3034270  
C    0.4961870   -0.0000064    3.6418889  
C   -0.9663858    0.0000850    3.4240247  
N   -1.2632773    0.0000084    2.1528658  
C   -1.8985362    0.0000517    4.5177257  
C   -1.3925775   -0.0004564    5.7720543  
O   -2.1456383   -0.0005410    6.8851312  
C    0.0786232   -0.0009323    6.0245000  
O    0.4683759   -0.0012588    7.1921102  
C    1.0143166   -0.0008442    4.8859032  
H    2.1107198   -0.0000632    2.0421868  
H   -2.9622183    0.0003270    4.3293377  
H   -1.5042274   -0.0009692    7.6184419  
H    2.0724152   -0.0013148    5.1109744  
