60

C   -3.9882954    0.7031701   -1.8236365  
C   -3.3460098   -0.0004261   -2.7913644  
C   -4.3538743   -0.7419633   -3.5118971  
C   -5.6452436   -0.4103055   -2.8801080  
N   -5.3545713    0.4698233   -1.8633619  
C   -6.8443197   -0.9095665   -3.2733774  
C   -6.8643129   -1.8355277   -4.3935249  
O   -7.8938502   -2.3396792   -4.8226925  
C   -5.5084415   -2.2010659   -5.0774840  
O   -5.5127437   -2.9798257   -6.0212932  
C   -4.2807772   -1.5983711   -4.5642089  
H   -7.7800877   -0.6532465   -2.7963579  
H   -3.3462066   -1.8564947   -5.0434518  
H   -3.5784438    1.3723570   -1.0846505  
H   -6.0310091    0.8810393   -1.2466113  
C    0.0000000    0.0000000    0.0000000  
C    1.0662918   -0.0000103   -0.8334272  
C    0.4961866    0.0000066   -2.1718888  
C   -0.9663862   -0.0000848   -1.9540246  
N   -1.2632777   -0.0000084   -0.6828658  
C   -1.8985367   -0.0000514   -3.0477256  
C   -1.3925783    0.0004569   -4.3020543  
O   -2.1456389    0.0005417   -5.4151310  
C    0.0786225    0.0009329   -4.5544999  
O    0.4683752    0.0012595   -5.7221105  
C    1.0143159    0.0008446   -3.4159033  
H    2.1107193    0.0000632   -0.5721869  
H   -1.5042282    0.0009699   -6.1484418  
C    4.6171591   -2.0114326   -1.7322457  
C    3.3328186   -1.6298289   -1.9231047  
C    3.3780273   -0.7112570   -3.0503497  
C    4.8069984   -0.6523613   -3.4260584  
N    5.5382123   -1.4125185   -2.6569830  
C    5.2745444    0.1606806   -4.5148420  
C    4.3562391    0.8817948   -5.1975164  
O    4.6514300    1.6830002   -6.2352896  
C    2.9068147    0.8432093   -4.8427754  
O    2.1270256    1.5254615   -5.5073669  
C    2.4521470    0.0014842   -3.7217487  
H    2.4622556   -1.9341724   -1.3676129  
H    6.3245834    0.1848324   -4.7673198  
H    3.7953875    2.0581843   -6.5102110  
H    5.0049127   -2.6900161   -0.9891812  
C    3.3003543   -0.0005276    2.9438989  
C    2.5232812   -0.0003497    4.0790748  
C    1.1623199    0.0001319    3.6520102  
C    1.1711883   -0.0000583    2.2336141  
N    2.4852299    0.0014920    1.8362361  
C    0.0000000    0.0000000    1.4700000  
C   -1.2020384   -0.0000520    2.1506477  
O   -2.3759250   -0.0003494    1.4542253  
C   -1.2314658    0.0005113    3.5655508  
O   -2.5054393    0.0008037    4.0950179  
C   -0.0764518    0.0007272    4.3195194  
H    2.8919952    0.0005619    5.0905303  
H    2.8036267   -0.0088181    0.8841339  
H   -3.0835639   -0.0000348    2.1118817  
H   -2.4360050    0.0011527    5.0545920  
H   -0.1304098    0.0013421    5.4019087  
H    4.3715549   -0.0004895    2.8367138  
