60

C    1.1243404    0.0100102   -0.7919008  
C    0.7474062    0.0234664   -2.1148548  
C   -0.6787397    0.0234382   -2.1414696  
C   -1.1201750    0.0098415   -0.7935544  
N    0.0000000    0.0000000    0.0000000  
C   -2.4730824    0.0063316   -0.4408228  
C   -3.3971968    0.0170440   -1.4675051  
O   -4.7313529    0.0145507   -1.1793449  
C   -2.9763668    0.0303033   -2.8186311  
O   -4.0166497    0.0394476   -3.7247605  
C   -1.6418585    0.0335001   -3.1673474  
H   -2.8160164   -0.0041558    0.5845979  
H   -5.1938827    0.0230039   -2.0274362  
H   -3.6464700    0.0481712   -4.6127325  
H   -1.3497497    0.0435655   -4.2109228  
H    2.1062463    0.0053155   -0.3505418  
C    4.5318044   -2.0779042   -2.8537116  
C    4.8146796   -1.6020512   -4.0937200  
C    3.7436260   -0.7033090   -4.4541943  
C    2.8068744   -0.6944835   -3.3143654  
N    3.3420462   -1.5482590   -2.3775902  
C    1.6628930    0.0339167   -3.2649307  
C    1.3320574    0.8644651   -4.4109116  
O    0.3241595    1.5571084   -4.4627602  
C    2.3096316    0.8702832   -5.6291564  
O    2.0414545    1.5654080   -6.5997972  
C    3.5120792    0.0432844   -5.5655548  
H    5.6753183   -1.8522348   -4.6881295  
H    5.0922892   -2.7711139   -2.2477362  
H    2.9325526   -1.7532965   -1.4846616  
C    4.4251627    0.0566028   -6.7175104  
C    5.5904897   -0.6178864   -6.8940101  
C    6.0944441   -0.2537628   -8.1971901  
C    5.1202231    0.6949750   -8.7695364  
N    4.1322133    0.8404327   -7.8231917  
C    5.2364007    1.2724031   -9.9921496  
C    6.3984000    0.9369197  -10.7982170  
O    6.5934803    1.4042928  -11.9125801  
C    7.4427872   -0.0658189  -10.2120636  
O    8.4249690   -0.3560781  -10.8816384  
C    7.2085569   -0.6224776   -8.8819811  
H    6.0450724   -1.2935428   -6.1915453  
H    4.5104263    1.9659535  -10.3932212  
H    7.9365351   -1.3158795   -8.4832759  
H    3.3239711    1.4273194   -7.9199194  
C    0.8400945    0.7047457    2.2710304  
C    0.0000000    0.0000000    1.4700000  
C   -0.8844236   -0.7423113    2.3369512  
C   -0.4878984   -0.4098547    3.7186280  
N    0.5629682    0.4714286    3.6095011  
C   -1.0836927   -0.9095027    4.8308716  
C   -2.1891196   -1.8367527    4.6554461  
O   -2.7906899   -2.3413415    5.5944904  
C   -2.6257283   -2.2031529    3.2011665  
O   -3.5549479   -2.9829990    3.0410059  
C   -1.9068976   -1.5999348    2.0816745  
H   -0.7774656   -0.6525820    5.8354244  
H   -2.2155208   -1.8586617    1.0779135  
H    1.6384792    1.3747609    1.9961646  
H    1.0518368    0.8833920    4.3830260  
