64

C    4.5582355   -2.0922261   -2.8633930  
C    4.7995864   -1.5811263   -4.1175836  
C    3.7180586   -0.7032889   -4.4246644  
C    2.8401178   -0.7189701   -3.3107075  
N    3.3790677   -1.5738357   -2.3815389  
C    1.6628945    0.0339172   -3.2649299  
C    1.3667037    0.8171315   -4.3635762  
O    0.2298889    1.5725143   -4.3714925  
C    2.2299651    0.8458156   -5.4846350  
O    1.7963543    1.6742716   -6.4990245  
C    3.3913533    0.1031243   -5.5305963  
H    5.6499297   -1.8133776   -4.7356192  
H    2.9820490   -1.7789142   -1.4824837  
H    0.2153770    2.0351559   -5.2194415  
H    2.4353782    1.6358685   -7.2172003  
H    4.0328102    0.1452893   -6.4030840  
C    8.3738160   -4.1786127   -3.6678947  
C    8.4519179   -4.8666522   -2.4792112  
C    7.2988934   -4.5136705   -1.7172814  
C    6.5472977   -3.5994090   -2.4990459  
N    7.2291342   -3.4163920   -3.6764249  
C    5.3433250   -3.0404216   -2.0599875  
C    4.8896687   -3.4113633   -0.8090773  
O    3.7195682   -2.8958347   -0.3314686  
C    5.6256099   -4.3219217   -0.0140370  
O    5.0424836   -4.5910074    1.2069875  
C    6.8135740   -4.8735619   -0.4464283  
H    9.2432210   -5.5392783   -2.1956483  
H    6.9319049   -2.8281616   -4.4338027  
H    3.5899105   -3.2796919    0.5455195  
H    5.6023443   -5.2136320    1.6807997  
H    7.3552787   -5.5682090    0.1848397  
H    9.0447927   -4.1701659   -4.5097241  
C    1.1243410    0.0100105   -0.7919003  
C    0.7474072    0.0234665   -2.1148542  
C   -0.6787384    0.0234379   -2.1414698  
C   -1.1201748    0.0098411   -0.7935547  
N    0.0000000    0.0000000    0.0000000  
C   -2.4730818    0.0063307   -0.4408240  
C   -3.3971962    0.0170429   -1.4675058  
O   -4.7313520    0.0145490   -1.1793468  
C   -2.9763654    0.0303020   -2.8186325  
O   -4.0166484    0.0394464   -3.7247625  
C   -1.6418567    0.0334992   -3.1673480  
H   -2.8160166   -0.0041569    0.5845966  
H   -5.1938823    0.0230023   -2.0274386  
H   -3.6464680    0.0481700   -4.6127343  
H   -1.3497475    0.0435647   -4.2109234  
H    2.1062466    0.0053162   -0.3505405  
C    0.8681109    0.7263879    2.2709268  
C    0.6127770    0.5096195    3.5869401  
C   -0.4920590   -0.4175482    3.6542670  
C   -0.8620974   -0.7254003    2.2596025  
N    0.0000000    0.0000000    1.4700000  
C   -1.8641242   -1.5660088    1.8976294  
C   -2.6293522   -2.2103885    2.9520183  
O   -3.5512764   -2.9839180    2.7283916  
C   -2.2549728   -1.8987399    4.4361073  
O   -2.8923672   -2.4351063    5.3323774  
C   -1.1543735   -0.9755647    4.7012123  
H    1.1382914    0.9492124    4.4159191  
H   -2.1192137   -1.7782617    0.8686553  
H   -0.9013378   -0.7652422    5.7314848  
H    1.6172880    1.3558399    1.8188057  
