62

C    3.3003552    0.0005275   -1.4738984  
C    2.5232817    0.0003496   -2.6090743  
C    1.1623204   -0.0001320   -2.1820099  
C    1.1711887    0.0000582   -0.7636134  
N    2.4852302   -0.0014920   -0.3662351  
C    0.0000000    0.0000000    0.0000000  
C   -1.2020380    0.0000519   -0.6806477  
O   -2.3759248    0.0003492    0.0157745  
C   -1.2314653   -0.0005115   -2.0955505  
O   -2.5054383   -0.0008042   -2.6250185  
C   -0.0764510   -0.0007275   -2.8495192  
H    2.8919961   -0.0005621   -3.6205295  
H    2.8036264    0.0088182    0.5858666  
H   -3.0835635    0.0000346   -0.6418821  
H   -2.4360041   -0.0011531   -3.5845924  
H    4.3715554    0.0004893   -1.3667125  
C    0.6257873   -0.6877067   -5.1891866  
C   -0.1496407   -0.0015617   -4.3176957  
C   -1.0813833    0.7431613   -5.1506086  
C   -0.7159746    0.3786179   -6.5363099  
N    0.2840344   -0.4599142   -6.5652282  
C   -1.4132804    0.9141716   -7.6729860  
C   -2.4296869    1.7744849   -7.4361031  
O   -3.1662524    2.3500967   -8.4015995  
C   -2.8226241    2.1616302   -6.0490633  
O   -3.7575075    2.9498673   -5.9080077  
C   -2.0918898    1.5987000   -4.8996890  
H   -3.8080358    2.9070395   -7.9250691  
H   -2.4074104    1.9041492   -3.9110649  
H    1.4396013   -1.3596275   -4.9673697  
C   -0.1504167   -2.9880329   -9.4527719  
C   -0.5639208   -2.0027084   -8.5863890  
C   -0.6591741   -0.7967871   -9.3422206  
C   -0.2887315   -1.1105538  -10.6749801  
N    0.0159679   -2.4487453  -10.7068977  
C   -0.2679188   -0.1581112  -11.6983127  
C   -0.6279112    1.1345625  -11.3703205  
O   -0.6253414    2.1039644  -12.3311883  
C   -1.0002144    1.4672602  -10.0461150  
O   -1.3314544    2.7960617   -9.8790545  
C   -1.0207131    0.5282220   -9.0360096  
H   -0.7703282   -2.1364130   -7.5382900  
H    0.3024185   -2.9594369  -11.5224475  
H    0.0135938   -0.3908300  -12.7160515  
H   -0.9038378    2.9203361  -11.8961701  
H   -1.5703887    2.9364484   -8.9577475  
H    0.0403721   -4.0325278   -9.2750392  
C    2.4951002    2.0940188    2.9809380  
C    1.9440701    1.6314916    1.8291961  
C    0.8759964    0.7350050    2.2038498  
C    0.8497377    0.7130254    3.6788474  
N    1.8560616    1.5571714    4.0882609  
C   -0.0205033   -0.0168748    4.4215661  
C   -0.9962600   -0.8356168    3.7214979  
O   -1.8224391   -1.5286685    4.3006425  
C   -0.9864710   -0.8277881    2.1595606  
O   -1.8030528   -1.5133726    1.5592035  
C    0.0000000    0.0000000    1.4700000  
H    2.2509283    1.8888011    0.8310761  
H   -0.0229599   -0.0187323    5.5027230  
H    3.3143982    2.7817323    3.1139444  
H    2.0889452    1.7545833    5.0442112  
