58

C   -0.0582920   -0.8706553   -9.6456792  
C   -0.2258923    0.1910652   -8.8157785  
C   -0.4520694    1.3468188   -9.6511907  
C   -0.4021701    0.8679612  -11.0458213  
N   -0.1598739   -0.4844292  -10.9735536  
C   -0.5702347    1.6578714  -12.1364641  
C   -0.8164948    3.0742378  -11.9224609  
O   -0.9807502    3.8678225  -12.8398183  
C   -0.8731817    3.6032389  -10.4538737  
O   -1.0795585    4.7938619  -10.2612940  
C   -0.6771604    2.6548139   -9.3602939  
H   -0.5299835    1.2865505  -13.1510625  
H   -0.7181103    3.0290742   -8.3464026  
H    0.1310977   -1.9027130   -9.3989435  
H   -0.0725185   -1.0969109  -11.7636695  
C    2.4064704   -2.0119089   -6.1315527  
C    1.9558553   -1.6301625   -4.9138521  
C    0.8614673   -0.7121809   -5.1897589  
C    0.7870640   -0.6537475   -6.6654397  
N    1.6902156   -1.4136448   -7.2229901  
C   -0.1829370    0.1586449   -7.3467641  
C   -1.0399147    0.8795790   -6.5883597  
O   -1.9953662    1.6801933   -7.0905244  
C   -0.9902404    0.8414487   -5.0969710  
O   -1.8010679    1.5235043   -4.4704093  
C    0.0139741    0.0003876   -4.4216236  
H    2.3209548   -1.9340559   -3.9477120  
H   -2.4403315    2.0553965   -6.3092554  
H    3.2136235   -2.6901819   -6.3583201  
C    3.2798085    0.0005853   -1.4499648  
C    2.5571144    0.0005562   -2.5996554  
C    1.1637436    0.0001546   -2.2210360  
C    1.1336965   -0.0000201   -0.7459470  
N    2.4483513   -0.0001430   -0.3402717  
C    0.0000000    0.0000000    0.0000000  
C   -1.2757367   -0.0000188   -0.6964414  
O   -2.3524597   -0.0000640   -0.1142313  
C   -1.2676494   -0.0000875   -2.2584081  
O   -2.3355762   -0.0004102   -2.8557294  
C    0.0181562    0.0001757   -2.9516296  
H    2.9547357    0.0006072   -3.5989105  
H    4.3498550    0.0008609   -1.3200021  
H    2.7563627    0.0012824    0.6148063  
C    2.3971438    2.0127888    3.1728260  
C    1.9431056    1.6308205    1.9564670  
C    0.8496017    0.7127664    2.2356185  
C    0.7794028    0.6545384    3.7115134  
N    1.6840587    1.4146091    4.2663826  
C   -0.1885723   -0.1578550    4.3957118  
C   -1.0476298   -0.8789867    3.6398520  
O   -2.0015663   -1.6796266    4.1448486  
C   -1.0022026   -0.8410666    2.1483229  
O   -1.8147390   -1.5232959    1.5241687  
C    0.0000000    0.0000000    1.4700000  
H    2.3054237    1.9346118    0.9892483  
H   -0.2170646   -0.1815267    5.4753125  
H   -2.4487139   -2.0549881    3.3649027  
H    3.2048689    2.6911772    3.3971983  
