60

C    0.0000000    0.0000000    0.0000000  
C    1.0521664   -0.0011860   -0.8862345  
C    0.4917209   -0.0011939   -2.1979133  
C   -0.9187438    0.0003112   -2.0478680  
N   -1.1833176   -0.0009458   -0.7007906  
C   -1.7951712    0.0010279   -3.1372084  
C   -1.2375856    0.0005172   -4.4010420  
O   -2.0474237    0.0015279   -5.4997571  
C    0.1673558   -0.0013562   -4.5711965  
O    0.5673502   -0.0020666   -5.8915551  
C    1.0325756   -0.0023374   -3.4969895  
H    2.0953052   -0.0030567   -0.6200570  
H   -2.0989781    0.0102288   -0.2891817  
H   -2.8710948    0.0020305   -3.0295502  
H   -1.4634911    0.0006440   -6.2693586  
H    1.5290686   -0.0033094   -5.9180049  
C    4.1863717   -2.1477707   -1.3902901  
C    5.2964430   -1.7419730   -2.0495691  
C    4.8117043   -0.8306843   -3.0747916  
C    3.3454859   -0.8022133   -2.8851147  
N    2.9730587   -1.5722763   -1.8990670  
C    2.4861684   -0.0045285   -3.7159930  
C    3.0653144    0.7315644   -4.6917448  
O    2.3850918    1.5211765   -5.5401852  
C    4.5422495    0.7242765   -4.9080094  
O    5.0006511    1.4186041   -5.8152015  
C    5.4023440   -0.1022453   -4.0425477  
H    6.3180620   -2.0258941   -1.8631303  
H    3.0670229    1.9123126   -6.1156286  
H    4.1206220   -2.8297606   -0.5574994  
C    8.3346093   -3.3247703   -3.9743458  
C    9.4791585   -2.6752284   -4.2900689  
C    9.0847982   -1.2865552   -4.4705298  
C    7.6277149   -1.2771633   -4.2187242  
N    7.1823177   -2.4690903   -3.9273130  
C    6.8494014   -0.0718433   -4.2994550  
C    7.4973268    1.0721614   -4.6169139  
O    6.8965465    2.2692340   -4.7270095  
C    8.9671301    1.0951794   -4.8763508  
O    9.4907918    2.1723634   -5.1603837  
C    9.7434249   -0.1543713   -4.7873907  
H   10.4688320   -3.0875120   -4.3882731  
H    7.6133963    2.8857520   -4.9619215  
H   10.8058473   -0.0954571   -4.9823735  
H    8.2030863   -4.3741036   -3.7632184  
C    1.0965515   -0.0001358    2.2710304  
C    0.0000000    0.0000000    1.4700000  
C   -1.1546562   -0.0001469    2.3369512  
C   -0.6372014   -0.0003519    3.7186280  
N    0.7342871   -0.0007337    3.6095011  
C   -1.4147739   -0.0001353    4.8308716  
C   -2.8576048    0.0001048    4.6554461  
O   -3.6427778    0.0002493    5.5944904  
C   -3.4275839    0.0000726    3.2011665  
O   -4.6406829   -0.0000333    3.0410059  
C   -2.4891866    0.0001091    2.0816745  
H   -1.0150448   -0.0001615    5.8354244  
H   -2.8919121    0.0002919    1.0779135  
H    2.1388271   -0.0000662    1.9961646  
H    1.3735872    0.0006099    4.3830260  
