58

C   -3.2798051    0.0046593   -1.4499655  
C   -2.5571117    0.0035327   -2.5996560  
C   -1.1637420    0.0017062   -2.2210366  
C   -1.1336950    0.0018329   -0.7459477  
N   -2.4483481    0.0040582   -0.3402729  
C    0.0000000    0.0000000    0.0000000  
C    1.2757358   -0.0020215   -0.6964420  
O    2.3524565   -0.0036980   -0.1142317  
C    1.2676481   -0.0019399   -2.2584083  
O    2.3355743   -0.0033249   -2.8557300  
C   -0.0181560   -0.0001469   -2.9516300  
H   -2.9547322    0.0041175   -3.5989115  
H   -0.0150792   -0.0003078   -4.0331632  
H   -2.7563612    0.0031256    0.6148057  
C   -6.8068753    0.0108072   -4.1747006  
C   -5.5278522    0.0093818   -3.7323460  
C   -5.6328214    0.0087860   -2.2813184  
C   -7.0869524    0.0101480   -2.0128329  
N   -7.7802339    0.0112555   -3.1188844  
C   -7.6137962    0.0099941   -0.6758507  
C   -6.7282205    0.0081564    0.3464440  
O   -7.0793775    0.0078013    1.6436444  
C   -5.2547075    0.0063774    0.1078698  
O   -4.5071884    0.0048745    1.0858440  
C   -4.7390803    0.0066173   -1.2727289  
H   -4.6246975    0.0087155   -4.3183382  
H   -8.6810548    0.0112162   -0.5089125  
H   -6.2347329    0.0063344    2.1291612  
C   -4.6519593    0.0111163   -8.0008835  
C   -5.7085924    0.0125016   -8.8538781  
C   -6.9037257    0.0128679   -8.0436363  
C   -6.4535251    0.0116024   -6.6386066  
N   -5.0783696    0.0101791   -6.6814467  
C   -7.2838462    0.0119168   -5.5651675  
C   -8.7165343    0.0133888   -5.8099898  
O   -9.5460921    0.0137182   -4.9099145  
C   -9.2156953    0.0144929   -7.2900709  
O  -10.4196561    0.0154288   -7.5085651  
C   -8.2243869    0.0143070   -8.3629925  
H   -5.6567125    0.0130062   -9.9280856  
H   -8.5782224    0.0152816   -9.3850119  
H   -3.5976379    0.0104844   -8.2251505  
H   -4.4771276    0.0106504   -5.8779823  
C    2.4951002    2.0940188    2.9809380  
C    1.9440701    1.6314916    1.8291961  
C    0.8759964    0.7350050    2.2038498  
C    0.8497377    0.7130254    3.6788474  
N    1.8560616    1.5571714    4.0882609  
C   -0.0205033   -0.0168748    4.4215661  
C   -0.9962600   -0.8356168    3.7214979  
O   -1.8224391   -1.5286685    4.3006425  
C   -0.9864710   -0.8277881    2.1595606  
O   -1.8030528   -1.5133726    1.5592035  
C    0.0000000    0.0000000    1.4700000  
H    2.2509283    1.8888011    0.8310761  
H   -0.0229599   -0.0187323    5.5027230  
H    3.3143982    2.7817323    3.1139444  
H    2.0889452    1.7545833    5.0442112  
