58

C    0.0139748    0.0003878   -4.4216235  
C    1.0657035    0.0015281   -5.2806580  
C    0.5180458    0.0012343   -6.6166623  
C   -0.9494775   -0.0001516   -6.4644643  
N   -1.1898324   -0.0010074   -5.1097989  
C   -1.8296139   -0.0004060   -7.4974523  
C   -1.2959114    0.0005369   -8.8493757  
O   -2.0065327    0.0003354   -9.8460292  
C    0.2551158    0.0017579   -9.0340856  
O    0.7160978    0.0022519  -10.1675554  
C    1.1016984    0.0022060   -7.8436445  
H    2.1063855    0.0022855   -5.0093766  
H   -2.9025123   -0.0013004   -7.3640453  
H    2.1745864    0.0032574   -7.9801510  
H   -2.0996060   -0.0004653   -4.6862914  
C    3.2798089    0.0005856   -1.4499642  
C    2.5571149    0.0005566   -2.5996548  
C    1.1637440    0.0001548   -2.2210358  
C    1.1336966   -0.0000200   -0.7459468  
N    2.4483517   -0.0001428   -0.3402714  
C    0.0000000    0.0000000    0.0000000  
C   -1.2757362   -0.0000187   -0.6964415  
O   -2.3524596   -0.0000640   -0.1142317  
C   -1.2676489   -0.0000874   -2.2584083  
O   -2.3355758   -0.0004101   -2.8557300  
C    0.0181567    0.0001759   -2.9516296  
H    2.9547363    0.0006074   -3.5989101  
H    2.7563627    0.0012824    0.6148067  
C    4.7390854    0.0009614   -1.2727274  
C    5.6949939    0.0015507   -2.2307549  
C    6.9549544    0.0016805   -1.5034317  
C    6.5623385    0.0012141   -0.0777962  
N    5.2646571    0.0007107    0.0636668  
C    7.5356721    0.0011404    0.9794208  
C    8.8418530    0.0011267    0.6283864  
O    9.8560143    0.0010681    1.5101563  
C    9.2698392    0.0012203   -0.8016446  
O   10.4759238    0.0013261   -1.0477761  
C    8.2523646    0.0013385   -1.8677918  
H    5.5615855    0.0017690   -3.2990611  
H    7.2204112    0.0010025    2.0126295  
H   10.6613099    0.0010475    0.9618393  
H    8.6033679    0.0012887   -2.8910346  
C    0.0000000    0.0000000    1.4700000  
C    1.0541688    0.0001722    2.3260392  
C    0.5103138    0.0000454    3.6635956  
C   -0.9576371   -0.0002459    3.5155732  
N   -1.2018458    0.0001392    2.1615969  
C   -1.8348311   -0.0008317    4.5510609  
C   -1.2972847   -0.0009736    5.9014604  
O   -2.0050672   -0.0014265    6.9001319  
C    0.2542623   -0.0004184    6.0817573  
O    0.7184670   -0.0002256    7.2139121  
C    1.0974552   -0.0000873    4.8889129  
H    2.0940752    0.0005483    2.0517982  
H   -2.9081052   -0.0011668    4.4207061  
H    2.1707277    0.0000911    5.0223670  
H   -2.1128194   -0.0014912    1.7406791  
