58

C   -0.0456301   -0.0074895   -8.8209595  
C    0.7307420   -0.6826214   -9.7072552  
C    0.2655094   -0.3305283  -11.0280222  
C   -0.8535485    0.6118504  -10.8371752  
N   -0.9916372    0.7654850   -9.4769478  
C   -1.5628769    1.1776709  -11.8463352  
C   -1.2000818    0.8355108  -13.2115626  
O   -1.7783662    1.2923844  -14.1888813  
C   -0.0183224   -0.1606732  -13.4370992  
O    0.2960082   -0.4564633  -14.5820728  
C    0.6708444   -0.7048011  -12.2696984  
H    1.5371712   -1.3511394   -9.4635981  
H   -2.3801789    1.8667264  -11.6846877  
H    1.4881329   -1.3937287  -12.4344467  
H   -1.6731966    1.3507182   -9.0297049  
C    2.5563882   -2.1074461   -5.9371925  
C    1.9637245   -1.6426522   -7.0671445  
C    0.9098266   -0.7472310   -6.6519876  
C    0.9372953   -0.7283019   -5.1769697  
N    1.9574936   -1.5736540   -4.8062056  
C    0.0950446    0.0004351   -4.4015596  
C   -0.9054231    0.8207083   -5.0639425  
O   -1.7097172    1.5127953   -4.4536742  
C   -0.9528375    0.8157257   -6.6252025  
O   -1.7910234    1.5021485   -7.1939976  
C    0.0078424   -0.0105939   -7.3519361  
H    2.2338702   -1.8980703   -8.0763008  
H    3.3801406   -2.7951875   -5.8355355  
H    2.2269418   -1.7707467   -3.8598447  
C    3.3321173    0.0004713   -1.3379338  
C    2.6974181    0.0000116   -2.5332314  
C    1.2800438   -0.0002119   -2.2052841  
C    1.2395034    0.0000643   -0.7271299  
N    2.4394062    0.0005460   -0.2131038  
C    0.0000000    0.0000000    0.0000000  
C   -1.1468702    0.0000634   -0.7169543  
O   -2.3742203    0.0000074   -0.1695487  
C   -1.1388770    0.0001607   -2.2096355  
O   -2.2206234    0.0000905   -2.7970411  
C    0.1454522    0.0001815   -2.9324241  
H    3.1367984   -0.0000653   -3.5160950  
H   -2.9844346    0.0001026   -0.9290167  
H    4.3940038    0.0007618   -1.1498640  
C    0.8681109    0.7263879    2.2709268  
C    0.6127770    0.5096195    3.5869401  
C   -0.4920590   -0.4175482    3.6542670  
C   -0.8620974   -0.7254003    2.2596025  
N    0.0000000    0.0000000    1.4700000  
C   -1.8641242   -1.5660088    1.8976294  
C   -2.6293522   -2.2103885    2.9520183  
O   -3.5512764   -2.9839180    2.7283916  
C   -2.2549728   -1.8987399    4.4361073  
O   -2.8923672   -2.4351063    5.3323774  
C   -1.1543735   -0.9755647    4.7012123  
H    1.1382914    0.9492124    4.4159191  
H   -2.1192137   -1.7782617    0.8686553  
H   -0.9013378   -0.7652422    5.7314848  
H    1.6172880    1.3558399    1.8188057  
