58

C   -0.3097827   -1.0603334   -9.6221608  
C   -0.4717744    0.0181291   -8.8129927  
C   -0.7045999    1.1564414   -9.6702401  
C   -0.6647142    0.6491041  -11.0550897  
N   -0.4212783   -0.7014463  -10.9568921  
C   -0.8411345    1.4164345  -12.1604335  
C   -1.0864630    2.8368157  -11.9737099  
O   -1.2578049    3.6113741  -12.9059132  
C   -1.1326167    3.3958006  -10.5159001  
O   -1.3381175    4.5900583  -10.3462596  
C   -0.9281464    2.4700573   -9.4045759  
H   -0.8081577    1.0244005  -13.1674743  
H   -0.9618285    2.8650155   -8.3982966  
H   -0.1181181   -2.0870571   -9.3557166  
H   -0.3394423   -1.3299730  -11.7349052  
C    2.1451928   -2.0951773   -5.9900943  
C    1.6340471   -1.6323753   -4.8202142  
C    0.5538825   -0.7357923   -5.1581773  
C    0.4770637   -0.7140560   -6.6314112  
N    1.4686359   -1.5584204   -7.0749457  
C   -0.4180294    0.0158494   -7.3439773  
C   -1.3690894    0.8348538   -6.6110028  
O   -2.2145426    1.5279314   -7.1615959  
C   -1.3057473    0.8272853   -5.0503184  
O   -2.1011641    1.5130918   -4.4224315  
C   -0.2963293   -0.0005341   -4.3948471  
H    1.9749143   -1.8895634   -3.8331592  
H    2.9593495   -2.7830349   -6.1509984  
H    1.6685743   -1.7560271   -8.0382850  
C    3.1301146   -0.0010313   -1.7028256  
C    2.5367765   -0.0002766   -0.4864669  
C    1.1089901    0.0001027   -0.7656184  
C    1.0177865   -0.0004150   -2.2415133  
N    2.1993571   -0.0011612   -2.7963824  
C   -0.2459219   -0.0002879   -2.9257116  
C   -1.3675326   -0.0000606   -2.1698520  
O   -2.6129318    0.0000865   -2.6748483  
C   -1.3083588    0.0000910   -0.6783229  
O   -2.3693264    0.0004206   -0.0541685  
C    0.0000000    0.0000000    0.0000000  
H    3.0096016   -0.0001007    0.4807518  
H   -3.1967444    0.0002093   -1.8949026  
H    4.1849275   -0.0015114   -1.9271979  
C    2.5128556    2.1077716    2.9199648  
C    1.9592212    1.6432552    4.0696553  
C    0.8915788    0.7479214    3.6910360  
C    0.8684491    0.7287414    2.2159470  
N    1.8754542    1.5738793    1.8102719  
C    0.0000000    0.0000000    1.4700000  
C   -0.9772830   -0.8200135    2.1664417  
O   -1.8021297   -1.5120829    1.5842315  
C   -0.9711318   -0.8147624    3.7284083  
O   -1.7894187   -1.5009653    4.3257297  
C    0.0140216    0.0115358    4.4216297  
H    2.2638494    1.8988021    5.0689105  
H    0.0117648    0.0094386    5.5031631  
H    3.3327358    2.7953732    2.7900019  
H    2.1123206    1.7707734    0.8551938  
