58

C   -7.0265675    5.5903866    0.9594541  
C   -8.2604699    5.2117428    1.3815773  
C   -8.3856420    3.8003262    1.1039605  
C   -7.1143934    3.3847431    0.4810587  
N   -6.3339045    4.5162078    0.4217766  
C   -6.8358060    2.1213110    0.0713837  
C   -7.8561996    1.1028730    0.2560878  
O   -7.7012833   -0.0639016   -0.0799759  
C   -9.2101444    1.5206411    0.9134367  
O  -10.0768799    0.6719269    1.0737998  
C   -9.3932893    2.9134038    1.3140875  
H   -8.9987820    5.8485386    1.8354496  
H  -10.3335355    3.1944607    1.7686964  
H   -6.5650569    6.5638245    0.9957289  
H   -5.4035696    4.5551673    0.0476020  
C   -4.3137496    2.1424315   -0.2077329  
C   -5.5591243    1.7353215   -0.5466749  
C   -5.3648109    0.8246407   -1.6644417  
C   -3.9011714    0.7979211   -1.8733216  
N   -3.2797688    1.5684041   -1.0223196  
C   -3.2941076    0.0012878   -2.9038237  
C   -4.1120063   -0.7354730   -3.6896733  
O   -3.6822295   -1.5242473   -4.6892567  
C   -5.5930505   -0.7299484   -3.5035597  
O   -6.2763268   -1.4248007   -4.2555798  
C   -6.1916584    0.0955202   -2.4395134  
H   -4.4926444   -1.9161852   -5.0617692  
H   -7.2683270    0.0718767   -2.3372576  
H   -4.0287171    2.8244781    0.5774694  
C    0.0000000    0.0000000    0.0000000  
C    1.0541688   -0.0001723   -0.8560392  
C    0.5103136   -0.0000455   -2.1935956  
C   -0.9576373    0.0002461   -2.0455730  
N   -1.2018460   -0.0001389   -0.6915968  
C   -1.8348314    0.0008319   -3.0810607  
C   -1.2972851    0.0009739   -4.4314603  
O   -2.0050676    0.0014268   -5.4301316  
C    0.2542619    0.0004184   -4.6117572  
O    0.7184666    0.0002257   -5.7439122  
C    1.0974551    0.0000873   -3.4189129  
H    2.0940752   -0.0005484   -0.5817983  
H    2.1707276   -0.0000912   -3.5523673  
H   -2.1128194    0.0014915   -0.2706789  
C    1.1319247   -0.0015655    2.2709268  
C    0.7969915   -0.0034943    3.5869401  
C   -0.6453339   -0.0035710    3.6542670  
C   -1.1266833   -0.0015433    2.2596025  
N    0.0000000    0.0000000    1.4700000  
C   -2.4346130   -0.0013964    1.8976294  
C   -3.4350110   -0.0031408    2.9520183  
O   -4.6384611   -0.0030974    2.7283916  
C   -2.9478959   -0.0050506    4.4361073  
O   -3.7809380   -0.0062218    5.3323774  
C   -1.5113823   -0.0053090    4.7012123  
H    1.4821238   -0.0045407    4.4159191  
H   -2.7664565   -0.0000232    0.8686553  
H   -1.1823530   -0.0068408    5.7314848  
H    2.1104316   -0.0009391    1.8188057  
