60

C    1.1188643    0.0008223   -0.8003802  
C    0.0000000    0.0000000    0.0000000  
C   -1.1323863    0.0008897   -0.8673526  
C   -0.6382660    0.0019679   -2.1969277  
N    0.7324017    0.0038480   -2.1202235  
C   -1.4770909    0.0027315   -3.3154808  
C   -2.8395473    0.0020941   -3.0876856  
O   -3.7039194    0.0024421   -4.1440348  
C   -3.3517869    0.0013928   -1.7684330  
O   -4.7300491    0.0012366   -1.7073127  
C   -2.5248543    0.0009120   -0.6644817  
H    1.3576316   -0.0056169   -2.9057040  
H   -4.5940026    0.0021825   -3.7685133  
H   -4.9934598    0.0007260   -0.7819922  
H   -2.9462580    0.0005604    0.3339651  
H    2.1619892    0.0009354   -0.5342065  
C    0.0798553   -0.6810573   -5.1989547  
C   -0.9736290    0.0040460   -4.6965761  
C   -1.5083972    0.7502420   -5.8251660  
C   -0.6328137    0.3876024   -6.9602564  
N    0.2999942   -0.4511732   -6.5992643  
C   -0.8334151    0.9250022   -8.2778475  
C   -1.8622024    1.7852621   -8.4535858  
O   -2.1655478    2.3624831   -9.6286763  
C   -2.7636752    2.1705097   -7.3279342  
O   -3.6800714    2.9588088   -7.5603627  
C   -2.5372054    1.6057051   -5.9856852  
H   -2.9422886    2.9189189   -9.4383963  
H   -3.2124077    1.9098115   -5.1971098  
H    0.7435743   -1.3535317   -4.6791195  
C    0.5541725   -0.7014766   -9.6154469  
C    0.0583778    0.5409160   -9.3815153  
C    0.5741934    1.4022960  -10.4192026  
C    1.4171597    0.5538054  -11.2830678  
N    1.3634320   -0.7097606  -10.7414002  
C    2.0848425    0.9957457  -12.3787837  
C    1.9654220    2.4009063  -12.7306327  
O    2.5280212    2.8952770  -13.6988180  
C    1.0781331    3.3179027  -11.8297220  
O    0.9702877    4.5027034  -12.1158632  
C    0.4072795    2.7262805  -10.6748232  
H    2.6978348    0.3566706  -12.9990522  
H   -0.2053837    3.3679391  -10.0562428  
H    0.3966169   -1.6116619   -9.0599037  
H    1.8373063   -1.5144735  -11.1087254  
C    2.5128556    2.1077716    2.9199648  
C    1.9592212    1.6432552    4.0696553  
C    0.8915788    0.7479214    3.6910360  
C    0.8684491    0.7287414    2.2159470  
N    1.8754542    1.5738793    1.8102719  
C    0.0000000    0.0000000    1.4700000  
C   -0.9772830   -0.8200135    2.1664417  
O   -1.8021297   -1.5120829    1.5842315  
C   -0.9711318   -0.8147624    3.7284083  
O   -1.7894187   -1.5009653    4.3257297  
C    0.0140216    0.0115358    4.4216297  
H    2.2638494    1.8988021    5.0689105  
H    0.0117648    0.0094386    5.5031631  
H    3.3327358    2.7953732    2.7900019  
H    2.1123206    1.7707734    0.8551938  
