58

C    1.3137301   -1.1096751   -7.6955144  
C    2.3540203   -1.9821945   -7.7196294  
C    2.6390913   -2.2591564   -9.1077441  
C    1.6726967   -1.4707965   -9.8960077  
N    0.8976724   -0.7966899   -8.9806896  
C    1.6145839   -1.4587244  -11.2518040  
C    2.5672891   -2.2769590  -11.9835022  
O    2.5957467   -2.3339168  -13.2058946  
C    3.5995713   -3.1201483  -11.1691117  
O    4.4063859   -3.8130913  -11.7742092  
C    3.5643661   -3.0508621   -9.7104096  
H    2.8634195   -2.3858707   -6.8627915  
H    0.8978736   -0.8731867  -11.8107156  
H    4.2826069   -3.6375451   -9.1539430  
H    0.1469034   -0.1718611   -9.2108674  
C    0.9350723   -0.7259388   -5.2319052  
C    0.6347936   -0.5089070   -6.5383526  
C   -0.4715634    0.4184304   -6.5675990  
C   -0.7935139    0.7260948   -5.1610140  
N    0.0950446    0.0004351   -4.4015596  
C   -1.7824138    1.5667841   -4.7647529  
C   -2.5832518    2.2114553   -5.7921735  
O   -3.4968502    2.9850780   -5.5369348  
C   -2.2600296    1.9000089   -7.2882796  
O   -2.9277036    2.4366213   -8.1620756  
C   -1.1693058    0.9767222   -7.5911236  
H   -2.0020372    1.7788961   -3.7276009  
H   -0.9517792    0.7665411   -8.6295017  
H    1.6992187   -1.3555760   -4.8058457  
C    3.3321173    0.0004713   -1.3379338  
C    2.6974181    0.0000116   -2.5332314  
C    1.2800438   -0.0002119   -2.2052841  
C    1.2395034    0.0000643   -0.7271299  
N    2.4394062    0.0005460   -0.2131038  
C    0.0000000    0.0000000    0.0000000  
C   -1.1468702    0.0000634   -0.7169543  
O   -2.3742203    0.0000074   -0.1695487  
C   -1.1388770    0.0001607   -2.2096355  
O   -2.2206234    0.0000905   -2.7970411  
C    0.1454522    0.0001815   -2.9324241  
H    3.1367984   -0.0000653   -3.5160950  
H   -2.9844346    0.0001026   -0.9290167  
H    4.3940038    0.0007618   -1.1498640  
C    0.0000000    0.0000000    1.4700000  
C    1.0662921    0.0000102    2.3034270  
C    0.4961870   -0.0000064    3.6418889  
C   -0.9663858    0.0000850    3.4240247  
N   -1.2632773    0.0000084    2.1528658  
C   -1.8985362    0.0000517    4.5177257  
C   -1.3925775   -0.0004564    5.7720543  
O   -2.1456383   -0.0005410    6.8851312  
C    0.0786232   -0.0009323    6.0245000  
O    0.4683759   -0.0012588    7.1921102  
C    1.0143166   -0.0008442    4.8859032  
H    2.1107198   -0.0000632    2.0421868  
H   -2.9622183    0.0003270    4.3293377  
H   -1.5042274   -0.0009692    7.6184419  
H    2.0724152   -0.0013148    5.1109744  
