60

C    3.3003547    0.0005275   -1.4738980  
C    2.5232816    0.0003495   -2.6090742  
C    1.1623206   -0.0001320   -2.1820096  
C    1.1711889    0.0000583   -0.7636136  
N    2.4852300   -0.0014920   -0.3662353  
C    0.0000000    0.0000000    0.0000000  
C   -1.2020382    0.0000519   -0.6806479  
O   -2.3759247    0.0003494    0.0157745  
C   -1.2314650   -0.0005113   -2.0955508  
O   -2.5054383   -0.0008037   -2.6250181  
C   -0.0764510   -0.0007273   -2.8495192  
H    2.8919962   -0.0005621   -3.6205295  
H    2.8036265    0.0088181    0.5858667  
H   -3.0835641    0.0000347   -0.6418820  
H   -2.4360047   -0.0011529   -3.5845921  
C    5.6726965   -0.0003332   -2.3740972  
C    6.9488235   -0.0025409   -1.9098027  
C    6.8722132   -0.0036206   -0.4679410  
C    5.4365533   -0.0018775   -0.1278399  
N    4.7630506    0.0004754   -1.3275394  
C    4.9461563   -0.0026251    1.1375512  
C    5.8957025   -0.0051008    2.2379557  
O    5.5533679   -0.0058843    3.4131609  
C    7.4209164   -0.0067251    1.9010216  
O    8.2297925   -0.0085060    2.8191589  
C    7.8277287   -0.0059964    0.4980406  
H    7.8418986   -0.0031413   -2.5089949  
H    3.8892553   -0.0014456    1.3652984  
H    8.8856414   -0.0073364    0.2732230  
H    5.3202462    0.0009881   -3.3927562  
C    0.6776457   -0.7282730   -5.1604451  
C    0.3570668   -0.5122898   -6.4622344  
C   -0.7499167    0.4146732   -6.4749881  
C   -1.0501122    0.7232609   -5.0638016  
N   -0.1496409   -0.0015614   -4.3176961  
C   -2.0330240    1.5639238   -4.6528574  
C   -2.8499150    2.2075899   -5.6681989  
O   -3.7597000    2.9811073   -5.3993804  
C   -2.5498356    1.8951556   -7.1689126  
O   -3.2311597    2.4309174   -8.0326358  
C   -1.4636358    0.9719958   -7.4879706  
H    0.8407339   -0.9522739   -7.3161047  
H   -2.2366034    1.7767220   -3.6125777  
H   -1.2621726    0.7611268   -8.5294455  
H    1.4485168   -1.3573555   -4.7458340  
C    0.8400945    0.7047457    2.2710304  
C    0.0000000    0.0000000    1.4700000  
C   -0.8844236   -0.7423113    2.3369512  
C   -0.4878984   -0.4098547    3.7186280  
N    0.5629682    0.4714286    3.6095011  
C   -1.0836927   -0.9095027    4.8308716  
C   -2.1891196   -1.8367527    4.6554461  
O   -2.7906899   -2.3413415    5.5944904  
C   -2.6257283   -2.2031529    3.2011665  
O   -3.5549479   -2.9829990    3.0410059  
C   -1.9068976   -1.5999348    2.0816745  
H   -0.7774656   -0.6525820    5.8354244  
H   -2.2155208   -1.8586617    1.0779135  
H    1.6384792    1.3747609    1.9961646  
H    1.0518368    0.8833920    4.3830260  
