58

C   -0.5330525   -0.8731905   -9.6137672  
C   -0.6742159    0.1888312   -8.7793463  
C   -0.9262741    1.3443805   -9.6076025  
C   -0.9203723    0.8650749  -11.0029592  
N   -0.6762492   -0.4873537  -10.9379140  
C   -1.1224612    1.6546865  -12.0880302  
C   -1.3615283    3.0711813  -11.8668420  
O   -1.5543597    3.8645208  -12.7788342  
C   -1.3718765    3.6006554  -10.3973679  
O   -1.5718082    4.7913903  -10.1987745  
C   -1.1417904    2.6525228   -9.3101897  
H   -1.1142259    1.2830387  -13.1032736  
H   -1.1507456    3.0271101   -8.2956320  
H   -0.3362460   -1.9052185   -9.3727791  
H   -0.6139317   -1.1001040  -11.7301901  
C    2.0407259   -2.0139650   -6.1785238  
C    1.6287192   -1.6317253   -4.9473771  
C    0.5264171   -0.7135552   -5.1890257  
C    0.4056584   -0.6555640   -6.6616555  
N    1.2906467   -1.4158622   -7.2470885  
C   -0.5850929    0.1568589   -7.3123990  
C   -1.4176232    0.8782449   -6.5276508  
O   -2.3882008    1.6789420   -6.9997770  
C   -1.3210824    0.8405679   -5.0385497  
O   -2.1116406    1.5230226   -4.3870179  
C   -0.2963293   -0.0005341   -4.3948471  
H    2.0239474   -1.9354085   -3.9930991  
H   -2.8082867    2.0545009   -6.2050216  
H    2.8401847   -2.6925111   -6.4303447  
C    3.1301146   -0.0010313   -1.7028256  
C    2.5367765   -0.0002766   -0.4864669  
C    1.1089901    0.0001027   -0.7656184  
C    1.0177865   -0.0004150   -2.2415133  
N    2.1993571   -0.0011612   -2.7963824  
C   -0.2459219   -0.0002879   -2.9257116  
C   -1.3675326   -0.0000606   -2.1698520  
O   -2.6129318    0.0000865   -2.6748483  
C   -1.3083588    0.0000910   -0.6783229  
O   -2.3693264    0.0004206   -0.0541685  
C    0.0000000    0.0000000    0.0000000  
H    3.0096016   -0.0001007    0.4807518  
H   -3.1967444    0.0002093   -1.8949026  
H    4.1849275   -0.0015114   -1.9271979  
C    0.8175213    0.6860729    2.3021913  
C    0.0000000    0.0000000    1.4700000  
C   -0.8887526   -0.7456559    2.3478473  
C   -0.4549825   -0.3816753    3.7138435  
N    0.5448156    0.4573574    3.6934124  
C   -1.0945674   -0.9182058    4.8835240  
C   -2.1210866   -1.7789155    4.6970523  
O   -2.8083856   -2.3554314    5.6976972  
C   -2.5824069   -2.1655116    3.3310774  
O   -3.5227682   -2.9541547    3.2362962  
C   -1.9100805   -1.6015804    2.1470656  
H   -0.7567140   -0.6349833    5.8697035  
H   -3.4728268   -2.9124471    5.2533954  
H   -2.2742832   -1.9066565    1.1752040  
H    1.6189533    1.3585343    2.0405121  
