60

C   -3.3040234    0.0261240   -1.5420444  
C   -2.5844517    0.0210047   -0.3695864  
C   -1.2039624    0.0095630   -0.7283594  
C   -1.1422053    0.0084678   -2.1454379  
N   -2.4348069    0.0167269   -2.6077477  
C    0.0655102   -0.0014005   -2.8497916  
C    1.2321371   -0.0100189   -2.1101397  
O    2.4392047   -0.0194882   -2.7472511  
C    1.1910837   -0.0094594   -0.6955261  
O    2.4370773   -0.0191244   -0.1032853  
C    0.0000000    0.0000000    0.0000000  
H   -3.0030580    0.0239176    0.6222569  
H   -2.7053194    0.0285965   -3.5745274  
H    0.1193411   -0.0024328   -3.9297473  
H    3.1132018   -0.0246618   -2.0551771  
H    2.3199583   -0.0180189    0.8516415  
C   -5.7181727    0.0445172   -0.7610782  
C   -6.9695819    0.0517609   -1.2883332  
C   -6.8212960    0.0487106   -2.7245913  
C   -5.3705151    0.0389974   -2.9927910  
N   -4.7575752    0.0372734   -1.7610478  
C   -4.8177517    0.0332393   -4.2321957  
C   -5.7113293    0.0370756   -5.3785110  
O   -5.3109293    0.0325157   -6.5352134  
C   -7.2513925    0.0475990   -5.1179333  
O   -8.0135468    0.0512133   -6.0752041  
C   -7.7275274    0.0528214   -3.7369477  
H   -3.7508463    0.0260064   -4.4070387  
H   -8.7952988    0.0598988   -3.5650812  
H   -5.4168716    0.0440781    0.2738646  
C   -8.2295158    0.0611870   -0.5311165  
C   -8.4202097    0.0646921    0.8133904  
C   -9.8467734    0.0742547    1.0362348  
C  -10.4760641    0.0760170   -0.2982241  
N   -9.4413660    0.0682195   -1.2049925  
C  -11.8154359    0.0838656   -0.5166907  
C  -12.6959645    0.0912833    0.6396605  
O  -13.9165138    0.0986821    0.5474356  
C  -12.0512729    0.0898208    2.0623959  
O  -12.7825226    0.0963239    3.0434634  
C  -10.5945478    0.0807782    2.1706630  
H   -7.6494879    0.0611825    1.5634499  
H  -12.2565670    0.0848900   -1.5037627  
H  -10.1560747    0.0796168    3.1593310  
H   -9.5498626    0.0657535   -2.2026248  
C    0.8681109    0.7263879    2.2709268  
C    0.6127770    0.5096195    3.5869401  
C   -0.4920590   -0.4175482    3.6542670  
C   -0.8620974   -0.7254003    2.2596025  
N    0.0000000    0.0000000    1.4700000  
C   -1.8641242   -1.5660088    1.8976294  
C   -2.6293522   -2.2103885    2.9520183  
O   -3.5512764   -2.9839180    2.7283916  
C   -2.2549728   -1.8987399    4.4361073  
O   -2.8923672   -2.4351063    5.3323774  
C   -1.1543735   -0.9755647    4.7012123  
H    1.1382914    0.9492124    4.4159191  
H   -2.1192137   -1.7782617    0.8686553  
H   -0.9013378   -0.7652422    5.7314848  
H    1.6172880    1.3558399    1.8188057  
