60

C    3.3041273    0.0001179   -1.5420432  
C    2.5845372   -0.0004779   -0.3695859  
C    1.2040004   -0.0000007   -0.7283591  
C    1.1422373    0.0006038   -2.1454374  
N    2.4348638    0.0026111   -2.6077467  
C   -0.0655183    0.0008798   -2.8497918  
C   -1.2321770    0.0002324   -2.1101402  
O   -2.4392818    0.0001147   -2.7472522  
C   -1.1911210   -0.0000007   -0.6955265  
O   -2.4371525   -0.0002321   -0.1032862  
C    0.0000000    0.0000000    0.0000000  
H    3.0031535   -0.0000659    0.6222574  
H    2.7054626   -0.0071098   -3.5745264  
H   -3.1132989   -0.0000649   -2.0551791  
H   -2.3200282   -0.0004073    0.8516405  
H    4.3686619    0.0004073   -1.7024302  
C    2.1731802   -2.0070821   -6.1392841  
C    1.7797924   -1.6263721   -4.9015905  
C    0.6726054   -0.7095545   -5.1253815  
C    0.5289378   -0.6505907   -6.5959141  
N    1.4057894   -1.4091990   -7.1956092  
C   -0.4729119    0.1609527   -7.2305646  
C   -1.2941661    0.8805675   -6.4324225  
O   -2.2730577    1.6802751   -6.8888002  
C   -1.1744860    0.8418714   -4.9450289  
O   -1.9557862    1.5227170   -4.2807698  
C   -0.1387084    0.0017018   -4.3179687  
H    2.1901955   -1.9302430   -3.9537997  
H   -2.6812840    2.0546312   -6.0873254  
H    2.9695750   -2.6843163   -6.4040155  
C   -0.1276668   -3.0017746  -10.2573281  
C   -0.3401510   -2.2646272  -11.3778364  
C   -0.5525879   -0.9016835  -10.9511156  
C   -0.4456545   -0.9052374   -9.4796051  
N   -0.1876315   -2.2083902   -9.1216854  
C   -0.5848235    0.1939375   -8.6959271  
C   -0.8583938    1.4652824   -9.3450623  
O   -1.0002435    2.5120400   -8.7266149  
C   -0.9759763    1.4923582  -10.9023828  
O   -1.2063759    2.5568763  -11.4600368  
C   -0.8062207    0.2423273  -11.6388999  
H   -0.3474394   -2.6335789  -12.3880032  
H   -0.8889370    0.2696513  -12.7169237  
H    0.0674727   -4.0579005  -10.1656299  
H   -0.0602770   -2.5327501   -8.1806122  
C    2.4951002    2.0940188    2.9809380  
C    1.9440701    1.6314916    1.8291961  
C    0.8759964    0.7350050    2.2038498  
C    0.8497377    0.7130254    3.6788474  
N    1.8560616    1.5571714    4.0882609  
C   -0.0205033   -0.0168748    4.4215661  
C   -0.9962600   -0.8356168    3.7214979  
O   -1.8224391   -1.5286685    4.3006425  
C   -0.9864710   -0.8277881    2.1595606  
O   -1.8030528   -1.5133726    1.5592035  
C    0.0000000    0.0000000    1.4700000  
H    2.2509283    1.8888011    0.8310761  
H   -0.0229599   -0.0187323    5.5027230  
H    3.3143982    2.7817323    3.1139444  
H    2.0889452    1.7545833    5.0442112  
