58

C    4.8041503   -1.0679540   -4.9591845  
C    5.5978465   -1.9426674   -4.2891116  
C    6.7301048   -2.2212226   -5.1407192  
C    6.5295682   -1.4314062   -6.3706646  
N    5.3440771   -0.7550209   -6.1974458  
C    7.3838604   -1.4201859   -7.4250665  
C    8.5806018   -2.2409391   -7.3431549  
O    9.4112824   -2.2988344   -8.2403263  
C    8.8130967   -3.0857038   -6.0500487  
O    9.8169402   -3.7807698   -5.9697746  
C    7.8209010   -3.0152970   -4.9802630  
H    5.4113238   -2.3467946   -3.3100800  
H    7.2181251   -0.8335498   -8.3179830  
H    7.9893994   -3.6030836   -4.0881648  
H    4.9352126   -0.1287861   -6.8665551  
C    2.8912669   -0.6998115   -3.3332351  
C    1.7334695    0.0049281   -3.2500363  
C    1.6041098    0.7488997   -4.4807302  
C    2.7899380    0.4174240   -5.2935810  
N    3.5303611   -0.4649345   -4.5411804  
C    3.0393019    0.9187051   -6.5298007  
C    2.0755504    1.8468032   -7.0975612  
O    2.2101242    2.3528617   -8.2039496  
C    0.8125763    2.2121888   -6.2542377  
O   -0.0056411    2.9927354   -6.7217073  
C    0.6534232    1.6072170   -4.9341878  
H    3.9152831    0.6624811   -7.1093830  
H   -0.2239006    1.8652504   -4.3567397  
H    3.3315066   -1.3708303   -2.6136437  
C    1.1319246    0.0015678   -0.8009268  
C    0.7969914    0.0034958   -2.1169401  
C   -0.6453340    0.0035696   -2.1842669  
C   -1.1266832    0.0015410   -0.7896025  
N    0.0000000    0.0000000    0.0000000  
C   -2.4346129    0.0013913   -0.4276292  
C   -3.4350111    0.0031335   -1.4820181  
O   -4.6384614    0.0030875   -1.2583914  
C   -2.9478961    0.0050442   -2.9661074  
O   -3.7809382    0.0062135   -3.8623773  
C   -1.5113825    0.0053055   -3.2312122  
H   -2.7664565    0.0000174    0.6013448  
H   -1.1823533    0.0068381   -4.2614848  
H    2.1104316    0.0009435   -0.3488059  
C    2.5528530    2.1414826    2.8079335  
C    2.0663498    1.7338582    4.0032312  
C    0.9804344    0.8229586    3.6752840  
C    0.9495562    0.7966882    2.1971295  
N    1.8690446    1.5676019    1.6831036  
C    0.0000000    0.0000000    1.4700000  
C   -0.8785127   -0.7372425    2.1869543  
O   -1.8187535   -1.5261249    1.6395491  
C   -0.8723269   -0.7321790    3.6796354  
O   -1.7010379   -1.4274584    4.2670412  
C    0.1115397    0.0933559    4.4024240  
H    2.4028853    2.0163452    4.9860947  
H   -2.2861435   -1.9184361    2.3990168  
H    0.0832434    0.0693689    5.4835595  
H    3.3664920    2.8238276    2.6198634  
