58

C    1.1319246    0.0015678   -0.8009270  
C    0.7969911    0.0034960   -2.1169403  
C   -0.6453343    0.0035697   -2.1842669  
C   -1.1266835    0.0015410   -0.7896023  
N    0.0000000    0.0000000    0.0000000  
C   -2.4346132    0.0013914   -0.4276288  
C   -3.4350114    0.0031337   -1.4820173  
O   -4.6384615    0.0030879   -1.2583905  
C   -2.9478966    0.0050445   -2.9661069  
O   -3.7809384    0.0062139   -3.8623765  
C   -1.5113836    0.0053058   -3.2312118  
H   -2.7664563    0.0000176    0.6013454  
H   -1.1823542    0.0068384   -4.2614845  
H    2.1104315    0.0009435   -0.3488062  
C    4.5953928   -2.1014960   -2.7684688  
C    4.9007862   -1.6358450   -4.0070079  
C    3.8360917   -0.7408523   -4.3946273  
C    2.8785316   -0.7231090   -3.2723282  
N    3.3968136   -1.5686684   -2.3187548  
C    1.7334687    0.0049282   -3.2500367  
C    1.4233475    0.8256459   -4.4088216  
O    0.4162258    1.5171695   -4.4849912  
C    2.4231581    0.8219166   -5.6088926  
O    2.1725282    1.5087229   -6.5900871  
C    3.6246479   -0.0037319   -5.5162703  
H    5.7723366   -1.8904262   -4.5833773  
H    5.1449867   -2.7892455   -2.1465067  
H    2.9710704   -1.7664994   -1.4318206  
C    5.9615446   -3.2029187   -7.4657697  
C    5.1319489   -2.4977756   -6.6542160  
C    5.1805808   -1.1234164   -7.0942232  
C    6.1131769   -1.0854034   -8.2368561  
N    6.5520789   -2.3776926   -8.4107618  
C    6.4305186    0.0352560   -8.9333627  
C    5.8124678    1.2875903   -8.5306146  
O    6.0337480    2.3512241   -9.0945453  
C    4.8218668    1.2707505   -7.3230421  
O    4.2956291    2.3190588   -6.9746385  
C    4.5587559    0.0005510   -6.6513143  
H    4.5522471   -2.8950317   -5.8401233  
H    7.1170007    0.0414079   -9.7685968  
H    6.1913611   -4.2559657   -7.4528677  
H    7.1998803   -2.6758230   -9.1168210  
C    2.5128556    2.1077716    2.9199648  
C    1.9592212    1.6432552    4.0696553  
C    0.8915788    0.7479214    3.6910360  
C    0.8684491    0.7287414    2.2159470  
N    1.8754542    1.5738793    1.8102719  
C    0.0000000    0.0000000    1.4700000  
C   -0.9772830   -0.8200135    2.1664417  
O   -1.8021297   -1.5120829    1.5842315  
C   -0.9711318   -0.8147624    3.7284083  
O   -1.7894187   -1.5009653    4.3257297  
C    0.0140216    0.0115358    4.4216297  
H    2.2638494    1.8988021    5.0689105  
H    0.0117648    0.0094386    5.5031631  
H    3.3327358    2.7953732    2.7900019  
H    2.1123206    1.7707734    0.8551938  
