60

C    0.0000000    0.0000000    0.0000000  
C   -1.0384262    0.1694848   -0.8862350  
C   -0.4851965    0.0798387   -2.1979135  
C    0.9068634   -0.1472776   -2.0478676  
N    1.1682310   -0.1883605   -0.7007904  
C    1.7718900   -0.2881861   -3.1372077  
C    1.2215673   -0.1984861   -4.4010418  
O    2.0208149   -0.3290320   -5.4997568  
C   -0.1649821    0.0281106   -4.5711967  
O   -0.5597107    0.0927987   -5.8915557  
C   -1.0189024    0.1674873   -3.4969900  
H   -2.0678325    0.3382013   -0.6200579  
H    2.0703115   -0.3458685   -0.2891812  
H    2.8337974   -0.4612904   -3.0295497  
H    1.4445442   -0.2347484   -6.2693587  
H   -1.5088453    0.2478706   -5.9180056  
C   -3.9576066    2.7667360   -1.4710687  
C   -2.8271121    2.1138558   -1.8449727  
C   -3.1800234    1.2646402   -2.9581309  
C   -4.6191014    1.4778421   -3.2038744  
N   -5.0306830    2.3991790   -2.2686587  
C   -5.3334610    0.8562924   -4.1760221  
C   -4.6386437   -0.0856826   -5.0376764  
O   -5.1939229   -0.6959797   -5.9418356  
C   -3.1145810   -0.3271049   -4.7952848  
O   -2.5190332   -1.1181279   -5.5142190  
C   -2.4534256    0.4021802   -3.7159942  
H   -1.8567700    2.2154177   -1.3924959  
H   -6.3884631    1.0270157   -4.3395270  
H   -5.9660186    2.7519228   -2.1805321  
C   -1.0979607    4.3787767    1.3944587  
C   -1.8665464    5.2253670    2.1184333  
C   -3.1951027    5.1172832    1.5355471  
C   -3.0430353    4.1348482    0.4408871  
N   -1.8159090    3.6983875    0.3534031  
C   -4.1478944    3.7466874   -0.3920014  
C   -5.3501082    4.3138931   -0.1424135  
O   -6.4664775    4.0445898   -0.8404358  
C   -5.5356211    5.3082698    0.9552934  
O   -6.6580402    5.7841419    1.1254147  
C   -4.3868294    5.6900783    1.7957843  
H   -1.5687370    5.8464190    2.9458869  
H   -7.1550827    4.5983234   -0.4301256  
H   -4.5627032    6.4135500    2.5805694  
H   -0.0464932    4.1704981    1.5128210  
C    3.2573670    0.0002920    2.9809380  
C    2.5379467    0.0001709    1.8291961  
C    1.1435042   -0.0000331    2.2038498  
C    1.1092607    0.0000083    3.6788474  
N    2.4227561   -0.0001909    4.0882609  
C   -0.0265533    0.0002524    4.4215661  
C   -1.3003036    0.0002640    3.7214979  
O   -2.3786784    0.0004133    4.3006425  
C   -1.2877726   -0.0000311    2.1595606  
O   -2.3539958   -0.0003306    1.5592035  
C    0.0000000    0.0000000    1.4700000  
H    2.9384090    0.0000368    0.8310761  
H   -0.0296291    0.0004086    5.5027230  
H    4.3270393    0.0004765    3.1139444  
H    2.7280493    0.0013407    5.0442112  
