60

C    3.3041272    0.0001180   -1.5420435  
C    2.5845371   -0.0004778   -0.3695860  
C    1.2040005   -0.0000007   -0.7283587  
C    1.1422371    0.0006040   -2.1454370  
N    2.4348638    0.0026115   -2.6077467  
C   -0.0655185    0.0008801   -2.8497917  
C   -1.2321772    0.0002327   -2.1101398  
O   -2.4392820    0.0001151   -2.7472514  
C   -1.1911210   -0.0000007   -0.6955257  
O   -2.4371525   -0.0002319   -0.1032854  
C    0.0000000    0.0000000    0.0000000  
H    3.0031538   -0.0000661    0.6222579  
H    2.7054625   -0.0071092   -3.5745262  
H   -3.1132992   -0.0000646   -2.0551777  
H   -2.3200277   -0.0004073    0.8516414  
H    4.3686618    0.0004075   -1.7024297  
C    0.6611976   -0.7016920   -5.1602638  
C   -0.1387089    0.0017023   -4.3179682  
C   -1.0659762    0.7435471   -5.1393555  
C   -0.7383884    0.4122900   -6.5392641  
N    0.3175295   -0.4679243   -6.4831335  
C   -1.3893436    0.9119192   -7.6201584  
C   -2.4856342    1.8378819   -7.3893454  
O   -3.1337400    2.3423487   -8.2969644  
C   -2.8496765    2.2029992   -5.9149069  
O   -3.7705849    2.9817564   -5.7082032  
C   -2.0753682    1.5999281   -4.8329627  
H   -1.1332438    0.6558895   -8.6388690  
H   -2.3339027    1.8577617   -3.8149226  
H    1.4729774   -1.3710020   -4.9258994  
C    1.4064542   -2.3540585   -7.7546465  
C    0.9769738   -1.0699838   -7.6508479  
C    1.2922951   -0.4183200   -8.9001448  
C    1.9453398   -1.4352976   -9.7463586  
N    1.9842966   -2.5862446   -8.9935687  
C    2.3944524   -1.2129580  -11.0075359  
C    2.2234170    0.1167693  -11.5688796  
O    2.5944109    0.4166914  -12.6961378  
C    1.5346597    1.2093403  -10.6904102  
O    1.3854487    2.3326153  -11.1521996  
C    1.0923389    0.8496848   -9.3454743  
H    2.8706430   -1.9728871  -11.6114068  
H    0.6161727    1.6118599   -8.7437447  
H    1.3496370   -3.1502187   -7.0302225  
H    2.3709228   -3.4607924   -9.2980886  
C    2.5128556    2.1077716    2.9199648  
C    1.9592212    1.6432552    4.0696553  
C    0.8915788    0.7479214    3.6910360  
C    0.8684491    0.7287414    2.2159470  
N    1.8754542    1.5738793    1.8102719  
C    0.0000000    0.0000000    1.4700000  
C   -0.9772830   -0.8200135    2.1664417  
O   -1.8021297   -1.5120829    1.5842315  
C   -0.9711318   -0.8147624    3.7284083  
O   -1.7894187   -1.5009653    4.3257297  
C    0.0140216    0.0115358    4.4216297  
H    2.2638494    1.8988021    5.0689105  
H    0.0117648    0.0094386    5.5031631  
H    3.3327358    2.7953732    2.7900019  
H    2.1123206    1.7707734    0.8551938  
