62

C    1.9074108   -2.1157062   -5.2171228  
C    1.7366753   -1.6153229   -6.4871356  
C    0.6103628   -0.7412451   -6.4423316  
C    0.1310741   -0.7480685   -5.1073549  
N    0.9400188   -1.5942802   -4.3903111  
C   -0.9736305    0.0040464   -4.6965761  
C   -1.6058310    0.7773675   -5.6507637  
O   -2.6892514    1.5315493   -5.3037402  
C   -1.1427646    0.7971172   -6.9879235  
O   -1.8787373    1.6162795   -7.8189834  
C   -0.0531729    0.0551810   -7.3939360  
H    0.8493707   -1.7918999   -3.4101531  
H   -2.9736292    1.9867680   -6.1069646  
H   -1.5003168    1.5722378   -8.7024209  
H    0.2783196    0.0903623   -8.4251257  
H    2.6418349   -2.8044007   -4.8359680  
C    1.1188638    0.0008222   -0.8003807  
C    0.0000000    0.0000000    0.0000000  
C   -1.1323863    0.0008897   -0.8673528  
C   -0.6382665    0.0019678   -2.1969280  
N    0.7324013    0.0038482   -2.1202242  
C   -1.4770921    0.0027316   -3.3154799  
C   -2.8395481    0.0020941   -3.0876851  
O   -3.7039209    0.0024421   -4.1440337  
C   -3.3517872    0.0013923   -1.7684324  
O   -4.7300501    0.0012357   -1.7073109  
C   -2.5248545    0.0009118   -0.6644811  
H    1.3576309   -0.0056164   -2.9057046  
H   -4.5940041    0.0021820   -3.7685117  
H   -4.9934604    0.0007252   -0.7819900  
H   -2.9462579    0.0005598    0.3339668  
H    2.1619891    0.0009357   -0.5342068  
C    3.5268632   -5.3899948   -7.8400647  
C    4.1506486   -4.9526533   -8.9642084  
C    3.8793884   -3.5386591   -9.0731762  
C    3.0404452   -3.1855319   -7.9120275  
N    2.8627716   -4.3519341   -7.2043357  
C    2.5713789   -1.9386678   -7.6531625  
C    2.9156034   -0.8734217   -8.5801445  
O    2.5417445    0.2829988   -8.4344655  
C    3.8027963   -1.2247337   -9.8167829  
O    4.0988303   -0.3362218  -10.6042918  
C    4.2482632   -2.6052214   -9.9890162  
H    4.7340567   -5.5522048   -9.6400681  
H    4.8623900   -2.8401486  -10.8477254  
H    3.4962531   -6.3833416   -7.4226740  
H    2.3339912   -4.4357476   -6.3555632  
C    2.5128556    2.1077716    2.9199648  
C    1.9592212    1.6432552    4.0696553  
C    0.8915788    0.7479214    3.6910360  
C    0.8684491    0.7287414    2.2159470  
N    1.8754542    1.5738793    1.8102719  
C    0.0000000    0.0000000    1.4700000  
C   -0.9772830   -0.8200135    2.1664417  
O   -1.8021297   -1.5120829    1.5842315  
C   -0.9711318   -0.8147624    3.7284083  
O   -1.7894187   -1.5009653    4.3257297  
C    0.0140216    0.0115358    4.4216297  
H    2.2638494    1.8988021    5.0689105  
H    0.0117648    0.0094386    5.5031631  
H    3.3327358    2.7953732    2.7900019  
H    2.1123206    1.7707734    0.8551938  
