64

C   -0.2041198   -0.6662882   -5.1294034  
C   -1.2456329    0.0471727   -4.5828766  
C   -1.8465395    0.7861442   -5.6446828  
C   -1.1230376    0.4806688   -6.8258504  
N   -0.1315496   -0.4025058   -6.4771798  
C   -1.4397841    1.0325680   -8.0707875  
C   -2.5065205    1.9085701   -8.1243731  
O   -2.8591344    2.4760485   -9.3146016  
C   -3.2403713    2.2261136   -6.9567062  
O   -4.2735432    3.1142237   -7.1738688  
C   -2.9282857    1.6822358   -5.7281600  
H   -0.8922028    0.8039213   -8.9747112  
H   -3.6170352    3.0463503   -9.1312768  
H   -4.7175604    3.2751085   -6.3356748  
H   -3.5084503    1.9444471   -4.8511582  
H    0.4936105   -1.3413505   -4.6641918  
C    1.2905464   -2.2932143   -7.3622226  
C    2.2090278   -2.4905669   -8.3671661  
C    2.3384425   -1.2516697   -9.0621368  
C    1.4674014   -0.3272748   -8.4307061  
N    0.8450879   -0.9927590   -7.4038302  
C    1.3364600    0.9988421   -8.8538572  
C    2.0989423    1.3991619   -9.9339230  
O    2.0101867    2.6831925  -10.3882368  
C    2.9734813    0.4914419  -10.5773849  
O    3.6638091    1.0415365  -11.6376613  
C    3.1029643   -0.8170258  -10.1606448  
H    2.7217625   -3.4141858   -8.5745860  
H    0.6742691    1.7082672   -8.3769689  
H    2.6161687    2.7501792  -11.1376130  
H    4.2312358    0.3629593  -12.0160314  
H    3.7808854   -1.4893191  -10.6734041  
H    0.9168844   -2.9775928   -6.6199544  
C    1.1243410    0.0099923   -0.7919003  
C    0.7474076    0.0234544   -2.1148543  
C   -0.6787381    0.0234490   -2.1414700  
C   -1.1201745    0.0098592   -0.7935546  
N    0.0000000    0.0000000    0.0000000  
C   -2.4730816    0.0063709   -0.4408240  
C   -3.3971958    0.0170982   -1.4675058  
O   -4.7313517    0.0146259   -1.1793471  
C   -2.9763648    0.0303504   -2.8186324  
O   -4.0166480    0.0395118   -3.7247624  
C   -1.6418562    0.0335260   -3.1673481  
H    1.4178717    0.0310972   -2.9571209  
H   -2.8160166   -0.0041111    0.5845966  
H   -5.1938818    0.0230867   -2.0274384  
H   -3.6464675    0.0482293   -4.6127343  
H    2.1062467    0.0052819   -0.3505407  
C    2.5128556    2.1077716    2.9199648  
C    1.9592212    1.6432552    4.0696553  
C    0.8915788    0.7479214    3.6910360  
C    0.8684491    0.7287414    2.2159470  
N    1.8754542    1.5738793    1.8102719  
C    0.0000000    0.0000000    1.4700000  
C   -0.9772830   -0.8200135    2.1664417  
O   -1.8021297   -1.5120829    1.5842315  
C   -0.9711318   -0.8147624    3.7284083  
O   -1.7894187   -1.5009653    4.3257297  
C    0.0140216    0.0115358    4.4216297  
H    2.2638494    1.8988021    5.0689105  
H    0.0117648    0.0094386    5.5031631  
H    3.3327358    2.7953732    2.7900019  
H    2.1123206    1.7707734    0.8551938  
