60

C    3.3003538    0.0005277   -1.4739000  
C    2.5232805    0.0003501   -2.6090752  
C    1.1623192   -0.0001315   -2.1820103  
C    1.1711879    0.0000585   -0.7636141  
N    2.4852298   -0.0014918   -0.3662362  
C    0.0000000    0.0000000    0.0000000  
C   -1.2020385    0.0000521   -0.6806474  
O   -2.3759249    0.0003497    0.0157757  
C   -1.2314667   -0.0005110   -2.0955503  
O   -2.5054399   -0.0008033   -2.6250170  
C   -0.0764526   -0.0007269   -2.8495190  
H    2.8919941   -0.0005614   -3.6205308  
H    2.8036265    0.0088181    0.5858651  
H   -3.0835641    0.0000349   -0.6418804  
H   -2.4360063   -0.0011522   -3.5845910  
H    4.3715543    0.0004895   -1.3667148  
C    2.2883715   -2.1096663   -5.8898019  
C    1.6780782   -1.6459097   -7.0107599  
C    0.6304122   -0.7505687   -6.5799514  
C    0.6807507   -0.7305564   -5.1055512  
N    1.7068930   -1.5752684   -4.7500468  
C   -0.1496430   -0.0015608   -4.3176959  
C   -1.1605716    0.8178678   -4.9650717  
O   -1.9555611    1.5101069   -4.3429003  
C   -1.2321962    0.8117318   -6.5254043  
O   -2.0793609    1.4974368   -7.0816251  
C   -0.2825959   -0.0147682   -7.2663560  
H    1.9326332   -1.9019641   -8.0238007  
H   -0.3386993   -0.0132848   -8.3464369  
H    1.9910620   -1.7715746   -3.8078371  
C    4.8536302   -4.3756119   -8.7445142  
C    3.8960836   -3.5543832   -8.2543427  
C    4.0481422   -3.6216283   -6.8090548  
C    5.1748198   -4.5552956   -6.5958715  
N    5.6511064   -5.0004619   -7.7267861  
C    5.6442991   -4.8934025   -5.2804402  
C    5.0170049   -4.3243339   -4.2259276  
O    5.3500228   -4.5496057   -2.9435890  
C    3.8772098   -3.3779248   -4.4085160  
O    3.3533240   -2.8976381   -3.4034845  
C    3.4141296   -3.0470653   -5.7679328  
H    3.1756126   -2.9745135   -8.8054762  
H    6.4696024   -5.5788296   -5.1540471  
H    4.7275065   -4.0069285   -2.4267449  
H    5.0711859   -4.6003693   -9.7765646  
C    2.5128556    2.1077716    2.9199648  
C    1.9592212    1.6432552    4.0696553  
C    0.8915788    0.7479214    3.6910360  
C    0.8684491    0.7287414    2.2159470  
N    1.8754542    1.5738793    1.8102719  
C    0.0000000    0.0000000    1.4700000  
C   -0.9772830   -0.8200135    2.1664417  
O   -1.8021297   -1.5120829    1.5842315  
C   -0.9711318   -0.8147624    3.7284083  
O   -1.7894187   -1.5009653    4.3257297  
C    0.0140216    0.0115358    4.4216297  
H    2.2638494    1.8988021    5.0689105  
H    0.0117648    0.0094386    5.5031631  
H    3.3327358    2.7953732    2.7900019  
H    2.1123206    1.7707734    0.8551938  
