62

C    4.7092239   -1.5246681   -0.3281847  
C    5.8235316   -0.8758443   -0.8075731  
C    5.3920994   -0.0501982   -1.8877468  
C    3.9926216   -0.2381879   -2.0220864  
N    3.6105675   -1.1410059   -1.0610598  
C    3.2304645    0.4216628   -2.9908495  
C    3.8930944    1.2872835   -3.8392603  
O    3.1971563    1.9577876   -4.8031625  
C    5.2890335    1.4878509   -3.7211775  
O    5.8020153    2.3803340   -4.6396906  
C    6.0415977    0.8370229   -2.7658781  
H    6.8244146   -0.9851276   -0.4264121  
H    2.6718357   -1.4617827   -0.9065734  
H    3.8408410    2.5001609   -5.2772582  
H    6.7493888    2.4585206   -4.4914511  
H    7.1092754    1.0106716   -2.6996324  
C    0.0000000    0.0000000    0.0000000  
C   -1.0433706   -0.1357700   -0.8862346  
C   -0.4876931   -0.0628162   -2.1979131  
C    0.9109687    0.1192728   -2.0478680  
N    1.1731286    0.1549546   -0.7007908  
C    1.7800343    0.2326352   -3.1372083  
C    1.2271251    0.1605681   -4.4010422  
O    2.0302057    0.2649723   -5.4997574  
C   -0.1661091   -0.0204368   -4.5711962  
O   -0.5627934   -0.0717932   -5.8915557  
C   -1.0240966   -0.1320779   -3.4969894  
H   -2.0778797   -0.2696866   -0.6200570  
H    2.0824545    0.2630540   -0.2891816  
H    1.4511251    0.1898467   -6.2693593  
H   -1.5164929   -0.1957352   -5.9180052  
H   -2.0868287   -0.2699569   -3.6584461  
C    4.5757107   -2.4903027    0.7720990  
C    5.5335202   -2.9848165    1.5980118  
C    4.8777884   -3.8984637    2.5036053  
C    3.4492035   -3.8956988    2.1349203  
N    3.3322118   -3.0216701    1.0788539  
C    2.4935182   -4.6326658    2.7556047  
C    2.8989627   -5.4853283    3.8606461  
O    2.1130251   -6.1871340    4.4836002  
C    4.4066956   -5.5037283    4.2683328  
O    4.7598579   -6.2174847    5.1973585  
C    5.3433122   -4.6657687    3.5237358  
H    6.5799437   -2.7376180    1.5755451  
H    1.4510563   -4.6161993    2.4694032  
H    6.3855170   -4.6843894    3.8121571  
H    2.4757914   -2.8048866    0.6028319  
C    1.0965515   -0.0001358    2.2710304  
C    0.0000000    0.0000000    1.4700000  
C   -1.1546562   -0.0001469    2.3369512  
C   -0.6372014   -0.0003519    3.7186280  
N    0.7342871   -0.0007337    3.6095011  
C   -1.4147739   -0.0001353    4.8308716  
C   -2.8576048    0.0001048    4.6554461  
O   -3.6427778    0.0002493    5.5944904  
C   -3.4275839    0.0000726    3.2011665  
O   -4.6406829   -0.0000333    3.0410059  
C   -2.4891866    0.0001091    2.0816745  
H   -1.0150448   -0.0001615    5.8354244  
H   -2.8919121    0.0002919    1.0779135  
H    2.1388271   -0.0000662    1.9961646  
H    1.3735872    0.0006099    4.3830260  
