58

C    0.0000000    0.0000000    0.0000000  
C    1.0541690   -0.0001720   -0.8560388  
C    0.5103143   -0.0000450   -2.1935956  
C   -0.9576364    0.0002460   -2.0455736  
N   -1.2018457   -0.0001391   -0.6915972  
C   -1.8348304    0.0008318   -3.0810614  
C   -1.2972842    0.0009740   -4.4314610  
O   -2.0050661    0.0014269   -5.4301325  
C    0.2542635    0.0004190   -4.6117575  
O    0.7184685    0.0002263   -5.7439121  
C    1.0974557    0.0000880   -3.4189128  
H    2.0940754   -0.0005479   -0.5817980  
H   -2.9081044    0.0011667   -2.9507069  
H   -2.1128195    0.0014909   -0.2706795  
C    4.5419742   -2.0086035   -1.4277087  
C    3.2788576   -1.6273097   -1.7289241  
C    3.4208773   -0.7114094   -2.8502879  
C    4.8768269   -0.6535599   -3.1021771  
N    5.5391402   -1.4119784   -2.2714351  
C    5.4362952    0.1568550   -4.1487474  
C    4.5801566    0.8764554   -4.9093636  
O    4.9635262    1.6751731   -5.9198676  
C    3.1056341    0.8388687   -4.6801665  
O    2.3859382    1.5196348   -5.4107936  
C    2.5562221   -0.0001544   -3.6003002  
H    2.3637602   -1.9302434   -1.2494410  
H    4.1343379    2.0498014   -6.2680824  
H    4.8643497   -2.6854718   -0.6525333  
C    8.3699881   -3.0616574   -4.0000187  
C    9.5214122   -2.4111224   -4.2874301  
C    9.1300196   -1.0232756   -4.4802837  
C    7.6669556   -1.0153993   -4.2658890  
N    7.2157724   -2.2074306   -3.9839588  
C    6.8894166    0.1887508   -4.3685664  
C    7.5437897    1.3330854   -4.6712682  
O    6.9444895    2.5291748   -4.7987408  
C    9.0197251    1.3576232   -4.8930213  
O    9.5491051    2.4350279   -5.1653769  
C    9.7950903    0.1092534   -4.7820937  
H   10.5138057   -2.8222546   -4.3595605  
H    7.6663282    3.1462526   -5.0162639  
H   10.8620821    0.1692537   -4.9499066  
H    8.2344491   -4.1108121   -3.7905503  
C    1.0965515   -0.0001358    2.2710304  
C    0.0000000    0.0000000    1.4700000  
C   -1.1546562   -0.0001469    2.3369512  
C   -0.6372014   -0.0003519    3.7186280  
N    0.7342871   -0.0007337    3.6095011  
C   -1.4147739   -0.0001353    4.8308716  
C   -2.8576048    0.0001048    4.6554461  
O   -3.6427778    0.0002493    5.5944904  
C   -3.4275839    0.0000726    3.2011665  
O   -4.6406829   -0.0000333    3.0410059  
C   -2.4891866    0.0001091    2.0816745  
H   -1.0150448   -0.0001615    5.8354244  
H   -2.8919121    0.0002919    1.0779135  
H    2.1388271   -0.0000662    1.9961646  
H    1.3735872    0.0006099    4.3830260  
