62

C    3.3003549    0.0005277   -1.4738979  
C    2.5232818    0.0003498   -2.6090742  
C    1.1623206   -0.0001318   -2.1820097  
C    1.1711888    0.0000584   -0.7636136  
N    2.4852303   -0.0014919   -0.3662352  
C    0.0000000    0.0000000    0.0000000  
C   -1.2020383    0.0000520   -0.6806483  
O   -2.3759247    0.0003494    0.0157743  
C   -1.2314650   -0.0005110   -2.0955506  
O   -2.5054387   -0.0008035   -2.6250181  
C   -0.0764514   -0.0007271   -2.8495192  
H    2.8036265    0.0088182    0.5858672  
H   -3.0835638    0.0000350   -0.6418812  
H   -2.4360039   -0.0011527   -3.5845922  
H   -0.1304089   -0.0013419   -3.9319085  
H    4.3715552    0.0004895   -1.3667127  
C    5.9339396   -2.1239631   -4.5697795  
C    5.0139152   -1.6613192   -3.6576490  
C    4.1430867   -0.7747004   -4.3577672  
C    4.5843189   -0.7357738   -5.7052559  
N    5.6745648   -1.5647288   -5.7991413  
C    3.9561309    0.0394408   -6.6846489  
C    2.8624156    0.7887789   -6.2967603  
O    2.2114282    1.5633306   -7.2128926  
C    2.4073422    0.7634327   -4.9569532  
O    1.3072166    1.5639368   -4.7283482  
C    3.0267440   -0.0008949   -3.9901693  
H    4.9758715   -1.9289914   -2.6155851  
H    4.2876080    0.0735629   -7.7133177  
H    1.4889949    1.9966213   -6.7400143  
H    1.0643865    1.4893958   -3.8004040  
H    6.7555157   -2.8075032   -4.4403779  
C    6.4360484   -1.8312721   -7.0279611  
C    7.5128899   -2.6384168   -7.2096325  
C    7.8790119   -2.5445817   -8.6031832  
C    6.9203443   -1.6098828   -9.2229287  
N    6.0719709   -1.2136771   -8.2148745  
C    6.9299487   -1.2548208  -10.5327158  
C    7.9526032   -1.8319354  -11.3892511  
O    8.0448632   -1.5750469  -12.5824801  
C    8.9780661   -2.8243757  -10.7541974  
O    9.8433878   -3.3168264  -11.4655149  
C    8.8666700   -3.1296876   -9.3300389  
H    7.9955330   -3.2319543   -6.4537337  
H    6.2176410   -0.5673212  -10.9673095  
H    9.5806783   -3.8176287   -8.8980045  
H    5.3074698   -0.5728519   -8.3240952  
C    0.8681109    0.7263879    2.2709268  
C    0.6127770    0.5096195    3.5869401  
C   -0.4920590   -0.4175482    3.6542670  
C   -0.8620974   -0.7254003    2.2596025  
N    0.0000000    0.0000000    1.4700000  
C   -1.8641242   -1.5660088    1.8976294  
C   -2.6293522   -2.2103885    2.9520183  
O   -3.5512764   -2.9839180    2.7283916  
C   -2.2549728   -1.8987399    4.4361073  
O   -2.8923672   -2.4351063    5.3323774  
C   -1.1543735   -0.9755647    4.7012123  
H    1.1382914    0.9492124    4.4159191  
H   -2.1192137   -1.7782617    0.8686553  
H   -0.9013378   -0.7652422    5.7314848  
H    1.6172880    1.3558399    1.8188057  
