64

C    2.3128795   -2.1207449   -5.9853290  
C    1.8202489   -1.6594120   -4.7865988  
C    0.7463179   -0.7716431   -5.0917846  
C    0.6288901   -0.7306952   -6.5047462  
N    1.5962666   -1.5596058   -7.0163180  
C   -0.3301660    0.0460753   -7.1617300  
C   -1.1864717    0.7949196   -6.3780524  
O   -2.1419344    1.5709322   -6.9678911  
C   -1.0847731    0.7675649   -4.9667673  
O   -2.0088867    1.5678195   -4.3272755  
C   -0.1387079    0.0017019   -4.3179684  
H    2.1902179   -1.9286752   -3.8121179  
H    1.7489518   -1.7404134   -7.9920111  
H   -0.4247433    0.0817407   -8.2382921  
H   -2.6233442    2.0035656   -6.2507168  
H   -1.8718320    1.4918816   -3.3780374  
C    4.2019270   -3.6532656   -5.3046564  
C    5.1391033   -4.4485876   -5.9224201  
C    4.9211360   -4.3342803   -7.3274196  
C    3.8286523   -3.4479050   -7.5083685  
N    3.4145068   -3.0544730   -6.2600447  
C    3.3363867   -3.1020507   -8.7704498  
C    3.9585017   -3.6609359   -9.8699027  
O    3.5184054   -3.3570427  -11.1256817  
C    5.0497391   -4.5477141   -9.7097709  
O    5.5611288   -5.0205382  -10.9006780  
C    5.5357260   -4.8895653   -8.4649891  
H    5.8870465   -5.0394131   -5.4219221  
H    2.5040046   -2.4271994   -8.9150838  
H    4.0822327   -3.8466966  -11.7385456  
H    6.2939192   -5.6119424  -10.7035456  
H    6.3729633   -5.5715937   -8.3736264  
H    4.0319524   -3.4668743   -4.2580785  
C    3.3041273    0.0001178   -1.5420428  
C    2.5845373   -0.0004780   -0.3695851  
C    1.2040007   -0.0000007   -0.7283589  
C    1.1422374    0.0006038   -2.1454372  
N    2.4348641    0.0026111   -2.6077464  
C   -0.0655179    0.0008799   -2.8497918  
C   -1.2321766    0.0002325   -2.1101402  
O   -2.4392814    0.0001148   -2.7472522  
C   -1.1911209   -0.0000007   -0.6955266  
O   -2.4371528   -0.0002320   -0.1032862  
C    0.0000000    0.0000000    0.0000000  
H    3.0031533   -0.0000660    0.6222584  
H    2.7054631   -0.0071097   -3.5745261  
H   -3.1132988   -0.0000648   -2.0551787  
H   -2.3200282   -0.0004072    0.8516409  
H    4.3686625    0.0004073   -1.7024290  
C    0.0000000    0.0000000    1.4700000  
C    1.0541688    0.0001722    2.3260392  
C    0.5103138    0.0000454    3.6635956  
C   -0.9576371   -0.0002459    3.5155732  
N   -1.2018458    0.0001392    2.1615969  
C   -1.8348311   -0.0008317    4.5510609  
C   -1.2972847   -0.0009736    5.9014604  
O   -2.0050672   -0.0014265    6.9001319  
C    0.2542623   -0.0004184    6.0817573  
O    0.7184670   -0.0002256    7.2139121  
C    1.0974552   -0.0000873    4.8889129  
H    2.0940752    0.0005483    2.0517982  
H   -2.9081052   -0.0011668    4.4207061  
H    2.1707277    0.0000911    5.0223670  
H   -2.1128194   -0.0014912    1.7406791  
