60

C    1.1243405    0.0100270   -0.7919011  
C    0.7474059    0.0234779   -2.1148551  
C   -0.6787398    0.0234286   -2.1414701  
C   -1.1201753    0.0098251   -0.7935549  
N    0.0000000    0.0000000    0.0000000  
C   -2.4730820    0.0062951   -0.4408238  
C   -3.3971968    0.0169942   -1.4675055  
O   -4.7313528    0.0144810   -1.1793456  
C   -2.9763670    0.0302601   -2.8186319  
O   -4.0166500    0.0393890   -3.7247613  
C   -1.6418584    0.0334762   -3.1673481  
H    1.4178693    0.0311414   -2.9571219  
H   -2.8160168   -0.0041972    0.5845969  
H   -5.1938835    0.0229277   -2.0274373  
H   -3.6464704    0.0481183   -4.6127336  
H    2.1062462    0.0053469   -0.3505421  
C   -0.2201715   -0.6516354   -5.1344353  
C   -1.2456361    0.0471353   -4.5828766  
C   -1.8642321    0.7990473   -5.6490858  
C   -1.1097058    0.4787363   -6.8758216  
N   -0.1264542   -0.4053972   -6.4958036  
C   -1.3840484    0.9897602   -8.1027263  
C   -2.4965753    1.9173118   -8.2230091  
O   -2.8231685    2.4316773   -9.2846429  
C   -3.3092978    2.2709620   -6.9368442  
O   -4.2479088    3.0509437   -7.0257222  
C   -2.9183445    1.6560857   -5.6707739  
H   -0.8181874    0.7416387   -8.9899390  
H   -3.4863015    1.9060251   -4.7849528  
H    0.4751036   -1.3255995   -4.6608804  
C    1.7278766   -4.4307493   -6.9674413  
C    0.9603469   -3.4190077   -6.4996197  
C    1.2835895   -2.2807204   -7.3459741  
C    2.2912596   -2.7975124   -8.2968209  
N    2.5556526   -4.0572806   -8.0798633  
C    2.8732308   -1.9667793   -9.3147986  
C    2.4667226   -0.6784424   -9.3801666  
O    2.9256338    0.2086880  -10.2793003  
C    1.4512012   -0.1273621   -8.4350800  
O    1.1282719    1.0546298   -8.5526897  
C    0.8690474   -0.9995833   -7.3995840  
H    0.2611140   -3.4422917   -5.6813245  
H    3.6076923   -2.3707545   -9.9961807  
H    2.4522939    1.0355161  -10.0756884  
H    1.7805360   -5.4457929   -6.6070432  
C    0.0000000    0.0000000    1.4700000  
C    1.0541688    0.0001722    2.3260392  
C    0.5103138    0.0000454    3.6635956  
C   -0.9576371   -0.0002459    3.5155732  
N   -1.2018458    0.0001392    2.1615969  
C   -1.8348311   -0.0008317    4.5510609  
C   -1.2972847   -0.0009736    5.9014604  
O   -2.0050672   -0.0014265    6.9001319  
C    0.2542623   -0.0004184    6.0817573  
O    0.7184670   -0.0002256    7.2139121  
C    1.0974552   -0.0000873    4.8889129  
H    2.0940752    0.0005483    2.0517982  
H   -2.9081052   -0.0011668    4.4207061  
H    2.1707277    0.0000911    5.0223670  
H   -2.1128194   -0.0014912    1.7406791  
