58

C    9.8078957   -0.7094991    0.8788352  
C    9.0957054   -0.0045218   -0.0376080  
C   10.0477183    0.7348799   -0.8324615  
C   11.3824940    0.4004641   -0.3001729  
N   11.1677386   -0.4790602    0.7357842  
C   12.5494233    0.8971781   -0.7831382  
C   12.4865470    1.8231126   -1.9017210  
O   13.4817197    2.3250783   -2.4076509  
C   11.0835797    2.1915467   -2.4811532  
O   11.0180910    2.9703105   -3.4226935  
C    9.8970060    1.5914582   -1.8763473  
H   13.5180651    0.6388593   -0.3782732  
H    8.9293941    1.8515781   -2.2835201  
H    9.4537294   -1.3778235    1.6468184  
H   11.8880400   -0.8917248    1.2996294  
C    6.7235409   -0.0015093    0.8630514  
C    5.4473221   -0.0011276    0.3990037  
C    5.5236520   -0.0015785   -1.0428731  
C    6.9592466   -0.0022884   -1.3832521  
N    7.6329842   -0.0018116   -0.1836825  
C    7.4493968   -0.0032608   -2.6487388  
C    6.4996350   -0.0034067   -3.7489603  
O    6.8417408   -0.0041914   -4.9242316  
C    4.9744857   -0.0024120   -3.4117302  
O    4.1654301   -0.0022186   -4.3297117  
C    4.5679461   -0.0016854   -2.0086701  
H    4.5543636   -0.0004091    0.9983692  
H    8.5062544   -0.0038994   -2.8766905  
H    7.0761901   -0.0013786    1.8816429  
C    3.1301149   -0.0010311   -1.7028252  
C    2.5367768   -0.0002767   -0.4864665  
C    1.1089904    0.0001028   -0.7656183  
C    1.0177872   -0.0004148   -2.2415132  
N    2.1993578   -0.0011611   -2.7963820  
C   -0.2459209   -0.0002877   -2.9257118  
C   -1.3675319   -0.0000605   -2.1698524  
O   -2.6129313    0.0000867   -2.6748490  
C   -1.3083584    0.0000910   -0.6783232  
O   -2.3693261    0.0004206   -0.0541692  
C    0.0000000    0.0000000    0.0000000  
H    3.0096017   -0.0001007    0.4807525  
H   -0.2829630   -0.0004687   -4.0053125  
H   -3.1967441    0.0002094   -1.8949034  
C    2.5528530    2.1414826    2.8079335  
C    2.0663498    1.7338582    4.0032312  
C    0.9804344    0.8229586    3.6752840  
C    0.9495562    0.7966882    2.1971295  
N    1.8690446    1.5676019    1.6831036  
C    0.0000000    0.0000000    1.4700000  
C   -0.8785127   -0.7372425    2.1869543  
O   -1.8187535   -1.5261249    1.6395491  
C   -0.8723269   -0.7321790    3.6796354  
O   -1.7010379   -1.4274584    4.2670412  
C    0.1115397    0.0933559    4.4024240  
H    2.4028853    2.0163452    4.9860947  
H   -2.2861435   -1.9184361    2.3990168  
H    0.0832434    0.0693689    5.4835595  
H    3.3664920    2.8238276    2.6198634  
