62

C   -4.4706654    2.1247474   -0.3281857  
C   -5.6599553    1.6265075   -0.8075747  
C   -5.3396781    0.7517232   -1.8877483  
C   -3.9276369    0.7559269   -2.0220874  
N   -3.4313039    1.6013255   -1.0610605  
C   -3.2578655    0.0024729   -2.9908506  
C   -4.0275441   -0.7695189   -3.8392616  
O   -3.4248154   -1.5249155   -4.8031639  
C   -5.4377145   -0.7866543   -3.7211792  
O   -6.0625153   -1.6047615   -4.6396925  
C   -6.0991488   -0.0433951   -2.7658801  
H   -6.6380947    1.8651571   -0.4264138  
H   -2.4588016    1.7971671   -0.9065739  
H   -4.1336291   -1.9788775   -5.2772599  
H   -7.0120053   -1.5589523   -4.4914535  
H   -4.2816583    2.8131793    0.4776032  
C    0.0000000    0.0000000    0.0000000  
C    1.0521667   -0.0012127   -0.8862342  
C    0.4917213   -0.0012065   -2.1979130  
C   -0.9187429    0.0003340   -2.0478681  
N   -1.1833171   -0.0009161   -0.7007913  
C   -1.7951703    0.0010729   -3.1372088  
C   -1.2375845    0.0005482   -4.4010422  
O   -2.0474215    0.0015792   -5.4997578  
C    0.1673578   -0.0013607   -4.5711963  
O    0.5673518   -0.0020815   -5.8915554  
C    1.0325766   -0.0023637   -3.4969890  
H    2.0953063   -0.0031096   -0.6200564  
H   -2.0989776    0.0102817   -0.2891822  
H   -1.4634889    0.0006800   -6.2693595  
H    1.5290711   -0.0033483   -5.9180046  
H    2.1042152   -0.0040061   -3.6584455  
C   -7.5657098   -0.0884001   -2.6760232  
C   -8.3910249    0.5621697   -1.8159717  
C   -9.7402665    0.1720346   -2.1508986  
C   -9.6325825   -0.7658998   -3.2846857  
N   -8.2884542   -0.8809036   -3.5548395  
C  -10.6895186   -1.3611010   -3.8932293  
C  -12.0220991   -1.0575148   -3.3986577  
O  -13.0376957   -1.5427454   -3.8797124  
C  -12.1597199   -0.0667078   -2.1990050  
O  -13.2765865    0.1967404   -1.7741919  
C  -10.9467055    0.5112914   -1.6259734  
H   -8.0891056    1.2383456   -1.0360712  
H  -10.5887002   -2.0462761   -4.7234579  
H  -11.0506072    1.1962507   -0.7954557  
H   -7.8932478   -1.4539990   -4.2776270  
C    0.0000000    0.0000000    1.4700000  
C    1.0662921    0.0000102    2.3034270  
C    0.4961870   -0.0000064    3.6418889  
C   -0.9663858    0.0000850    3.4240247  
N   -1.2632773    0.0000084    2.1528658  
C   -1.8985362    0.0000517    4.5177257  
C   -1.3925775   -0.0004564    5.7720543  
O   -2.1456383   -0.0005410    6.8851312  
C    0.0786232   -0.0009323    6.0245000  
O    0.4683759   -0.0012588    7.1921102  
C    1.0143166   -0.0008442    4.8859032  
H    2.1107198   -0.0000632    2.0421868  
H   -2.9622183    0.0003270    4.3293377  
H   -1.5042274   -0.0009692    7.6184419  
H    2.0724152   -0.0013148    5.1109744  
