58

C    1.2212294   -1.0932795   -9.5173949  
C    1.6523113   -0.7608379  -10.7614720  
C    1.4425983    0.6595700  -10.9141050  
C    0.8497788    1.1307791   -9.6478824  
N    0.7413083    0.0196743   -8.8437866  
C    0.5039003    2.4180589   -9.3929660  
C    0.7304276    3.4053050  -10.4353502  
O    0.4524903    4.5899615  -10.3025326  
C    1.3569496    2.9285539  -11.7844181  
O    1.5520401    3.7506265  -12.6695150  
C    1.6882297    1.5145062  -11.9411814  
H    2.0694177   -1.4338708  -11.4892518  
H    0.0704222    2.7427981   -8.4572569  
H    2.1218725    1.1925681  -12.8782162  
H    1.2135655   -2.0577253   -9.0360693  
C    2.0060354   -2.0933382   -5.2079950  
C    1.0681400   -1.6309435   -4.3416125  
C    0.2140994   -0.7346501   -5.0846522  
C    0.7350366   -0.7126398   -6.4648448  
N    1.8215800   -1.5565851   -6.4731480  
C    0.2009231    0.0171137   -7.4767177  
C   -0.9646761    0.8356538   -7.1870525  
O   -1.5183198    1.5285630   -8.0306496  
C   -1.5330619    0.8277889   -5.7321707  
O   -2.5138749    1.5132042   -5.4762943  
C   -0.8712826    0.0001710   -4.7267111  
H    0.9842756   -1.8882192   -3.3007524  
H    2.8165825   -2.7808931   -5.0286319  
H    2.3914344   -1.7539297   -7.2752498  
C    1.0965514    0.0001359   -0.8010305  
C    0.0000000    0.0000000    0.0000000  
C   -1.1546563    0.0001470   -0.8669513  
C   -0.6372014    0.0003519   -2.2486282  
N    0.7342871    0.0007337   -2.1395014  
C   -1.4147739    0.0001352   -3.3608717  
C   -2.8576049   -0.0001048   -3.1854462  
O   -3.6427779   -0.0002494   -4.1244907  
C   -3.4275840   -0.0000725   -1.7311666  
O   -4.6406831    0.0000333   -1.5710060  
C   -2.4891867   -0.0001091   -0.6116744  
H   -2.8919122   -0.0002918    0.3920866  
H    2.1388272    0.0000663   -0.5261648  
H    1.3735872   -0.0006099   -2.9130262  
C    2.5528530    2.1414826    2.8079335  
C    2.0663498    1.7338582    4.0032312  
C    0.9804344    0.8229586    3.6752840  
C    0.9495562    0.7966882    2.1971295  
N    1.8690446    1.5676019    1.6831036  
C    0.0000000    0.0000000    1.4700000  
C   -0.8785127   -0.7372425    2.1869543  
O   -1.8187535   -1.5261249    1.6395491  
C   -0.8723269   -0.7321790    3.6796354  
O   -1.7010379   -1.4274584    4.2670412  
C    0.1115397    0.0933559    4.4024240  
H    2.4028853    2.0163452    4.9860947  
H   -2.2861435   -1.9184361    2.3990168  
H    0.0832434    0.0693689    5.4835595  
H    3.3664920    2.8238276    2.6198634  
