58

C    2.3329750   -1.9917716   -8.4465178  
C    3.3117754   -2.8241041   -8.8861168  
C    3.2537459   -2.8172202  -10.3288295  
C    2.1530306   -1.9060943  -10.6963431  
N    1.6357161   -1.4391351   -9.5100782  
C    1.7778710   -1.6282550  -11.9706142  
C    2.5066923   -2.2695502  -13.0523250  
O    2.2449603   -2.0841362  -14.2336022  
C    3.6759211   -3.2384146  -12.6862504  
O    4.2965606   -3.7843795  -13.5884637  
C    3.9870792   -3.4584025  -11.2760592  
H    3.9961939   -3.3796467   -8.2700345  
H    0.9676162   -0.9567472  -12.2185547  
H    4.7982119   -4.1305252  -11.0310316  
H    0.8709134   -0.7944516   -9.4294088  
C    2.5563882   -2.1074458   -5.9371929  
C    1.9637245   -1.6426518   -7.0671445  
C    0.9098263   -0.7472304   -6.6519876  
C    0.9372953   -0.7283017   -5.1769702  
N    1.9574935   -1.5736538   -4.8062060  
C    0.0950446    0.0004351   -4.4015596  
C   -0.9054233    0.8207086   -5.0639424  
O   -1.7097172    1.5127953   -4.4536737  
C   -0.9528377    0.8157262   -6.6252025  
O   -1.7910237    1.5021489   -7.1939980  
C    0.0078422   -0.0105932   -7.3519361  
H   -0.0314997   -0.0083091   -8.4327557  
H    3.3801400   -2.7951867   -5.8355365  
H    2.2269416   -1.7707466   -3.8598449  
C    3.3321173    0.0004713   -1.3379338  
C    2.6974181    0.0000116   -2.5332314  
C    1.2800438   -0.0002119   -2.2052841  
C    1.2395034    0.0000643   -0.7271299  
N    2.4394062    0.0005460   -0.2131038  
C    0.0000000    0.0000000    0.0000000  
C   -1.1468702    0.0000634   -0.7169543  
O   -2.3742203    0.0000074   -0.1695487  
C   -1.1388770    0.0001607   -2.2096355  
O   -2.2206234    0.0000905   -2.7970411  
C    0.1454522    0.0001815   -2.9324241  
H    3.1367984   -0.0000653   -3.5160950  
H   -2.9844346    0.0001026   -0.9290167  
H    4.3940038    0.0007618   -1.1498640  
C    2.3971438    2.0127888    3.1728260  
C    1.9431056    1.6308205    1.9564670  
C    0.8496017    0.7127664    2.2356185  
C    0.7794028    0.6545384    3.7115134  
N    1.6840587    1.4146091    4.2663826  
C   -0.1885723   -0.1578550    4.3957118  
C   -1.0476298   -0.8789867    3.6398520  
O   -2.0015663   -1.6796266    4.1448486  
C   -1.0022026   -0.8410666    2.1483229  
O   -1.8147390   -1.5232959    1.5241687  
C    0.0000000    0.0000000    1.4700000  
H    2.3054237    1.9346118    0.9892483  
H   -0.2170646   -0.1815267    5.4753125  
H   -2.4487139   -2.0549881    3.3649027  
H    3.2048689    2.6911772    3.3971983  
