58

C    6.6317365    0.0027575   -4.3241616  
C    5.4016570    0.0020952   -3.7488541  
C    5.6054510    0.0015082   -2.3194127  
C    7.0655596    0.0019147   -2.1075798  
N    7.6303533    0.0022710   -3.3621307  
C    7.6659163    0.0019587   -0.8905029  
C    6.8173803    0.0013542    0.2895489  
O    7.2622819    0.0012813    1.4298841  
C    5.2683488    0.0006643    0.0887881  
O    4.5438178   -0.0001546    1.0748482  
C    4.7390840    0.0009613   -1.2727298  
H    4.4591013    0.0018433   -4.2667372  
H    8.7388159    0.0023901   -0.7570955  
H    6.8927419    0.0033431   -5.3699948  
C   10.0246130    2.1158482   -6.3760399  
C   11.2584450    1.6534130   -6.0475754  
C   11.0879498    0.7572278   -4.9283706  
C    9.6432900    0.7352804   -4.6295967  
N    9.0547879    1.5797916   -5.5424802  
C    9.0743780    0.0050258   -3.6372403  
C    9.9429003   -0.8138122   -2.8079587  
O    9.5266043   -1.5070822   -1.8890596  
C   11.4761068   -0.8056331   -3.1063199  
O   12.2172617   -1.4908252   -2.4146104  
C   11.9712068    0.0220949   -4.2034038  
H   12.1825676    1.9108728   -6.5337083  
H   13.0340546    0.0220243   -4.4035965  
H    9.7422580    2.8033150   -7.1567794  
H    8.0718996    1.7749275   -5.5963241  
C    3.2798077    0.0005856   -1.4499661  
C    2.5571132    0.0005565   -2.5996564  
C    1.1637425    0.0001547   -2.2210366  
C    1.1336959   -0.0000200   -0.7459475  
N    2.4483509   -0.0001429   -0.3402730  
C    0.0000000    0.0000000    0.0000000  
C   -1.2757370   -0.0000187   -0.6964411  
O   -2.3524597   -0.0000640   -0.1142306  
C   -1.2676502   -0.0000874   -2.2584078  
O   -2.3355774   -0.0004102   -2.8557287  
C    0.0181551    0.0001758   -2.9516297  
H    2.9547342    0.0006074   -3.5989118  
H    0.0150776    0.0003317   -4.0331632  
H    2.7563626    0.0012823    0.6148051  
C    2.4951002    2.0940188    2.9809380  
C    1.9440701    1.6314916    1.8291961  
C    0.8759964    0.7350050    2.2038498  
C    0.8497377    0.7130254    3.6788474  
N    1.8560616    1.5571714    4.0882609  
C   -0.0205033   -0.0168748    4.4215661  
C   -0.9962600   -0.8356168    3.7214979  
O   -1.8224391   -1.5286685    4.3006425  
C   -0.9864710   -0.8277881    2.1595606  
O   -1.8030528   -1.5133726    1.5592035  
C    0.0000000    0.0000000    1.4700000  
H    2.2509283    1.8888011    0.8310761  
H   -0.0229599   -0.0187323    5.5027230  
H    3.3143982    2.7817323    3.1139444  
H    2.0889452    1.7545833    5.0442112  
