58

C    4.3630977   -2.0949039   -1.3110651  
C    3.1522512   -1.6320805   -1.7156882  
C    3.3924173   -0.7354494   -2.8216758  
C    4.8529069   -0.7137078   -3.0297342  
N    5.3832064   -1.5581154   -2.0817639  
C    5.4827045    0.0162379   -3.9848457  
C    4.6677390    0.8352839   -4.8666223  
O    5.1406430    1.5283991   -5.7578309  
C    3.1189444    0.8277104   -4.6641775  
O    2.4225435    1.5135515   -5.4003216  
C    2.5562217   -0.0001543   -3.6003001  
H    2.1995749   -1.8892844   -1.2880586  
H    6.5552966    0.0179177   -4.1206903  
H    6.3605504   -1.7557299   -1.9686510  
C    3.7525122   -3.6325205    0.6128071  
C    4.3630119   -4.4443849    1.5140524  
C    5.7811260   -4.3731598    1.2519186  
C    5.9479630   -3.4465844    0.1159538  
N    4.6807926   -3.0330188   -0.2248284  
C    7.1424963   -3.1121978   -0.4344817  
C    8.3440170   -3.7045824    0.1294007  
O    9.4667857   -3.4666725   -0.2961442  
C    8.1908863   -4.6887718    1.3326155  
O    9.1953312   -5.1939313    1.8154871  
C    6.8502993   -4.9714301    1.8393527  
H    3.8755359   -5.0268308    2.2754565  
H    7.2429307   -2.4303262   -1.2674731  
H    6.7528968   -5.6537864    2.6727961  
H    2.7025449   -3.4218987    0.4899412  
C    0.0000000    0.0000000    0.0000000  
C    1.0541688   -0.0001719   -0.8560391  
C    0.5103141   -0.0000449   -2.1935955  
C   -0.9576367    0.0002461   -2.0455733  
N   -1.2018459   -0.0001392   -0.6915970  
C   -1.8348306    0.0008319   -3.0810611  
C   -1.2972842    0.0009739   -4.4314605  
O   -2.0050664    0.0014267   -5.4301321  
C    0.2542628    0.0004190   -4.6117571  
O    0.7184677    0.0002263   -5.7439119  
C    1.0974556    0.0000880   -3.4189127  
H    2.0940752   -0.0005479   -0.5817978  
H   -2.9081050    0.0011669   -2.9507065  
H   -2.1128195    0.0014911   -0.2706793  
C    0.0000000    0.0000000    1.4700000  
C    1.0541688    0.0001722    2.3260392  
C    0.5103138    0.0000454    3.6635956  
C   -0.9576371   -0.0002459    3.5155732  
N   -1.2018458    0.0001392    2.1615969  
C   -1.8348311   -0.0008317    4.5510609  
C   -1.2972847   -0.0009736    5.9014604  
O   -2.0050672   -0.0014265    6.9001319  
C    0.2542623   -0.0004184    6.0817573  
O    0.7184670   -0.0002256    7.2139121  
C    1.0974552   -0.0000873    4.8889129  
H    2.0940752    0.0005483    2.0517982  
H   -2.9081052   -0.0011668    4.4207061  
H    2.1707277    0.0000911    5.0223670  
H   -2.1128194   -0.0014912    1.7406791  
