58

C   -0.0323591   -0.0097878   -8.8431965  
C    0.7716672   -0.6849939   -9.7044234  
C    0.3481129   -0.3334273  -11.0392789  
C   -0.7766255    0.6087233  -10.8840168  
N   -0.9574597    0.7627419   -9.5288543  
C   -1.4540069    1.1740507  -11.9151641  
C   -1.0483738    0.8315627  -13.2681980  
O   -1.5957506    1.2879868  -14.2633634  
C    0.1401391   -0.1643877  -13.4561447  
O    0.4903939   -0.4604503  -14.5905735  
C    0.7923873   -0.7079790  -12.2674758  
H    1.5701999   -1.3532299   -9.4353172  
H   -2.2761581    1.8629466  -11.7795165  
H    1.6146222   -1.3967478  -12.4062231  
H   -1.6528909    1.3479382   -9.1034510  
C    2.4782024   -2.1081880   -5.8783640  
C    1.9212515   -1.6438944   -7.0265418  
C    0.8545986   -0.7486155   -6.6450159  
C    0.8356633   -0.7292246   -5.1698698  
N    1.8439056   -1.5742007   -4.7669390  
C   -0.0307352   -0.0004646   -4.4215603  
C   -1.0100799    0.8193479   -5.1153371  
O   -1.8333384    1.5114170   -4.5308826  
C   -1.0083719    0.8138718   -6.6773144  
O   -1.8284253    1.4999043   -7.2724040  
C   -0.0251095   -0.0124255   -7.3732162  
H    2.2230620   -1.8995544   -8.0266228  
H    3.2985202   -2.7956869   -5.7506349  
H    2.0835085   -1.7709326   -3.8125105  
C    3.2573670   -0.0002920   -1.5109380  
C    2.5379468   -0.0001709   -0.3591961  
C    1.1435043    0.0000332   -0.7338500  
C    1.1092609   -0.0000082   -2.2088477  
N    2.4227562    0.0001909   -2.6182613  
C   -0.0265532   -0.0002522   -2.9515663  
C   -1.3003035   -0.0002639   -2.2514981  
O   -2.3786784   -0.0004131   -2.8306429  
C   -1.2877725    0.0000312   -0.6895608  
O   -2.3539958    0.0003307   -0.0892036  
C    0.0000000    0.0000000    0.0000000  
H    2.9384091   -0.0000369    0.6389239  
H    4.3270394   -0.0004765   -1.6439446  
H    2.7280494   -0.0013406   -3.5742113  
C    0.0000000    0.0000000    1.4700000  
C    1.0662921    0.0000102    2.3034270  
C    0.4961870   -0.0000064    3.6418889  
C   -0.9663858    0.0000850    3.4240247  
N   -1.2632773    0.0000084    2.1528658  
C   -1.8985362    0.0000517    4.5177257  
C   -1.3925775   -0.0004564    5.7720543  
O   -2.1456383   -0.0005410    6.8851312  
C    0.0786232   -0.0009323    6.0245000  
O    0.4683759   -0.0012588    7.1921102  
C    1.0143166   -0.0008442    4.8859032  
H    2.1107198   -0.0000632    2.0421868  
H   -2.9622183    0.0003270    4.3293377  
H   -1.5042274   -0.0009692    7.6184419  
H    2.0724152   -0.0013148    5.1109744  
