58

C    0.0072365   -0.7172700   -5.1312248  
C    0.1641333   -0.4988117   -6.4622900  
C   -0.8688542    0.4276950   -6.8614858  
C   -1.6459761    0.7333178   -5.6451523  
N   -1.0641729    0.0073888   -4.6315341  
C   -2.7115371    1.5727277   -5.6042187  
C   -3.1204207    2.2180775   -6.8406948  
O   -4.0675155    2.9906594   -6.9072573  
C   -2.3119544    1.9087878   -8.1408974  
O   -2.6470496    2.4459876   -9.1879827  
C   -1.1818733    0.9867416   -8.0596605  
H    0.9174093   -0.9368705   -7.0926027  
H   -3.2678034    1.7833478   -4.7013802  
H    0.5840379   -1.3468501   -4.4733345  
C    1.1319245    0.0015676   -0.8009266  
C    0.7969918    0.0034958   -2.1169401  
C   -0.6453336    0.0035698   -2.1842670  
C   -1.1266830    0.0015411   -0.7896029  
N    0.0000000    0.0000000    0.0000000  
C   -2.4346131    0.0013918   -0.4276298  
C   -3.4350111    0.0031343   -1.4820188  
O   -4.6384610    0.0030885   -1.2583924  
C   -2.9478953    0.0050447   -2.9661079  
O   -3.7809377    0.0062145   -3.8623779  
C   -1.5113819    0.0053060   -3.2312128  
H    1.4821243    0.0045434   -2.9459189  
H   -2.7664570    0.0000181    0.6013443  
H    2.1104314    0.0009432   -0.3488054  
C    0.0587120   -0.5063093   -9.6695523  
C   -0.4279348    0.7030958   -9.2893038  
C   -0.0628710    1.6466040  -10.3195252  
C    0.6816636    0.8822557  -11.3384610  
N    0.7206955   -0.4159667  -10.8846058  
C    1.1982532    1.4156132  -12.4744054  
C    1.0084756    2.8373997  -12.7090173  
O    1.4357717    3.4115026  -13.7020560  
C    0.2232810    3.6663310  -11.6431143  
O    0.0574877    4.8642396  -11.8296273  
C   -0.2861403    2.9796114  -10.4587336  
H    1.7410873    0.8372499  -13.2090729  
H   -0.8289096    3.5606746   -9.7255953  
H   -0.0103729   -1.4559403   -9.1642623  
H    1.1604052   -1.1804810  -11.3633763  
C    2.5528530    2.1414826    2.8079335  
C    2.0663498    1.7338582    4.0032312  
C    0.9804344    0.8229586    3.6752840  
C    0.9495562    0.7966882    2.1971295  
N    1.8690446    1.5676019    1.6831036  
C    0.0000000    0.0000000    1.4700000  
C   -0.8785127   -0.7372425    2.1869543  
O   -1.8187535   -1.5261249    1.6395491  
C   -0.8723269   -0.7321790    3.6796354  
O   -1.7010379   -1.4274584    4.2670412  
C    0.1115397    0.0933559    4.4024240  
H    2.4028853    2.0163452    4.9860947  
H   -2.2861435   -1.9184361    2.3990168  
H    0.0832434    0.0693689    5.4835595  
H    3.3664920    2.8238276    2.6198634  
