60

C   -3.3040484    0.0228424   -1.5420434  
C   -2.5844716    0.0184377   -0.3695858  
C   -1.2039716    0.0083672   -0.7283592  
C   -1.1422143    0.0073335   -2.1454376  
N   -2.4348231    0.0143087   -2.6077468  
C    0.0655103   -0.0013352   -2.8497921  
C    1.2321455   -0.0087950   -2.1101400  
O    2.4392213   -0.0170653   -2.7472521  
C    1.1910917   -0.0082763   -0.6955266  
O    2.4370954   -0.0167037   -0.1032865  
C    0.0000000    0.0000000    0.0000000  
H   -3.0030804    0.0209348    0.6222580  
H   -2.7053480    0.0259096   -3.5745264  
H    0.1193420   -0.0023140   -3.9297475  
H    3.1132241   -0.0215695   -2.0551786  
H    2.3199756   -0.0157147    0.8516408  
C   -5.7394854    0.0404727   -0.8296821  
C   -4.7576105    0.0325481   -1.7610466  
C   -5.4528177    0.0358522   -3.0390044  
C   -6.8878936    0.0461267   -2.6825828  
N   -7.0621272    0.0489567   -1.3888968  
C   -7.9201295    0.0521145   -3.6823526  
C   -7.5361775    0.0484128   -4.9792341  
O   -8.3919938    0.0531863   -6.0153790  
C   -6.0958101    0.0384441   -5.3709027  
O   -5.8192575    0.0354211   -6.5703732  
C   -5.0557638    0.0324004   -4.3267801  
H   -7.8234955    0.0487311   -6.8065441  
H   -4.0239920    0.0253361   -4.6517832  
H   -5.6365821    0.0410432    0.2438089  
C  -10.1106344    2.1638526   -0.4825587  
C   -9.1514560    1.6940874   -1.3212318  
C   -9.8042519    0.8011391   -2.2493134  
C  -11.2326149    0.7891238   -1.8799557  
N  -11.3521582    1.6350737   -0.8015456  
C  -12.1859949    0.0650544   -2.5190918  
C  -11.7780510   -0.7574791   -3.6458375  
O  -12.5617876   -1.4458441   -4.2863157  
C  -10.2704218   -0.7601850   -4.0543129  
O   -9.9150664   -1.4490400   -5.0011294  
C   -9.3365037    0.0620203   -3.2890502  
H   -8.1059125    1.9443798   -1.2928436  
H  -13.2283804    0.0704847   -2.2321905  
H  -10.0149468    2.8516850    0.3418323  
H  -12.2095952    1.8387064   -0.3215644  
C    0.8681109    0.7263879    2.2709268  
C    0.6127770    0.5096195    3.5869401  
C   -0.4920590   -0.4175482    3.6542670  
C   -0.8620974   -0.7254003    2.2596025  
N    0.0000000    0.0000000    1.4700000  
C   -1.8641242   -1.5660088    1.8976294  
C   -2.6293522   -2.2103885    2.9520183  
O   -3.5512764   -2.9839180    2.7283916  
C   -2.2549728   -1.8987399    4.4361073  
O   -2.8923672   -2.4351063    5.3323774  
C   -1.1543735   -0.9755647    4.7012123  
H    1.1382914    0.9492124    4.4159191  
H   -2.1192137   -1.7782617    0.8686553  
H   -0.9013378   -0.7652422    5.7314848  
H    1.6172880    1.3558399    1.8188057  
