58

C    0.2061598   -0.7036419   -5.1601146  
C   -0.8712831    0.0001717   -4.7267109  
C   -1.3732628    0.7415437   -5.8595038  
C   -0.4936607    0.4095520   -6.9965486  
N    0.4432944   -0.4705930   -6.5062924  
C   -0.6365255    0.9085798   -8.2504486  
C   -1.7294265    1.8346248   -8.4965046  
O   -1.9416990    2.3385830   -9.5916149  
C   -2.6731496    2.2005149   -7.3068339  
O   -3.5965355    2.9793482   -7.5018700  
C   -2.4185408    1.5980502   -6.0006709  
H   -3.0766713    1.8564175   -5.1822366  
H    0.8470305   -1.3727966   -4.6092911  
H    1.1839311   -0.8820064   -7.0441060  
C    1.0965514    0.0001361   -0.8010307  
C    0.0000000    0.0000000    0.0000000  
C   -1.1546565    0.0001473   -0.8669513  
C   -0.6372015    0.0003522   -2.2486279  
N    0.7342867    0.0007340   -2.1395015  
C   -1.4147743    0.0001358   -3.3608715  
C   -2.8576051   -0.0001045   -3.1854458  
O   -3.6427784   -0.0002486   -4.1244904  
C   -3.4275839   -0.0000724   -1.7311664  
O   -4.6406833    0.0000336   -1.5710056  
C   -2.4891867   -0.0001091   -0.6116741  
H   -2.8919125   -0.0002917    0.3920868  
H    2.1388272    0.0000665   -0.5261651  
H    1.3735871   -0.0006095   -2.9130265  
C    0.7629197   -0.6717610   -9.6303328  
C    0.2556694    0.5597434   -9.3654377  
C    0.7598901    1.4506720  -10.3836931  
C    1.6085367    0.6313864  -11.2698992  
N    1.5688329   -0.6452041  -10.7584015  
C    2.2685558    1.1058983  -12.3565997  
C    2.1343023    2.5178007  -12.6744740  
O    2.6891130    3.0406466  -13.6321373  
C    1.2407754    3.4042478  -11.7494743  
O    1.1204548    4.5944116  -12.0069523  
C    0.5792312    2.7786616  -10.6071726  
H    2.8859191    0.4878788  -12.9936430  
H   -0.0378329    3.3993068   -9.9717556  
H    0.6159692   -1.5964450   -9.0962403  
H    2.0494701   -1.4362110  -11.1461433  
C    2.5528530    2.1414826    2.8079335  
C    2.0663498    1.7338582    4.0032312  
C    0.9804344    0.8229586    3.6752840  
C    0.9495562    0.7966882    2.1971295  
N    1.8690446    1.5676019    1.6831036  
C    0.0000000    0.0000000    1.4700000  
C   -0.8785127   -0.7372425    2.1869543  
O   -1.8187535   -1.5261249    1.6395491  
C   -0.8723269   -0.7321790    3.6796354  
O   -1.7010379   -1.4274584    4.2670412  
C    0.1115397    0.0933559    4.4024240  
H    2.4028853    2.0163452    4.9860947  
H   -2.2861435   -1.9184361    2.3990168  
H    0.0832434    0.0693689    5.4835595  
H    3.3664920    2.8238276    2.6198634  
