58

C    0.4908847    0.5610109   -9.3429944  
C    1.5630459   -0.2716554   -9.3081882  
C    2.1447903   -0.2643991  -10.6296877  
C    1.3177478    0.6473088  -11.4430631  
N    0.3319802    1.1142152  -10.6045226  
C    1.5406841    0.9256220  -12.7524694  
C    2.6704614    0.2842595  -13.4042313  
O    2.9544064    0.4700740  -14.5803045  
C    3.5596656   -0.6852176  -12.5620702  
O    4.5134276   -1.2312449  -13.1000802  
C    3.2195356   -0.9056836  -11.1586611  
H    1.9070196   -0.8276529   -8.4542790  
H    0.9219584    1.5975529  -13.3309133  
H    3.8403291   -1.5782289  -10.5824478  
H   -0.3903017    1.7592230  -10.8678143  
C    0.2653130   -0.7042850   -5.1440081  
C   -0.8287665    0.0000939   -4.7555305  
C   -1.2825954    0.7423468   -5.9078915  
C   -0.3566068    0.4102556   -7.0074600  
N    0.5584970   -0.4707818   -6.4790216  
C   -0.4467546    0.9099656   -8.2659784  
C   -1.5278131    1.8369013   -8.5569047  
O   -1.6939208    2.3415173   -9.6596612  
C   -2.5200358    2.2029120   -7.4074112  
O   -3.4339539    2.9824911   -7.6403700  
C   -2.3204910    1.5996618   -6.0920693  
H   -3.0119741    1.8581177   -5.3016422  
H    0.8822123   -1.3741501   -4.5672886  
H    1.3206156   -0.8824728   -6.9857086  
C    1.0672569   -0.0000698   -0.8321910  
C    0.0000000    0.0000000    0.0000000  
C   -1.1601223   -0.0000736   -0.8778472  
C   -0.5938729   -0.0000768   -2.2438435  
N    0.7113367   -0.0001553   -2.2234123  
C   -1.4286985   -0.0001877   -3.4135239  
C   -2.7683113   -0.0006798   -3.2270524  
O   -3.6653902   -0.0008302   -4.2276970  
C   -3.3702024   -0.0010610   -1.8610774  
O   -4.5974910   -0.0013779   -1.7662963  
C   -2.4926825   -0.0008943   -0.6770658  
H   -4.5324245   -0.0012258   -3.7833954  
H   -2.9677772   -0.0012974    0.2947961  
H    2.1134391   -0.0000547   -0.5705119  
C    2.5528530    2.1414826    2.8079335  
C    2.0663498    1.7338582    4.0032312  
C    0.9804344    0.8229586    3.6752840  
C    0.9495562    0.7966882    2.1971295  
N    1.8690446    1.5676019    1.6831036  
C    0.0000000    0.0000000    1.4700000  
C   -0.8785127   -0.7372425    2.1869543  
O   -1.8187535   -1.5261249    1.6395491  
C   -0.8723269   -0.7321790    3.6796354  
O   -1.7010379   -1.4274584    4.2670412  
C    0.1115397    0.0933559    4.4024240  
H    2.4028853    2.0163452    4.9860947  
H   -2.2861435   -1.9184361    2.3990168  
H    0.0832434    0.0693689    5.4835595  
H    3.3664920    2.8238276    2.6198634  
