60

C    3.3041271    0.0001182   -1.5420442  
C    2.5845371   -0.0004779   -0.3695863  
C    1.2040003   -0.0000007   -0.7283596  
C    1.1422369    0.0006038   -2.1454378  
N    2.4348636    0.0026114   -2.6077473  
C   -0.0655186    0.0008799   -2.8497919  
C   -1.2321772    0.0002325   -2.1101399  
O   -2.4392823    0.0001149   -2.7472518  
C   -1.1911211   -0.0000006   -0.6955264  
O   -2.4371523   -0.0002321   -0.1032858  
C    0.0000000    0.0000000    0.0000000  
H    3.0031536   -0.0000657    0.6222570  
H    2.7054624   -0.0071095   -3.5745269  
H   -3.1132991   -0.0000650   -2.0551783  
H   -2.3200275   -0.0004074    0.8516409  
H    4.3686617    0.0004077   -1.7024309  
C    2.2991546   -2.1048093   -5.8924441  
C    1.6888945   -1.6397490   -7.0128799  
C    0.6412926   -0.7448179   -6.5810650  
C    0.6916325   -0.7264669   -5.1066432  
N    1.7177143   -1.5716515   -4.7520888  
C   -0.1387090    0.0017019   -4.3179688  
C   -1.1495790    0.8219302   -4.9644229  
O   -1.9445189    1.5135262   -4.3414740  
C   -1.2212040    0.8175535   -6.5247614  
O   -2.0683196    1.5039441   -7.0802108  
C   -0.2716628   -0.0081808   -7.2666419  
H    1.9434313   -1.8946825   -8.0262075  
H   -0.3277661   -0.0054791   -8.3467199  
H    2.0018693   -1.7690373   -3.8101010  
C    4.8642510   -4.3677273   -8.7497017  
C    3.9067635   -3.5469820   -8.2586072  
C    4.0588173   -3.6158629   -6.8133968  
C    5.1854281   -4.5498499   -6.6012629  
N    5.6616825   -4.9937783   -7.7326769  
C    5.6548831   -4.8894691   -5.2862125  
C    5.0276293   -4.3215413   -4.2310608  
O    5.3606313   -4.5482788   -2.9489763  
C    3.8879023   -3.3748462   -4.4125855  
O    3.3640508   -2.8956523   -3.4070141  
C    3.4248458   -3.0424254   -5.7716290  
H    3.1863339   -2.9664414   -8.8090894  
H    6.4801374   -5.5750970   -5.1605902  
H    4.7381535   -4.0061382   -2.4315225  
H    5.0817907   -4.5913398   -9.7820042  
C    2.5128556    2.1077716    2.9199648  
C    1.9592212    1.6432552    4.0696553  
C    0.8915788    0.7479214    3.6910360  
C    0.8684491    0.7287414    2.2159470  
N    1.8754542    1.5738793    1.8102719  
C    0.0000000    0.0000000    1.4700000  
C   -0.9772830   -0.8200135    2.1664417  
O   -1.8021297   -1.5120829    1.5842315  
C   -0.9711318   -0.8147624    3.7284083  
O   -1.7894187   -1.5009653    4.3257297  
C    0.0140216    0.0115358    4.4216297  
H    2.2638494    1.8988021    5.0689105  
H    0.0117648    0.0094386    5.5031631  
H    3.3327358    2.7953732    2.7900019  
H    2.1123206    1.7707734    0.8551938  
