58

C    1.7615151   -1.8478838   -8.4860912  
C    2.7117530   -2.6620381   -9.0136091  
C    2.5760234   -2.5923280  -10.4494204  
C    1.4608409   -1.6641465  -10.7170720  
N    1.0101836   -1.2482979   -9.4854593  
C    1.0186440   -1.3305031  -11.9559615  
C    1.6854213   -1.9254412  -13.1022574  
O    1.3611215   -1.6883789  -14.2585140  
C    2.8687023   -2.9113650  -12.8422468  
O    3.4375291   -3.4186773  -13.7994995  
C    3.2545601   -3.1930089  -11.4617978  
H    3.4261157   -3.2450480   -8.4600767  
H    0.1989614   -0.6474233  -12.1304110  
H    4.0749598   -3.8765781  -11.2903280  
H    0.2535001   -0.6063853   -9.3357083  
C    2.1451928   -2.0951773   -5.9900943  
C    1.6340471   -1.6323753   -4.8202142  
C    0.5538824   -0.7357923   -5.1581773  
C    0.4770637   -0.7140558   -6.6314102  
N    1.4686361   -1.5584202   -7.0749453  
C   -0.4180293    0.0158494   -7.3439773  
C   -1.3690894    0.8348539   -6.6110028  
O   -2.2145426    1.5279314   -7.1615959  
C   -1.3057472    0.8272852   -5.0503184  
O   -2.1011642    1.5130918   -4.4224315  
C   -0.2963293   -0.0005341   -4.3948471  
H    1.9749144   -1.8895632   -3.8331589  
H   -0.4575579    0.0175262   -8.4244138  
H    2.9593496   -2.7830347   -6.1509979  
C    3.1301146   -0.0010313   -1.7028256  
C    2.5367765   -0.0002766   -0.4864669  
C    1.1089901    0.0001027   -0.7656184  
C    1.0177865   -0.0004150   -2.2415133  
N    2.1993571   -0.0011612   -2.7963824  
C   -0.2459219   -0.0002879   -2.9257116  
C   -1.3675326   -0.0000606   -2.1698520  
O   -2.6129318    0.0000865   -2.6748483  
C   -1.3083588    0.0000910   -0.6783229  
O   -2.3693264    0.0004206   -0.0541685  
C    0.0000000    0.0000000    0.0000000  
H    3.0096016   -0.0001007    0.4807518  
H   -3.1967444    0.0002093   -1.8949026  
H    4.1849275   -0.0015114   -1.9271979  
C    0.0000000    0.0000000    1.4700000  
C    1.0541688    0.0001722    2.3260392  
C    0.5103138    0.0000454    3.6635956  
C   -0.9576371   -0.0002459    3.5155732  
N   -1.2018458    0.0001392    2.1615969  
C   -1.8348311   -0.0008317    4.5510609  
C   -1.2972847   -0.0009736    5.9014604  
O   -2.0050672   -0.0014265    6.9001319  
C    0.2542623   -0.0004184    6.0817573  
O    0.7184670   -0.0002256    7.2139121  
C    1.0974552   -0.0000873    4.8889129  
H    2.0940752    0.0005483    2.0517982  
H   -2.9081052   -0.0011668    4.4207061  
H    2.1707277    0.0000911    5.0223670  
H   -2.1128194   -0.0014912    1.7406791  
