60

C    0.0000000    0.0000000    0.0000000  
C    1.0521667   -0.0011906   -0.8862341  
C    0.4917227   -0.0011963   -2.1979131  
C   -0.9187421    0.0003145   -2.0478684  
N   -1.1833168   -0.0009413   -0.7007915  
C   -1.7951690    0.0010346   -3.1372095  
C   -1.2375822    0.0005217   -4.4010428  
O   -2.0474198    0.0015349   -5.4997584  
C    0.1673600   -0.0013578   -4.5711963  
O    0.5673545   -0.0020703   -5.8915548  
C    1.0325785   -0.0023423   -3.4969888  
H    2.0953061   -0.0030656   -0.6200555  
H   -2.0989774    0.0102375   -0.2891831  
H   -1.4634863    0.0006484   -6.2693600  
H    1.5290728   -0.0033171   -5.9180038  
H    2.1042157   -0.0039623   -3.6584453  
C   -4.7114676    2.0140164   -0.4339619  
C   -3.5467558    1.6314383   -1.0072506  
C   -3.9343478    0.7149044   -2.0684939  
C   -5.4099584    0.6581318   -1.9914604  
N   -5.8712092    1.4176769   -1.0352551  
C   -6.1879767   -0.1525090   -2.8873597  
C   -5.5221535   -0.8733545   -3.8181634  
O   -6.1204506   -1.6724248   -4.7179237  
C   -4.0334736   -0.8368761   -3.9214237  
O   -3.4940295   -1.5187507   -4.7927835  
C   -3.2578642    0.0024037   -2.9908517  
H   -2.5479538    1.9339113   -0.7427124  
H   -7.2650744   -0.1751424   -2.8082468  
H   -5.3892901   -2.0479978   -5.2408982  
C   -3.9259720    3.5861660    1.3747245  
C   -4.9052096    2.9377537    0.6930135  
C   -6.1617474    3.3295805    1.2866637  
C   -5.8319248    4.2661565    2.3779166  
N   -4.4607243    4.3788385    2.3789403  
C   -6.7477706    4.8623180    3.1826047  
C   -8.1520373    4.5612727    2.9591267  
O   -9.0525698    5.0475358    3.6306099  
C   -8.5242369    3.5719389    1.8091303  
O   -9.7032237    3.3106314    1.6117213  
C   -7.4483501    2.9927059    1.0086256  
H   -6.4847198    5.5464653    3.9773730  
H   -7.7144794    2.3087794    0.2141799  
H   -2.8586413    3.5514658    1.2281267  
H   -3.9303066    4.9505726    3.0104662  
C    3.2573670    0.0002920    2.9809380  
C    2.5379467    0.0001709    1.8291961  
C    1.1435042   -0.0000331    2.2038498  
C    1.1092607    0.0000083    3.6788474  
N    2.4227561   -0.0001909    4.0882609  
C   -0.0265533    0.0002524    4.4215661  
C   -1.3003036    0.0002640    3.7214979  
O   -2.3786784    0.0004133    4.3006425  
C   -1.2877726   -0.0000311    2.1595606  
O   -2.3539958   -0.0003306    1.5592035  
C    0.0000000    0.0000000    1.4700000  
H    2.9384090    0.0000368    0.8310761  
H   -0.0296291    0.0004086    5.5027230  
H    4.3270393    0.0004765    3.1139444  
H    2.7280493    0.0013407    5.0442112  
