62

C    2.3021910   -2.1255957   -5.9826735  
C    1.8095069   -1.6629746   -4.7844614  
C    0.7354735   -0.7756724   -5.0906433  
C    0.6180411   -0.7363240   -6.5036497  
N    1.5855137   -1.5656970   -7.0142915  
C   -0.3411041    0.0395977   -7.1615058  
C   -1.1974963    0.7892224   -6.3786691  
O   -2.1530486    1.5644625   -6.9693778  
C   -1.0957951    0.7634636   -4.9673539  
O   -2.0200008    1.5643286   -4.3287607  
C   -0.1496415   -0.0015616   -4.3176959  
H    2.1795065   -1.9311009   -3.8096787  
H   -0.4356854    0.0740440   -8.2381068  
H   -2.6345080    1.9978446   -6.2526902  
H   -1.8829374    1.4894719   -3.3794383  
H    3.1090430   -2.8095407   -6.1830921  
C    3.3003542    0.0005274   -1.4738984  
C    2.5232813    0.0003496   -2.6090747  
C    1.1623199   -0.0001320   -2.1820097  
C    1.1711882    0.0000583   -0.7636143  
N    2.4852298   -0.0014919   -0.3662359  
C    0.0000000    0.0000000    0.0000000  
C   -1.2020385    0.0000519   -0.6806477  
O   -2.3759249    0.0003493    0.0157746  
C   -1.2314658   -0.0005115   -2.0955507  
O   -2.5054393   -0.0008039   -2.6250177  
C   -0.0764517   -0.0007275   -2.8495196  
H    2.8919953   -0.0005619   -3.6205303  
H    2.8036266    0.0088182    0.5858663  
H   -3.0835639    0.0000344   -0.6418818  
H   -2.4360048   -0.0011532   -3.5845921  
H    4.3715547    0.0004895   -1.3667136  
C    2.1077250   -3.0356733   -8.9958237  
C    1.8091014   -1.8320070   -8.4425731  
C    1.7550936   -0.8743722   -9.5218571  
C    2.0488089   -1.6241766  -10.7581074  
N    2.2535293   -2.9283247  -10.3705805  
C    2.0925038   -1.0750723  -11.9983816  
C    1.8331479    0.3495243  -12.1240554  
O    1.8493450    0.9373568  -13.1975976  
C    1.5201591    1.1632315  -10.8280134  
O    1.3004723    2.3633520  -10.9213340  
C    1.5010240    0.4601377   -9.5477228  
H    2.3097186   -1.6429406  -12.8923911  
H    1.2832941    1.0307259   -8.6551157  
H    2.2337601   -3.9920691   -8.5148744  
H    2.4728637   -3.6858703  -10.9911163  
C    0.8175213    0.6860729    2.3021913  
C    0.0000000    0.0000000    1.4700000  
C   -0.8887526   -0.7456559    2.3478473  
C   -0.4549825   -0.3816753    3.7138435  
N    0.5448156    0.4573574    3.6934124  
C   -1.0945674   -0.9182058    4.8835240  
C   -2.1210866   -1.7789155    4.6970523  
O   -2.8083856   -2.3554314    5.6976972  
C   -2.5824069   -2.1655116    3.3310774  
O   -3.5227682   -2.9541547    3.2362962  
C   -1.9100805   -1.6015804    2.1470656  
H   -0.7567140   -0.6349833    5.8697035  
H   -3.4728268   -2.9124471    5.2533954  
H   -2.2742832   -1.9066565    1.1752040  
H    1.6189533    1.3585343    2.0405121  
