60

C    0.0000000    0.0000000    0.0000000  
C   -1.0239732   -0.2419382   -0.8862345  
C   -0.4786930   -0.1124455   -2.1979133  
C    0.8939578    0.2119635   -2.0478683  
N    1.1510836    0.2743137   -0.7007912  
C    1.7468384    0.4137558   -3.1372090  
C    1.2042201    0.2854278   -4.4010423  
O    1.9923808    0.4715499   -5.4997574  
C   -0.1631426   -0.0373462   -4.5711964  
O   -0.5524789   -0.1290697   -5.8915554  
C   -1.0051795   -0.2362920   -3.4969892  
H   -2.0393216   -0.4811247   -0.6200563  
H    2.0445520    0.4749952   -0.2891823  
H    1.4240423    0.3374984   -6.2693592  
H   -1.4884650   -0.3500559   -5.9180050  
H   -2.0481964   -0.4823112   -3.6584458  
C    4.7113322   -1.0858404   -0.3175485  
C    5.8220918   -0.4042827   -0.6826120  
C    5.4001084    0.4319895   -1.7957507  
C    3.9657222    0.1197816   -1.9736452  
N    3.5563111   -0.7692460   -1.1099312  
C    3.1702744    0.7503705   -2.9908505  
C    3.7799650    1.6521590   -3.7935891  
O    3.1594424    2.3160927   -4.7836321  
C    5.2259293    1.9888976   -3.6388177  
O    5.7150075    2.8190412   -4.4049019  
C    6.0204883    1.3284548   -2.5879057  
H    6.8062276   -0.4618447   -0.2499013  
H    3.8498501    2.8825086   -5.1730703  
H    7.0645987    1.6000160   -2.5084186  
C    7.4302874   -2.8661493    2.7324062  
C    6.9742713   -2.1152446    1.7029545  
C    5.5676658   -2.4649726    1.5778505  
C    5.3371974   -3.4681862    2.6394673  
N    6.4254146   -3.7073470    3.3195960  
C    4.0500674   -4.0717558    2.8494374  
C    3.0390373   -3.6901645    2.0360859  
O    1.7868727   -4.1710746    2.1188531  
C    3.2399715   -2.6797860    0.9558444  
O    2.2748804   -2.3800436    0.2530115  
C    4.5696935   -2.0751440    0.7604668  
H    7.5244411   -1.4109295    1.1026801  
H    3.9102045   -4.8023822    3.6327212  
H    1.2978610   -3.7123342    1.4120447  
H    8.4279156   -2.8974266    3.1407372  
C    0.0000000    0.0000000    1.4700000  
C    1.0541688    0.0001722    2.3260392  
C    0.5103138    0.0000454    3.6635956  
C   -0.9576371   -0.0002459    3.5155732  
N   -1.2018458    0.0001392    2.1615969  
C   -1.8348311   -0.0008317    4.5510609  
C   -1.2972847   -0.0009736    5.9014604  
O   -2.0050672   -0.0014265    6.9001319  
C    0.2542623   -0.0004184    6.0817573  
O    0.7184670   -0.0002256    7.2139121  
C    1.0974552   -0.0000873    4.8889129  
H    2.0940752    0.0005483    2.0517982  
H   -2.9081052   -0.0011668    4.4207061  
H    2.1707277    0.0000911    5.0223670  
H   -2.1128194   -0.0014912    1.7406791  
