62

C    0.0000000    0.0000000    0.0000000  
C    1.0521671   -0.0011900   -0.8862338  
C    0.4917227   -0.0011956   -2.1979130  
C   -0.9187416    0.0003147   -2.0478688  
N   -1.1833166   -0.0009412   -0.7007918  
C   -1.7951691    0.0010348   -3.1372097  
C   -1.2375822    0.0005225   -4.4010429  
O   -2.0474193    0.0015357   -5.4997592  
C    0.1673600   -0.0013569   -4.5711965  
O    0.5673547   -0.0020690   -5.8915550  
C    1.0325783   -0.0023412   -3.4969888  
H    2.0953063   -0.0030647   -0.6200555  
H   -2.0989776    0.0102369   -0.2891834  
H   -2.8710921    0.0020417   -3.0295528  
H   -1.4634857    0.0006492   -6.2693603  
H    1.5290734   -0.0033155   -5.9180037  
C    4.1863646   -2.1477870   -1.3902869  
C    5.2964380   -1.7419933   -2.0495650  
C    4.8117036   -0.8307027   -3.0747877  
C    3.3454852   -0.8022262   -2.8851123  
N    2.9730544   -1.5722877   -1.8990645  
C    2.4861715   -0.0045380   -3.7159914  
C    3.0653213    0.7315528   -4.6917426  
O    2.3851023    1.5211674   -5.5401837  
C    4.5422563    0.7242591   -4.9080059  
O    5.0006616    1.4185849   -5.8151978  
C    5.4023468   -0.1022662   -4.0425438  
H    6.3180558   -2.0259185   -1.8631254  
H    3.0670354    1.9123003   -6.1156263  
H    6.4672357   -0.0798975   -4.2316006  
C    7.2854035   -4.3852344    0.8342725  
C    6.4442594   -5.0146160    1.7224292  
C    5.1183609   -4.5894017    1.4129374  
C    5.2136345   -3.6935604    0.3173475  
N    6.5433884   -3.5905032   -0.0078461  
C    4.0967359   -3.0774171   -0.2550976  
C    2.8611206   -3.3712032    0.2881534  
O    1.7374100   -2.7975178   -0.2325900  
C    2.7456725   -4.2622117    1.3815851  
O    1.4478477   -4.4519468    1.8093646  
C    3.8471182   -4.8702058    1.9469935  
H    6.7489598   -5.6954936    2.4986744  
H    6.9167356   -3.0325008   -0.7543224  
H    0.9943707   -3.1327067    0.2858746  
H    1.4583507   -5.0664115    2.5495853  
H    3.7275805   -5.5481031    2.7840387  
H    8.3560783   -4.4392385    0.7357844  
C    1.0965515   -0.0001358    2.2710304  
C    0.0000000    0.0000000    1.4700000  
C   -1.1546562   -0.0001469    2.3369512  
C   -0.6372014   -0.0003519    3.7186280  
N    0.7342871   -0.0007337    3.6095011  
C   -1.4147739   -0.0001353    4.8308716  
C   -2.8576048    0.0001048    4.6554461  
O   -3.6427778    0.0002493    5.5944904  
C   -3.4275839    0.0000726    3.2011665  
O   -4.6406829   -0.0000333    3.0410059  
C   -2.4891866    0.0001091    2.0816745  
H   -1.0150448   -0.0001615    5.8354244  
H   -2.8919121    0.0002919    1.0779135  
H    2.1388271   -0.0000662    1.9961646  
H    1.3735872    0.0006099    4.3830260  
