60

C    3.3041274    0.0001179   -1.5420433  
C    2.5845371   -0.0004779   -0.3695858  
C    1.2040005   -0.0000006   -0.7283592  
C    1.1422373    0.0006039   -2.1454373  
N    2.4348640    0.0026112   -2.6077467  
C   -0.0655182    0.0008800   -2.8497919  
C   -1.2321769    0.0002326   -2.1101401  
O   -2.4392816    0.0001150   -2.7472518  
C   -1.1911210   -0.0000006   -0.6955265  
O   -2.4371524   -0.0002319   -0.1032861  
C    0.0000000    0.0000000    0.0000000  
H    3.0031535   -0.0000660    0.6222576  
H    2.7054629   -0.0071095   -3.5745261  
H   -3.1132987   -0.0000647   -2.0551788  
H   -2.3200280   -0.0004071    0.8516404  
H    4.3686622    0.0004075   -1.7024295  
C    2.2991554   -2.1048093   -5.8924434  
C    1.6888956   -1.6397490   -7.0128794  
C    0.6412938   -0.7448179   -6.5810648  
C    0.6916334   -0.7264669   -5.1066426  
N    1.7177150   -1.5716516   -4.7520883  
C   -0.1387083    0.0017020   -4.3179686  
C   -1.1495780    0.8219302   -4.9644228  
O   -1.9445181    1.5135266   -4.3414739  
C   -1.2212027    0.8175538   -6.5247613  
O   -2.0683182    1.5039444   -7.0802106  
C   -0.2716616   -0.0081806   -7.2666418  
H    1.9434326   -1.8946826   -8.0262072  
H    3.1245931   -2.7923368   -5.8038529  
H    2.0018700   -1.7690376   -3.8101002  
C   -0.2059123   -1.0534287   -9.5779742  
C   -0.3479155   -0.0045086   -8.7346584  
C   -0.5948833    1.1401079   -9.5979999  
C   -0.5674633    0.5859024  -10.9686527  
N   -0.3399397   -0.6994742  -10.9632270  
C   -0.7731457    1.4109038  -12.1271664  
C   -0.9964689    2.7295432  -11.9255449  
O   -1.2042268    3.6154196  -12.9145342  
C   -1.0304544    3.3187802  -10.5544845  
O   -1.2388659    4.5270671  -10.4457276  
C   -0.8165634    2.4517093   -9.3821512  
H   -0.7475795    0.9792615  -13.1170860  
H   -1.3320567    4.4680575  -12.4608596  
H   -0.8490068    2.9170633   -8.4061279  
H   -0.0107407   -2.0843133   -9.3286574  
C    2.4951002    2.0940188    2.9809380  
C    1.9440701    1.6314916    1.8291961  
C    0.8759964    0.7350050    2.2038498  
C    0.8497377    0.7130254    3.6788474  
N    1.8560616    1.5571714    4.0882609  
C   -0.0205033   -0.0168748    4.4215661  
C   -0.9962600   -0.8356168    3.7214979  
O   -1.8224391   -1.5286685    4.3006425  
C   -0.9864710   -0.8277881    2.1595606  
O   -1.8030528   -1.5133726    1.5592035  
C    0.0000000    0.0000000    1.4700000  
H    2.2509283    1.8888011    0.8310761  
H   -0.0229599   -0.0187323    5.5027230  
H    3.3143982    2.7817323    3.1139444  
H    2.0889452    1.7545833    5.0442112  
