60

C    3.3003554    0.0005280   -1.4738974  
C    2.5232825    0.0003502   -2.6090734  
C    1.1623211   -0.0001316   -2.1820095  
C    1.1711890    0.0000585   -0.7636129  
N    2.4852304   -0.0014918   -0.3662346  
C    0.0000000    0.0000000    0.0000000  
C   -1.2020380    0.0000521   -0.6806481  
O   -2.3759249    0.0003491    0.0157740  
C   -1.2314649   -0.0005113   -2.0955512  
O   -2.5054378   -0.0008036   -2.6250186  
C   -0.0764500   -0.0007270   -2.8495193  
H    2.8036266    0.0088186    0.5858674  
H   -3.0835635    0.0000345   -0.6418823  
H   -2.4360032   -0.0011526   -3.5845929  
H   -0.1304078   -0.0013418   -3.9319085  
H    4.3715556    0.0004898   -1.3667116  
C    5.8843142   -2.1416048   -4.3706048  
C    5.8364461   -1.7353556   -5.6606626  
C    4.7035130   -0.8249887   -5.7254231  
C    4.1682360   -0.7974898   -4.3472701  
N    4.8563813   -1.5672820   -3.5486053  
C    3.0267452   -0.0008945   -3.9901689  
C    2.4466124    0.7350853   -4.9654196  
O    1.3754307    1.5237296   -4.7739743  
C    2.9636567    0.7287625   -6.3656999  
O    2.3859619    1.4229262   -7.2021366  
C    4.1359079   -0.0966501   -6.7069414  
H    6.4893666   -2.0184236   -6.4685255  
H    1.1962584    1.9150484   -5.6479989  
H    4.4795931   -0.0735996   -7.7324069  
C    7.8817767   -3.7059786   -4.4058361  
C    8.5802384   -4.5013586   -3.5551911  
C    7.9565831   -4.3809941   -2.2585026  
C    6.8294315   -3.4435930   -2.4246342  
N    6.8389017   -3.0706748   -3.7489195  
C    5.9893138   -3.0669163   -1.4276281  
C    6.2100984   -3.6216088   -0.1024466  
O    5.5080978   -3.3442550    0.8611775  
C    7.3980588   -4.6160888    0.0964602  
O    7.5939422   -5.0893181    1.2077407  
C    8.2346976   -4.9461575   -1.0546009  
H    9.4349237   -5.1035093   -3.8072671  
H    5.1684119   -2.3780343   -1.5707067  
H    9.0550455   -5.6356643   -0.9085329  
H    8.0412892   -3.5303152   -5.4573051  
C    0.8400945    0.7047457    2.2710304  
C    0.0000000    0.0000000    1.4700000  
C   -0.8844236   -0.7423113    2.3369512  
C   -0.4878984   -0.4098547    3.7186280  
N    0.5629682    0.4714286    3.6095011  
C   -1.0836927   -0.9095027    4.8308716  
C   -2.1891196   -1.8367527    4.6554461  
O   -2.7906899   -2.3413415    5.5944904  
C   -2.6257283   -2.2031529    3.2011665  
O   -3.5549479   -2.9829990    3.0410059  
C   -1.9068976   -1.5999348    2.0816745  
H   -0.7774656   -0.6525820    5.8354244  
H   -2.2155208   -1.8586617    1.0779135  
H    1.6384792    1.3747609    1.9961646  
H    1.0518368    0.8833920    4.3830260  
