58

C   -0.0190026   -0.6950951   -5.1396807  
C   -1.0641726    0.0073877   -4.6315338  
C   -1.6441949    0.7497397   -5.7257565  
C   -0.8455585    0.4197730   -6.9216213  
N    0.1238028   -0.4602538   -6.4987963  
C   -1.0755946    0.9201968   -8.1619293  
C   -2.1835763    1.8457138   -8.3302450  
O   -2.4718145    2.3508254   -9.4073162  
C   -3.0425418    2.2094674   -7.0773816  
O   -3.9777726    2.9878387   -7.2067704  
C   -2.6973296    1.6056284   -5.7928353  
H   -3.2971338    1.8625189   -4.9303005  
H    0.6590622   -1.3644276   -4.6355856  
H    0.8255271   -0.8704648   -7.0873175  
C    1.1319251    0.0015674   -0.8009267  
C    0.7969922    0.0034952   -2.1169400  
C   -0.6453333    0.0035693   -2.1842673  
C   -1.1266829    0.0015407   -0.7896026  
N    0.0000000    0.0000000    0.0000000  
C   -2.4346127    0.0013913   -0.4276301  
C   -3.4350107    0.0031336   -1.4820190  
O   -4.6384608    0.0030877   -1.2583926  
C   -2.9478954    0.0050441   -2.9661077  
O   -3.7809370    0.0062133   -3.8623780  
C   -1.5113816    0.0053052   -3.2312124  
H    1.4821243    0.0045428   -2.9459188  
H   -2.7664565    0.0000177    0.6013438  
H    2.1104317    0.0009432   -0.3488059  
C    0.7072462   -2.8780166   -9.5372415  
C    0.0407563   -1.9227285   -8.8391792  
C    0.1902909   -0.6862158   -9.5695971  
C    1.0043436   -1.0016962  -10.7589586  
N    1.2852909   -2.3462094  -10.6799508  
C    1.3677190   -0.0978388  -11.7037894  
C    0.9278759    1.2775268  -11.5381345  
O    1.2032717    2.1654236  -12.3344360  
C    0.0650664    1.6342008  -10.2858765  
O   -0.3107907    2.7889320  -10.1355848  
C   -0.2628514    0.5733688   -9.3366886  
H   -0.4943866   -2.0676886   -7.9176467  
H    1.9652193   -0.3500341  -12.5688341  
H    0.8249499   -3.9257361   -9.3129212  
H    1.8251977   -2.8621270  -11.3503072  
C    2.5528530    2.1414826    2.8079335  
C    2.0663498    1.7338582    4.0032312  
C    0.9804344    0.8229586    3.6752840  
C    0.9495562    0.7966882    2.1971295  
N    1.8690446    1.5676019    1.6831036  
C    0.0000000    0.0000000    1.4700000  
C   -0.8785127   -0.7372425    2.1869543  
O   -1.8187535   -1.5261249    1.6395491  
C   -0.8723269   -0.7321790    3.6796354  
O   -1.7010379   -1.4274584    4.2670412  
C    0.1115397    0.0933559    4.4024240  
H    2.4028853    2.0163452    4.9860947  
H   -2.2861435   -1.9184361    2.3990168  
H    0.0832434    0.0693689    5.4835595  
H    3.3664920    2.8238276    2.6198634  
