58

C    3.4220107   -0.7225359   -7.4700859  
C    4.6544477   -0.5052403   -7.9973022  
C    4.4866388    0.4210254   -9.0921575  
C    3.0450821    0.7277737   -9.1600464  
N    2.4555246    0.0026601   -8.1503328  
C    2.4793643    1.5673249  -10.0638276  
C    3.3482389    2.2116498  -11.0346210  
O    2.9346951    2.9842683  -11.8892211  
C    4.8781280    1.9011594  -10.9813397  
O    5.6194703    2.4374903  -11.7937557  
C    5.3699992    0.9790708   -9.9607178  
H    5.5759124   -0.9439168   -7.6580695  
H    1.4195824    1.7787782  -10.0963867  
H    6.4306156    0.7695463   -9.9304430  
H    3.1384699   -1.3516063   -6.6419768  
C    0.0139742    0.0003878   -4.4216236  
C    1.0778911    0.0006074   -5.2580807  
C    0.5039807    0.0007581   -6.5949148  
C   -0.9579662    0.0004846   -6.3728913  
N   -1.2512406    0.0003476   -5.1008931  
C   -1.8932244    0.0005794   -7.4639363  
C   -1.3908360    0.0013206   -8.7196988  
O   -2.1470602    0.0014881   -9.8306290  
C    0.0796408    0.0019843   -8.9763293  
O    0.4660700    0.0025191  -10.1450435  
C    1.0185693    0.0018284   -7.8403984  
H    2.1230579    0.0007508   -4.9998126  
H   -2.9563663    0.0001675   -7.2725232  
H   -1.5077380    0.0020876  -10.5657615  
C    3.2798085    0.0005856   -1.4499646  
C    2.5571146    0.0005565   -2.5996553  
C    1.1637435    0.0001548   -2.2210360  
C    1.1336964   -0.0000200   -0.7459470  
N    2.4483515   -0.0001429   -0.3402716  
C    0.0000000    0.0000000    0.0000000  
C   -1.2757368   -0.0000187   -0.6964415  
O   -2.3524594   -0.0000640   -0.1142314  
C   -1.2676495   -0.0000873   -2.2584081  
O   -2.3355761   -0.0004101   -2.8557295  
C    0.0181563    0.0001759   -2.9516296  
H    2.9547358    0.0006075   -3.5989104  
H    4.3498547    0.0008611   -1.3200019  
H    2.7563628    0.0012823    0.6148064  
C    2.3971438    2.0127888    3.1728260  
C    1.9431056    1.6308205    1.9564670  
C    0.8496017    0.7127664    2.2356185  
C    0.7794028    0.6545384    3.7115134  
N    1.6840587    1.4146091    4.2663826  
C   -0.1885723   -0.1578550    4.3957118  
C   -1.0476298   -0.8789867    3.6398520  
O   -2.0015663   -1.6796266    4.1448486  
C   -1.0022026   -0.8410666    2.1483229  
O   -1.8147390   -1.5232959    1.5241687  
C    0.0000000    0.0000000    1.4700000  
H    2.3054237    1.9346118    0.9892483  
H   -0.2170646   -0.1815267    5.4753125  
H   -2.4487139   -2.0549881    3.3649027  
H    3.2048689    2.6911772    3.3971983  
