60

C    3.3003547    0.0005275   -1.4738980  
C    2.5232816    0.0003495   -2.6090742  
C    1.1623206   -0.0001320   -2.1820096  
C    1.1711889    0.0000583   -0.7636136  
N    2.4852300   -0.0014920   -0.3662353  
C    0.0000000    0.0000000    0.0000000  
C   -1.2020382    0.0000519   -0.6806479  
O   -2.3759247    0.0003494    0.0157745  
C   -1.2314650   -0.0005113   -2.0955508  
O   -2.5054383   -0.0008037   -2.6250181  
C   -0.0764510   -0.0007273   -2.8495192  
H    2.8919962   -0.0005621   -3.6205295  
H    2.8036265    0.0088181    0.5858667  
H   -3.0835641    0.0000347   -0.6418820  
H   -2.4360047   -0.0011529   -3.5845921  
C    4.7630506    0.0004754   -1.3275394  
C    5.7197939    0.0016001   -2.2912393  
C    6.9965554    0.0009190   -1.6169147  
C    6.7031142   -0.0007357   -0.1709964  
N    5.3315513   -0.0005303   -0.0628077  
C    7.6461200   -0.0021758    0.8049349  
C    9.0433290   -0.0018644    0.4045106  
O    9.9665686   -0.0030125    1.2082067  
C    9.3772075    0.0001308   -1.1213748  
O   10.5499555    0.0007163   -1.4705512  
C    8.2742418    0.0012902   -2.0791415  
H    5.5504517    0.0029554   -3.3532822  
H    7.4095536   -0.0035069    1.8598966  
H    8.5138921    0.0024645   -3.1337934  
H    4.8220248   -0.0029950    0.8017291  
C    0.6496551   -0.7066351   -5.1591661  
C   -0.1496409   -0.0015614   -4.3176961  
C   -1.0762648    0.7401246   -5.1399522  
C   -0.7489643    0.4069438   -6.5394718  
N    0.3061897   -0.4741192   -6.4823089  
C   -1.3994864    0.9058708   -7.6209511  
C   -2.4949738    1.8330537   -7.3912235  
O   -3.1426423    2.3370192   -8.2994342  
C   -2.8586993    2.2002135   -5.9172141  
O   -3.7789314    2.9800105   -5.7114238  
C   -2.0849138    1.5977389   -4.8345637  
H   -1.1436090    0.6484263   -8.6393610  
H   -2.3432244    1.8569888   -3.8168263  
H    1.4608546   -1.3763740   -4.9240171  
H    0.7560126   -0.8864479   -7.2789846  
C    0.8400945    0.7047457    2.2710304  
C    0.0000000    0.0000000    1.4700000  
C   -0.8844236   -0.7423113    2.3369512  
C   -0.4878984   -0.4098547    3.7186280  
N    0.5629682    0.4714286    3.6095011  
C   -1.0836927   -0.9095027    4.8308716  
C   -2.1891196   -1.8367527    4.6554461  
O   -2.7906899   -2.3413415    5.5944904  
C   -2.6257283   -2.2031529    3.2011665  
O   -3.5549479   -2.9829990    3.0410059  
C   -1.9068976   -1.5999348    2.0816745  
H   -0.7774656   -0.6525820    5.8354244  
H   -2.2155208   -1.8586617    1.0779135  
H    1.6384792    1.3747609    1.9961646  
H    1.0518368    0.8833920    4.3830260  
