60

C    3.3041272    0.0001180   -1.5420435  
C    2.5845371   -0.0004778   -0.3695860  
C    1.2040005   -0.0000007   -0.7283587  
C    1.1422371    0.0006040   -2.1454370  
N    2.4348638    0.0026115   -2.6077467  
C   -0.0655185    0.0008801   -2.8497917  
C   -1.2321772    0.0002327   -2.1101398  
O   -2.4392820    0.0001151   -2.7472514  
C   -1.1911210   -0.0000007   -0.6955257  
O   -2.4371525   -0.0002319   -0.1032854  
C    0.0000000    0.0000000    0.0000000  
H    3.0031538   -0.0000661    0.6222579  
H    2.7054625   -0.0071092   -3.5745262  
H   -3.1132992   -0.0000646   -2.0551777  
H   -2.3200277   -0.0004073    0.8516414  
H    4.3686618    0.0004075   -1.7024297  
C    0.6611976   -0.7016920   -5.1602638  
C   -0.1387089    0.0017023   -4.3179682  
C   -1.0659762    0.7435471   -5.1393555  
C   -0.7383884    0.4122900   -6.5392641  
N    0.3175295   -0.4679243   -6.4831335  
C   -1.3893436    0.9119192   -7.6201584  
C   -2.4856342    1.8378819   -7.3893454  
O   -3.1337400    2.3423487   -8.2969644  
C   -2.8496765    2.2029992   -5.9149069  
O   -3.7705849    2.9817564   -5.7082032  
C   -2.0753682    1.5999281   -4.8329627  
H   -1.1332438    0.6558895   -8.6388690  
H   -2.3339027    1.8577617   -3.8149226  
H    1.4729774   -1.3710020   -4.9258994  
C    1.7903514   -4.5229614   -7.0954783  
C    2.2856277   -4.4592683   -8.3533429  
C    2.0478108   -3.0892633   -8.7811615  
C    1.3823660   -2.4484445   -7.6265543  
N    1.2288170   -3.2839336   -6.6354083  
C    0.9769738   -1.0699838   -7.6508479  
C    1.2254288   -0.3636974   -8.7772421  
O    0.9014449    0.9305605   -8.9383986  
C    1.8956451   -0.9819893   -9.9590573  
O    2.0900236   -0.2794590  -10.9509695  
C    2.3019129   -2.3977649   -9.9095640  
H    2.7545285   -5.2449125   -8.9207692  
H    1.2032656    1.1515557   -9.8379640  
H    2.7847105   -2.8081685  -10.7863240  
H    1.7740439   -5.3716710   -6.4303473  
C    0.8400945    0.7047457    2.2710304  
C    0.0000000    0.0000000    1.4700000  
C   -0.8844236   -0.7423113    2.3369512  
C   -0.4878984   -0.4098547    3.7186280  
N    0.5629682    0.4714286    3.6095011  
C   -1.0836927   -0.9095027    4.8308716  
C   -2.1891196   -1.8367527    4.6554461  
O   -2.7906899   -2.3413415    5.5944904  
C   -2.6257283   -2.2031529    3.2011665  
O   -3.5549479   -2.9829990    3.0410059  
C   -1.9068976   -1.5999348    2.0816745  
H   -0.7774656   -0.6525820    5.8354244  
H   -2.2155208   -1.8586617    1.0779135  
H    1.6384792    1.3747609    1.9961646  
H    1.0518368    0.8833920    4.3830260  
