62

C    2.3136488   -2.1180442   -5.9171371  
C    1.6624056   -1.6181590   -7.0209776  
C    0.6419639   -0.7441442   -6.5420232  
C    0.7194929   -0.7504911   -5.1257346  
N    1.7437761   -1.5963709   -4.7793979  
C   -0.1387079    0.0017022   -4.3179686  
C   -1.0923524    0.7746132   -4.9514889  
O   -1.9557352    1.5288507   -4.2107385  
C   -1.1856784    0.7938845   -6.3634861  
O   -2.1870604    1.6126759   -6.8432319  
C   -0.3395498    0.0518703   -7.1609868  
H    2.0414324   -1.7936218   -3.8410620  
H   -2.5301600    1.9837418   -4.8403212  
H   -2.1819304    1.5683233   -7.8042789  
H   -0.4351241    0.0866807   -8.2399360  
H    3.1386337   -2.8065406   -5.8513306  
C    3.3041272    0.0001178   -1.5420427  
C    2.5845372   -0.0004778   -0.3695854  
C    1.2040006   -0.0000006   -0.7283593  
C    1.1422375    0.0006039   -2.1454375  
N    2.4348641    0.0026112   -2.6077465  
C   -0.0655179    0.0008801   -2.8497914  
C   -1.2321766    0.0002327   -2.1101402  
O   -2.4392815    0.0001149   -2.7472519  
C   -1.1911210   -0.0000006   -0.6955267  
O   -2.4371528   -0.0002319   -0.1032860  
C    0.0000000    0.0000000    0.0000000  
H    3.0031533   -0.0000659    0.6222585  
H    2.7054632   -0.0071094   -3.5745261  
H   -3.1132986   -0.0000647   -2.0551786  
H   -2.3200282   -0.0004071    0.8516411  
H    4.3686624    0.0004073   -1.7024288  
C    2.7864429   -5.3932208   -8.9623132  
C    2.9239286   -4.9562650  -10.2406880  
C    2.6313409   -3.5423319  -10.2360618  
C    2.3098494   -3.1888203   -8.8401882  
N    2.4215898   -4.3549641   -8.1187230  
C    1.9780878   -1.9418905   -8.4197063  
C    1.9345435   -0.8769747   -9.4079337  
O    1.6465045    0.2794747   -9.1287229  
C    2.2711334   -1.2286966  -10.8921186  
O    2.2374623   -0.3404653  -11.7330539  
C    2.6148677   -2.6092185  -11.2235665  
H    3.1987492   -5.5560338  -11.0900208  
H    2.8468116   -2.8444304  -12.2534215  
H    2.9207544   -6.3864101   -8.5655444  
H    2.2644806   -4.4384906   -7.1311060  
C    2.5128556    2.1077716    2.9199648  
C    1.9592212    1.6432552    4.0696553  
C    0.8915788    0.7479214    3.6910360  
C    0.8684491    0.7287414    2.2159470  
N    1.8754542    1.5738793    1.8102719  
C    0.0000000    0.0000000    1.4700000  
C   -0.9772830   -0.8200135    2.1664417  
O   -1.8021297   -1.5120829    1.5842315  
C   -0.9711318   -0.8147624    3.7284083  
O   -1.7894187   -1.5009653    4.3257297  
C    0.0140216    0.0115358    4.4216297  
H    2.2638494    1.8988021    5.0689105  
H    0.0117648    0.0094386    5.5031631  
H    3.3327358    2.7953732    2.7900019  
H    2.1123206    1.7707734    0.8551938  
