58

C    3.3413812   -5.5895241   -8.6031204  
C    3.6080966   -5.2107211   -9.8796177  
C    3.3174285   -3.7992336   -9.9693442  
C    2.8562302   -3.3837825   -8.6308809  
N    2.8934898   -4.5153832   -7.8492279  
C    2.4843054   -2.1203324   -8.3036623  
C    2.5418852   -1.1017345   -9.3388810  
O    2.2277306    0.0650686   -9.1434882  
C    3.0270627   -1.5193610  -10.7636601  
O    3.0794151   -0.6705116  -11.6434194  
C    3.4017843   -2.9121580  -10.9950728  
H    3.9672751   -5.8474559  -10.6683973  
H    3.7368450   -3.1931162  -11.9842755  
H    3.4341378   -6.5630551   -8.1497735  
H    2.6369637   -4.5544534   -6.8798387  
C    2.5185218   -2.1418784   -5.7664424  
C    2.0285782   -1.7344766   -6.9604095  
C    0.9435061   -0.8236411   -6.6295061  
C    0.9168305   -0.7971604   -5.1512734  
N    1.8378571   -1.5679055   -4.6397540  
C   -0.0307352   -0.0004646   -4.4215603  
C   -0.9113601    0.7365843   -5.1361187  
O   -1.8501209    1.5254492   -4.5861545  
C   -0.9094202    0.7313056   -6.6288105  
O   -1.7398706    1.4264149   -7.2139564  
C    0.0724713   -0.0942327   -7.3542759  
H   -2.3197102    1.9176027   -5.3443459  
H    0.0410970   -0.0704047   -8.4353302  
H    3.3327630   -2.8241129   -5.5805892  
C    3.2573670   -0.0002920   -1.5109380  
C    2.5379468   -0.0001709   -0.3591961  
C    1.1435043    0.0000332   -0.7338500  
C    1.1092609   -0.0000082   -2.2088477  
N    2.4227562    0.0001909   -2.6182613  
C   -0.0265532   -0.0002522   -2.9515663  
C   -1.3003035   -0.0002639   -2.2514981  
O   -2.3786784   -0.0004131   -2.8306429  
C   -1.2877725    0.0000312   -0.6895608  
O   -2.3539958    0.0003307   -0.0892036  
C    0.0000000    0.0000000    0.0000000  
H    2.9384091   -0.0000369    0.6389239  
H    4.3270394   -0.0004765   -1.6439446  
H    2.7280494   -0.0013406   -3.5742113  
C    2.3971438    2.0127888    3.1728260  
C    1.9431056    1.6308205    1.9564670  
C    0.8496017    0.7127664    2.2356185  
C    0.7794028    0.6545384    3.7115134  
N    1.6840587    1.4146091    4.2663826  
C   -0.1885723   -0.1578550    4.3957118  
C   -1.0476298   -0.8789867    3.6398520  
O   -2.0015663   -1.6796266    4.1448486  
C   -1.0022026   -0.8410666    2.1483229  
O   -1.8147390   -1.5232959    1.5241687  
C    0.0000000    0.0000000    1.4700000  
H    2.3054237    1.9346118    0.9892483  
H   -0.2170646   -0.1815267    5.4753125  
H   -2.4487139   -2.0549881    3.3649027  
H    3.2048689    2.6911772    3.3971983  
