58

C   -2.5562203   -0.0002320   -3.6003013  
C   -3.5357944   -0.0009439   -2.6598184  
C   -4.7960211   -0.0005884   -3.3645624  
C   -4.4679947    0.0003669   -4.8030299  
N   -3.0942324    0.0009398   -4.8783005  
C   -5.3873296    0.0005426   -5.8012923  
C   -6.7937392   -0.0000368   -5.4344845  
O   -7.6974430    0.0001271   -6.2600877  
C   -7.1641082   -0.0007988   -3.9170423  
O   -8.3448906   -0.0009843   -3.5960851  
C   -6.0844239   -0.0012026   -2.9331042  
H   -3.3919672   -0.0014565   -1.5940199  
H   -5.1255360    0.0011185   -6.8502795  
H   -2.5641231    0.0000782   -5.7303748  
C    0.0000000    0.0000000    0.0000000  
C   -1.0541683    0.0000126   -0.8560398  
C   -0.5103135   -0.0000319   -2.1935961  
C    0.9576376   -0.0001010   -2.0455732  
N    1.2018463    0.0003210   -0.6915967  
C    1.8348318   -0.0005540   -3.0810609  
C    1.2972865   -0.0007773   -4.4314601  
O    2.0050693   -0.0011231   -5.4301316  
C   -0.2542606   -0.0004570   -4.6117575  
O   -0.7184655   -0.0003345   -5.7439125  
C   -1.0974543   -0.0002536   -3.4189134  
H   -2.0940750    0.0002313   -0.5817991  
H    2.9081068   -0.0007265   -2.9507057  
H    2.1128199   -0.0011713   -0.2706788  
C   -6.4444271   -0.0021984   -1.5078685  
C   -5.6320038   -0.0025287   -0.4197310  
C   -6.4868648   -0.0036016    0.7439039  
C   -7.8738638   -0.0039003    0.2408875  
N   -7.7790467   -0.0026159   -1.1316642  
C   -8.9779360   -0.0052519    1.0300168  
C   -8.7874720   -0.0062692    2.4709391  
O   -9.7182762   -0.0074506    3.2658628  
C   -7.3273271   -0.0057223    3.0257202  
O   -7.1545230   -0.0062624    4.2370828  
C   -6.2176835   -0.0045212    2.0756985  
H   -4.5566026   -0.0018906   -0.4309475  
H   -9.9866037   -0.0055775    0.6407866  
H   -5.2097768   -0.0043545    2.4679337  
H   -8.5591963   -0.0040280   -1.7628629  
C    3.3321173   -0.0004715    2.8079335  
C    2.6974184   -0.0000116    4.0032312  
C    1.2800439    0.0002118    3.6752840  
C    1.2395035   -0.0000644    2.1971295  
N    2.4394063   -0.0005460    1.6831036  
C    0.0000000    0.0000000    1.4700000  
C   -1.1468701   -0.0000635    2.1869543  
O   -2.3742202   -0.0000073    1.6395491  
C   -1.1388768   -0.0001607    3.6796354  
O   -2.2206231   -0.0000905    4.2670412  
C    0.1454524   -0.0001816    4.4024240  
H    3.1367986    0.0000651    4.9860947  
H   -2.9844344   -0.0001026    2.3990168  
H    0.1083576   -0.0003682    5.4835595  
H    4.3940039   -0.0007619    2.6198634  
