58

C    4.3630977   -2.0949039   -1.3110651  
C    3.1522512   -1.6320805   -1.7156882  
C    3.3924173   -0.7354494   -2.8216758  
C    4.8529069   -0.7137078   -3.0297342  
N    5.3832064   -1.5581154   -2.0817639  
C    5.4827045    0.0162379   -3.9848457  
C    4.6677390    0.8352839   -4.8666223  
O    5.1406430    1.5283991   -5.7578309  
C    3.1189444    0.8277104   -4.6641775  
O    2.4225435    1.5135515   -5.4003216  
C    2.5562217   -0.0001543   -3.6003001  
H    2.1995749   -1.8892844   -1.2880586  
H    6.5552966    0.0179177   -4.1206903  
H    6.3605504   -1.7557299   -1.9686510  
C    1.8024896   -4.2180331    1.5558053  
C    2.7542397   -4.8944379    2.2491474  
C    4.0283266   -4.5426074    1.6679819  
C    3.7387585   -3.5989953    0.5713795  
N    2.3717309   -3.4444687    0.5556547  
C    4.6807926   -3.0330188   -0.2248284  
C    6.0727758   -3.3763003    0.0140757  
O    6.9947487   -2.9193851   -0.6488697  
C    6.4024709   -4.3737999    1.1699737  
O    7.5707801   -4.6705406    1.3803518  
C    5.3010404   -4.9179760    1.9602753  
H    2.5832607   -5.5636341    3.0734998  
H    5.5377868   -5.6078184    2.7588943  
H    0.7331188   -4.2197524    1.6912034  
H    1.8656956   -2.8583011   -0.0826112  
C    0.0000000    0.0000000    0.0000000  
C    1.0541688   -0.0001719   -0.8560391  
C    0.5103141   -0.0000449   -2.1935955  
C   -0.9576367    0.0002461   -2.0455733  
N   -1.2018459   -0.0001392   -0.6915970  
C   -1.8348306    0.0008319   -3.0810611  
C   -1.2972842    0.0009739   -4.4314605  
O   -2.0050664    0.0014267   -5.4301321  
C    0.2542628    0.0004190   -4.6117571  
O    0.7184677    0.0002263   -5.7439119  
C    1.0974556    0.0000880   -3.4189127  
H    2.0940752   -0.0005479   -0.5817978  
H   -2.9081050    0.0011669   -2.9507065  
H   -2.1128195    0.0014911   -0.2706793  
C    3.2798086   -0.0005857    2.9199648  
C    2.5571146   -0.0005566    4.0696553  
C    1.1637436   -0.0001548    3.6910360  
C    1.1336965    0.0000200    2.2159470  
N    2.4483514    0.0001428    1.8102719  
C    0.0000000    0.0000000    1.4700000  
C   -1.2757367    0.0000186    2.1664417  
O   -2.3524596    0.0000640    1.5842315  
C   -1.2676493    0.0000873    3.7284083  
O   -2.3355761    0.0004100    4.3257297  
C    0.0181563   -0.0001760    4.4216297  
H    2.9547357   -0.0006076    5.0689105  
H    0.0150794   -0.0003319    5.5031631  
H    4.3498549   -0.0008612    2.7900019  
H    2.7563627   -0.0012824    0.8551938  
