62

C    4.8697991    0.2266424   -1.4420373  
C    3.5582470    0.0403841   -1.8129917  
C    3.3083112    0.9143774   -2.9122042  
C    4.5146004    1.6147119   -3.1697381  
N    5.4416796    1.1746374   -2.2578847  
C    4.6353550    2.5633956   -4.1896432  
C    3.5180990    2.8093595   -4.9638648  
O    3.5807884    3.7257120   -5.9735093  
C    2.3054237    2.1210205   -4.7221527  
O    1.2838770    2.4773129   -5.5782141  
C    2.1854970    1.1851879   -3.7159913  
H    2.8664144   -0.6407382   -1.3477683  
H    5.5518744    3.1006769   -4.3909457  
H    2.7051617    3.7430790   -6.3812356  
H    0.5016448    1.9670191   -5.3473115  
H    5.4421698   -0.2406884   -0.6591247  
C    0.0000000    0.0000000    0.0000000  
C    0.9245702    0.5022222   -0.8862337  
C    0.4323963    0.2341484   -2.1979127  
C   -0.8069792   -0.4391711   -2.0478683  
N   -1.0387250   -0.5668243   -0.7007914  
C   -1.5769920   -0.8577465   -3.1372092  
C   -1.0870809   -0.5914946   -4.4010427  
O   -1.7987556   -0.9779617   -5.4997582  
C    0.1476214    0.0788598   -4.5711961  
O    0.4992325    0.2695580   -5.8915551  
C    0.9079177    0.4918422   -3.4969887  
H    1.8415395    0.9995248   -0.6200556  
H   -1.8481943   -0.9949818   -0.2891827  
H   -2.5223373   -1.3714927   -3.0295517  
H   -1.2855283   -0.6994360   -6.2693595  
H    1.3443993    0.7284674   -5.9180039  
C    7.9318609    0.8163836   -1.9277118  
C    9.0818829    1.5384291   -1.9144900  
C    8.7193852    2.9122549   -2.1714599  
C    7.2533913    2.9315441   -2.3366297  
N    6.8371007    1.6298904   -2.1776030  
C    6.5231290    4.0463134   -2.5929706  
C    7.2280858    5.3115406   -2.7145109  
O    6.6600274    6.3711653   -2.9443088  
C    8.7806841    5.3145191   -2.5435310  
O    9.3850809    6.3737014   -2.6440175  
C    9.4569939    4.0491499   -2.2691274  
H   10.0712415    1.1526400   -1.7443409  
H    5.4484018    4.0387142   -2.7105007  
H   10.5321056    4.0598161   -2.1518795  
H    7.7920257   -0.2416150   -1.7761389  
C    1.0965515   -0.0001358    2.2710304  
C    0.0000000    0.0000000    1.4700000  
C   -1.1546562   -0.0001469    2.3369512  
C   -0.6372014   -0.0003519    3.7186280  
N    0.7342871   -0.0007337    3.6095011  
C   -1.4147739   -0.0001353    4.8308716  
C   -2.8576048    0.0001048    4.6554461  
O   -3.6427778    0.0002493    5.5944904  
C   -3.4275839    0.0000726    3.2011665  
O   -4.6406829   -0.0000333    3.0410059  
C   -2.4891866    0.0001091    2.0816745  
H   -1.0150448   -0.0001615    5.8354244  
H   -2.8919121    0.0002919    1.0779135  
H    2.1388271   -0.0000662    1.9961646  
H    1.3735872    0.0006099    4.3830260  
