58

C   -1.6707550   -0.0052790   -3.2725979  
C   -3.0286655   -0.0094080   -3.2608764  
C   -3.4615599   -0.0093523   -4.6383517  
C   -2.2357511   -0.0048492   -5.4594259  
N   -1.1849511   -0.0021449   -4.5713372  
C   -2.2192680   -0.0038565   -6.8164197  
C   -3.4938976   -0.0072377   -7.5148776  
O   -3.5845446   -0.0066037   -8.7355676  
C   -4.8047042   -0.0117772   -6.6654252  
O   -5.8837673   -0.0143429   -7.2423793  
C   -4.6947328   -0.0127374   -5.2087997  
H   -3.6555270   -0.0119943   -2.3870056  
H   -5.6070385   -0.0160932   -4.6279299  
H   -0.2146101   -0.0004232   -4.8272340  
C   -1.0965420   -0.0044105   -0.8010306  
C    0.0000000    0.0000000    0.0000000  
C    1.1546486    0.0043540   -0.8669506  
C    0.6371989    0.0021318   -2.2486277  
N   -0.7342778   -0.0035965   -2.1395014  
C    1.4147648    0.0053794   -3.3608710  
C    2.8575838    0.0112439   -3.1854449  
O    3.6427509    0.0144491   -4.1244887  
C    3.4275582    0.0134337   -1.7311654  
O    4.6406489    0.0180569   -1.5710035  
C    2.4891675    0.0098124   -0.6116734  
H    1.0150397    0.0037948   -4.3654240  
H    2.8918892    0.0115652    0.3920878  
H   -2.1388102   -0.0084040   -0.5261654  
C    0.1482944   -0.7010028   -7.3347252  
C   -0.9815340    0.0004885   -7.6094491  
C   -0.7309576    0.7444286   -8.8213075  
C    0.6473401    0.4164744   -9.2330497  
N    1.1250653   -0.4640221   -8.2899728  
C    1.2609016    0.9187810  -10.3343831  
C    0.5140099    1.8443455  -11.1698579  
O    0.9786068    2.3510749  -12.1826152  
C   -0.9471474    2.2059864  -10.7526746  
O   -1.5856759    2.9843783  -11.4481222  
C   -1.5001197    1.6002182   -9.5439075  
H    2.2727178    0.6651528  -10.6186541  
H   -2.5125680    1.8556524   -9.2620801  
H    0.3496146   -1.3709876   -6.5146763  
H    2.0413619   -0.8731830   -8.2959352  
C    0.0000000    0.0000000    1.4700000  
C    1.0662921    0.0000102    2.3034270  
C    0.4961870   -0.0000064    3.6418889  
C   -0.9663858    0.0000850    3.4240247  
N   -1.2632773    0.0000084    2.1528658  
C   -1.8985362    0.0000517    4.5177257  
C   -1.3925775   -0.0004564    5.7720543  
O   -2.1456383   -0.0005410    6.8851312  
C    0.0786232   -0.0009323    6.0245000  
O    0.4683759   -0.0012588    7.1921102  
C    1.0143166   -0.0008442    4.8859032  
H    2.1107198   -0.0000632    2.0421868  
H   -2.9622183    0.0003270    4.3293377  
H   -1.5042274   -0.0009692    7.6184419  
H    2.0724152   -0.0013148    5.1109744  
