58

C    3.2798081    0.0005857   -1.4499657  
C    2.5571142    0.0005567   -2.5996561  
C    1.1637430    0.0001548   -2.2210366  
C    1.1336963   -0.0000200   -0.7459478  
N    2.4483512   -0.0001427   -0.3402726  
C    0.0000000    0.0000000    0.0000000  
C   -1.2757371   -0.0000187   -0.6964413  
O   -2.3524595   -0.0000640   -0.1142313  
C   -1.2676499   -0.0000873   -2.2584085  
O   -2.3355766   -0.0004101   -2.8557295  
C    0.0181555    0.0001760   -2.9516302  
H    2.9547346    0.0006076   -3.5989114  
H    4.3498548    0.0008613   -1.3200033  
H    2.7563629    0.0012825    0.6148052  
C    0.0139731    0.0003879   -4.4216244  
C    1.0778890    0.0017007   -5.2580815  
C    0.5039785    0.0012672   -6.5949154  
C   -0.9579676   -0.0005055   -6.3728915  
N   -1.2512410   -0.0009470   -5.1008930  
C   -1.8932254   -0.0013660   -7.4639361  
C   -1.3908385   -0.0001062   -8.7196987  
O   -2.1470625   -0.0007107   -9.8306290  
C    0.0796367    0.0020657   -8.9763287  
O    0.4660651    0.0030002  -10.1450437  
C    1.0185653    0.0028688   -7.8403991  
H    2.1230551    0.0029145   -4.9998134  
H   -2.9563661   -0.0028682   -7.2725224  
H   -1.5077415    0.0005468  -10.5657614  
C    4.4058104   -2.1009960   -6.0009262  
C    5.4122411   -1.6345282   -6.7842395  
C    4.8157095   -0.7395023   -7.7475229  
C    3.3688764   -0.7226296   -7.4591139  
N    3.1858862   -1.5686733   -6.3897154  
C    2.4555188    0.0051743   -8.1503333  
C    2.9290429    0.8265418   -9.2519978  
O    2.1849885    1.5179189   -9.9351392  
C    4.4572006    0.8237388   -9.5753124  
O    4.8675530    1.5110977  -10.5007364  
C    5.3437674   -0.0017359   -8.7589542  
H    6.4536376   -1.8885894   -6.6972937  
H    6.4005085    0.0020581   -8.9891887  
H    4.4526481   -2.7890209   -5.1724829  
H    2.3025105   -1.7671289   -5.9569217  
C    2.5128556    2.1077716    2.9199648  
C    1.9592212    1.6432552    4.0696553  
C    0.8915788    0.7479214    3.6910360  
C    0.8684491    0.7287414    2.2159470  
N    1.8754542    1.5738793    1.8102719  
C    0.0000000    0.0000000    1.4700000  
C   -0.9772830   -0.8200135    2.1664417  
O   -1.8021297   -1.5120829    1.5842315  
C   -0.9711318   -0.8147624    3.7284083  
O   -1.7894187   -1.5009653    4.3257297  
C    0.0140216    0.0115358    4.4216297  
H    2.2638494    1.8988021    5.0689105  
H    0.0117648    0.0094386    5.5031631  
H    3.3327358    2.7953732    2.7900019  
H    2.1123206    1.7707734    0.8551938  
