58

C    1.1319243    0.0015660   -0.8009270  
C    0.7969904    0.0034946   -2.1169400  
C   -0.6453351    0.0035711   -2.1842662  
C   -1.1266839    0.0015432   -0.7896019  
N    0.0000000    0.0000000    0.0000000  
C   -2.4346135    0.0013961   -0.4276281  
C   -3.4350118    0.0031404   -1.4820168  
O   -4.6384624    0.0030966   -1.2583893  
C   -2.9478972    0.0050503   -2.9661058  
O   -3.7809397    0.0062215   -3.8623756  
C   -1.5113841    0.0053090   -3.2312115  
H   -2.7664565    0.0000228    0.6013460  
H   -1.1823549    0.0068404   -4.2614841  
H    2.1104314    0.0009395   -0.3488063  
C    4.5548686   -2.1353257   -2.6566590  
C    4.9410965   -1.7265247   -3.8876298  
C    3.8945904   -0.8159143   -4.3259369  
C    2.9291011   -0.7910816   -3.2062061  
N    3.3108520   -1.5625208   -2.2248106  
C    1.7334678    0.0049252   -3.2500367  
C    1.5125992    0.7428896   -4.3617741  
O    0.4386461    1.5312652   -4.5382104  
C    2.4682968    0.7392785   -5.5084165  
O    2.2033111    1.4351525   -6.4886017  
C    3.6876285   -0.0855801   -5.4394042  
H    5.8268143   -2.0080645   -4.4310582  
H    0.5619666    1.9243279   -5.4210727  
H    4.3545508   -0.0605401   -6.2907666  
C    5.2470053   -3.0657203   -1.7532142  
C    6.4180675   -3.7118914   -1.9597477  
C    6.6319510   -4.4955891   -0.7528626  
C    5.4613931   -4.1948346    0.0991500  
N    4.6460401   -3.3573036   -0.4819959  
C    5.2956462   -4.7833326    1.3996438  
C    6.2554537   -5.6339299    1.8292816  
O    6.2295822   -6.2546645    3.0209439  
C    7.4484042   -5.9578269    0.9925491  
O    8.2826130   -6.7404645    1.4472958  
C    7.5956266   -5.3412658   -0.3379027  
H    7.0577076   -3.6628547   -2.8243470  
H    4.4303425   -4.5454924    2.0009683  
H    7.0430246   -6.7905138    3.0390990  
H    8.4740281   -5.6018517   -0.9129984  
C    2.4951002    2.0940188    2.9809380  
C    1.9440701    1.6314916    1.8291961  
C    0.8759964    0.7350050    2.2038498  
C    0.8497377    0.7130254    3.6788474  
N    1.8560616    1.5571714    4.0882609  
C   -0.0205033   -0.0168748    4.4215661  
C   -0.9962600   -0.8356168    3.7214979  
O   -1.8224391   -1.5286685    4.3006425  
C   -0.9864710   -0.8277881    2.1595606  
O   -1.8030528   -1.5133726    1.5592035  
C    0.0000000    0.0000000    1.4700000  
H    2.2509283    1.8888011    0.8310761  
H   -0.0229599   -0.0187323    5.5027230  
H    3.3143982    2.7817323    3.1139444  
H    2.0889452    1.7545833    5.0442112  
