62

C   -1.0725985    0.3373047   -0.7919014  
C   -0.7181969    0.2082316   -2.1148554  
C    0.6384097   -0.2316663   -2.1414703  
C    1.0625126   -0.3549030   -0.7935549  
N    0.0000000    0.0000000    0.0000000  
C    2.3505259   -0.7688969   -0.4408238  
C    3.2262705   -1.0641495   -1.4675054  
O    4.4961336   -1.4733263   -1.1793458  
C    2.8218728   -0.9469481   -2.8186316  
O    3.8086037   -1.2765437   -3.7247614  
C    1.5514568   -0.5383315   -3.1673482  
H   -1.3583251    0.4077701   -2.9571216  
H    2.6799720   -0.8647065    0.5845968  
H    4.9335006   -1.6240445   -2.0274371  
H    3.4537857   -1.1706521   -4.6127337  
H   -2.0051720    0.6446599   -0.3505418  
C    1.1703450   -0.4290952   -4.5828766  
C   -0.0215927   -0.0476728   -5.0980274  
C    0.1531511   -0.1190408   -6.5405503  
C    1.5482045   -0.5733570   -6.7249606  
N    2.1494551   -0.7568442   -5.5809248  
C    2.1177424   -0.7714046   -8.0293722  
C    1.3293371   -0.5270839   -9.1008481  
O    1.7299333   -0.6700818  -10.3756483  
C   -0.0826969   -0.0679786   -8.9474080  
O   -0.7422123    0.1352534   -9.9667002  
C   -0.6438208    0.1278465   -7.5988098  
H   -0.9097430    0.2457742   -4.5649668  
H    3.1401469   -1.1038405   -8.1346575  
H    0.9526661   -0.4238181  -10.9089049  
C   -2.6884516    3.0508990   -4.9034606  
C   -1.7527850    2.2555888   -5.5235222  
C   -2.4337811    1.5321815   -6.5470096  
C   -3.7942789    1.9310571   -6.5037585  
N   -3.9148483    2.8525385   -5.4933363  
C   -4.7606814    1.4186034   -7.3745317  
C   -4.3460574    0.4867327   -8.3061333  
O   -5.2483928   -0.0457568   -9.1809241  
C   -2.9930769    0.0758399   -8.3646849  
O   -2.7380314   -0.8588450   -9.3468556  
C   -2.0392096    0.5807661   -7.5057827  
H   -0.7081639    2.2024598   -5.2686947  
H   -4.7639493    3.3209516   -5.2333405  
H   -5.7992127    1.7183945   -7.3466059  
H   -4.7575745   -0.6658444   -9.7357701  
H   -1.8026641   -1.0822151   -9.3186155  
H   -2.5783172    3.7428918   -4.0861626  
C    0.8681109    0.7263879    2.2709268  
C    0.6127770    0.5096195    3.5869401  
C   -0.4920590   -0.4175482    3.6542670  
C   -0.8620974   -0.7254003    2.2596025  
N    0.0000000    0.0000000    1.4700000  
C   -1.8641242   -1.5660088    1.8976294  
C   -2.6293522   -2.2103885    2.9520183  
O   -3.5512764   -2.9839180    2.7283916  
C   -2.2549728   -1.8987399    4.4361073  
O   -2.8923672   -2.4351063    5.3323774  
C   -1.1543735   -0.9755647    4.7012123  
H    1.1382914    0.9492124    4.4159191  
H   -2.1192137   -1.7782617    0.8686553  
H   -0.9013378   -0.7652422    5.7314848  
H    1.6172880    1.3558399    1.8188057  
