58

C   -7.6821512    0.0113413   -2.3598348  
C   -8.4374591    0.6865345   -1.4555680  
C   -9.8144430    0.3352700   -1.7112339  
C   -9.7993290   -0.6066890   -2.8466963  
N   -8.4768654   -0.7608966   -3.1933925  
C  -10.9062863   -1.1717156   -3.3917615  
C  -12.1988637   -0.8290826   -2.8222149  
O  -13.2540519   -1.2852365   -3.2426900  
C  -12.2385330    0.1666695   -1.6194229  
O  -13.3210179    0.4628518   -1.1318136  
C  -10.9783633    0.7099387   -1.1187396  
H   -8.0717503    1.3545719   -0.6962293  
H  -10.8732523   -1.8604752   -4.2244856  
H  -11.0144629    1.3985716   -0.2855499  
H   -8.1406337   -1.3460287   -3.9361009  
C   -4.4297974    2.1087675   -0.2339396  
C   -5.6380117    1.6447708   -0.6450366  
C   -5.3911869    0.7496349   -1.7507689  
C   -3.9296541    0.7300042   -1.9515855  
N   -3.4052340    1.5747191   -1.0006225  
C   -3.2941076    0.0012878   -2.9038237  
C   -4.1035802   -0.8182212   -3.7902173  
O   -3.6253066   -1.5102279   -4.6794205  
C   -5.6534092   -0.8124874   -3.5957844  
O   -6.3452686   -1.4982635   -4.3362586  
C   -6.2225101    0.0137349   -2.5340255  
H   -6.5931606    1.9005378   -0.2220859  
H   -4.2016940    2.7960867    0.5644659  
H   -2.4284972    1.7712471   -0.8805868  
C    0.0000000    0.0000000    0.0000000  
C    1.0541688   -0.0001723   -0.8560392  
C    0.5103136   -0.0000455   -2.1935956  
C   -0.9576373    0.0002461   -2.0455730  
N   -1.2018460   -0.0001389   -0.6915968  
C   -1.8348314    0.0008319   -3.0810607  
C   -1.2972851    0.0009739   -4.4314603  
O   -2.0050676    0.0014268   -5.4301316  
C    0.2542619    0.0004184   -4.6117572  
O    0.7184666    0.0002257   -5.7439122  
C    1.0974551    0.0000873   -3.4189129  
H    2.0940752   -0.0005484   -0.5817983  
H    2.1707276   -0.0000912   -3.5523673  
H   -2.1128194    0.0014915   -0.2706789  
C    1.1319247   -0.0015655    2.2709268  
C    0.7969915   -0.0034943    3.5869401  
C   -0.6453339   -0.0035710    3.6542670  
C   -1.1266833   -0.0015433    2.2596025  
N    0.0000000    0.0000000    1.4700000  
C   -2.4346130   -0.0013964    1.8976294  
C   -3.4350110   -0.0031408    2.9520183  
O   -4.6384611   -0.0030974    2.7283916  
C   -2.9478959   -0.0050506    4.4361073  
O   -3.7809380   -0.0062218    5.3323774  
C   -1.5113823   -0.0053090    4.7012123  
H    1.4821238   -0.0045407    4.4159191  
H   -2.7664565   -0.0000232    0.8686553  
H   -1.1823530   -0.0068408    5.7314848  
H    2.1104316   -0.0009391    1.8188057  
