58

C   -3.9842533    0.7274598   -1.9451215  
C   -5.3215321    0.5112353   -2.0400287  
C   -5.5219217   -0.4153216   -3.1291437  
C   -4.1821612   -0.7234082   -3.6647879  
N   -3.2941070    0.0012873   -2.9038242  
C   -3.9439549   -1.5635940   -4.7035614  
C   -5.0831544   -2.2072384   -5.3363977  
O   -4.9726023   -2.9803455   -6.2789399  
C   -6.5111621   -1.8953299   -4.7856604  
O   -7.4779434   -2.4310779   -5.3106061  
C   -6.6412915   -0.9726602   -3.6606720  
H   -6.0809397    0.9508047   -1.4181821  
H   -2.9533217   -1.7760294   -5.0809570  
H   -3.4448687    1.3563719   -1.2556112  
C    0.0000000    0.0000000    0.0000000  
C    1.0541692   -0.0001722   -0.8560391  
C    0.5103137   -0.0000451   -2.1935954  
C   -0.9576372    0.0002461   -2.0455729  
N   -1.2018458   -0.0001390   -0.6915967  
C   -1.8348308    0.0008317   -3.0810609  
C   -1.2972845    0.0009740   -4.4314602  
O   -2.0050669    0.0014267   -5.4301320  
C    0.2542629    0.0004190   -4.6117569  
O    0.7184677    0.0002265   -5.7439119  
C    1.0974559    0.0000878   -3.4189127  
H    2.0940757   -0.0005479   -0.5817978  
H    2.1707282   -0.0000904   -3.5523666  
H   -2.1128193    0.0014909   -0.2706791  
C   -8.5672876    2.7399065   -2.2451091  
C   -7.6892895    1.8239115   -2.7289973  
C   -8.3791247    0.5558863   -2.7617629  
C   -9.7407571    0.8100533   -2.2536828  
N   -9.7901737    2.1527698   -1.9577763  
C  -10.7041739   -0.1375474   -2.1288338  
C  -10.3781939   -1.4986528   -2.5208346  
O  -11.1772616   -2.4228755   -2.4459751  
C   -8.9421169   -1.7906699   -3.0614031  
O   -8.6559890   -2.9328681   -3.3942308  
C   -7.9898248   -0.6865446   -3.1502848  
H   -6.6741787    2.0147034   -3.0286008  
H  -11.6968065    0.0699578   -1.7539583  
H   -8.4237902    3.7944361   -2.0740363  
H  -10.5918135    2.6327013   -1.5915991  
C    3.3321173   -0.0004715    2.8079335  
C    2.6974184   -0.0000116    4.0032312  
C    1.2800439    0.0002118    3.6752840  
C    1.2395035   -0.0000644    2.1971295  
N    2.4394063   -0.0005460    1.6831036  
C    0.0000000    0.0000000    1.4700000  
C   -1.1468701   -0.0000635    2.1869543  
O   -2.3742202   -0.0000073    1.6395491  
C   -1.1388768   -0.0001607    3.6796354  
O   -2.2206231   -0.0000905    4.2670412  
C    0.1454524   -0.0001816    4.4024240  
H    3.1367986    0.0000651    4.9860947  
H   -2.9844344   -0.0001026    2.3990168  
H    0.1083576   -0.0003682    5.4835595  
H    4.3940039   -0.0007619    2.6198634  
