62

C   -4.7577222    0.0041170   -1.7610414  
C   -5.7908160    0.0076219   -0.8526514  
C   -7.0043615    0.0076314   -1.6022564  
C   -6.6458624    0.0037378   -2.9746225  
N   -5.2744018    0.0036320   -3.0355572  
C   -7.5924774    0.0023568   -4.0035576  
C   -8.9252742    0.0046468   -3.6404820  
O   -9.8910793    0.0030865   -4.6049668  
C   -9.3028352    0.0089140   -2.2765734  
O  -10.6680482    0.0111879   -2.0777523  
C   -8.3695153    0.0105516   -1.2609766  
H   -5.6830130    0.0109976    0.2184975  
H   -4.7309822   -0.0093112   -3.8796596  
H  -10.7390859    0.0054501   -4.1422085  
H  -10.8374787    0.0140068   -1.1307100  
H   -8.6888204    0.0140149   -0.2253556  
C   -3.3041279    0.0030977   -1.5420399  
C   -2.5845362    0.0029931   -0.3695828  
C   -1.2040010    0.0011725   -0.7283576  
C   -1.1422400    0.0005079   -2.1454361  
N   -2.4348682   -0.0002414   -2.6077441  
C    0.0655140   -0.0009435   -2.8497920  
C    1.2321734   -0.0014315   -2.1101413  
O    2.4392770   -0.0024884   -2.7472544  
C    1.1911195   -0.0011583   -0.6955276  
O    2.4371506   -0.0021397   -0.1032884  
C    0.0000000    0.0000000    0.0000000  
H   -3.0031518    0.0029885    0.6222611  
H   -2.7054585    0.0097428   -3.5745234  
H    0.1193490   -0.0016004   -3.9297474  
H    3.1132953   -0.0029647   -2.0551816  
H    2.3200275   -0.0018506    0.8516388  
C   -4.4414260   -2.1006053   -6.2717850  
C   -5.2590410   -1.6348163   -5.2926929  
C   -6.2006939   -0.7388064   -5.9214140  
C   -5.8622488   -0.7206613   -7.3573513  
N   -4.7869571   -1.5663466   -7.5038218  
C   -6.5215685    0.0077096   -8.2935551  
C   -7.6389676    0.8287347   -7.8578114  
O   -8.2959806    1.5206630   -8.6245385  
C   -8.0148058    0.8249750   -6.3417188  
O   -8.9534981    1.5125077   -5.9630162  
C   -7.2298419   -0.0014770   -5.4281210  
H   -5.2081765   -1.8896665   -4.2491038  
H   -6.2572357    0.0067486   -9.3419046  
H   -3.6153946   -2.7890497   -6.1969068  
H   -4.3256637   -1.7663609   -8.3722980  
C    2.5128556    2.1077716    2.9199648  
C    1.9592212    1.6432552    4.0696553  
C    0.8915788    0.7479214    3.6910360  
C    0.8684491    0.7287414    2.2159470  
N    1.8754542    1.5738793    1.8102719  
C    0.0000000    0.0000000    1.4700000  
C   -0.9772830   -0.8200135    2.1664417  
O   -1.8021297   -1.5120829    1.5842315  
C   -0.9711318   -0.8147624    3.7284083  
O   -1.7894187   -1.5009653    4.3257297  
C    0.0140216    0.0115358    4.4216297  
H    2.2638494    1.8988021    5.0689105  
H    0.0117648    0.0094386    5.5031631  
H    3.3327358    2.7953732    2.7900019  
H    2.1123206    1.7707734    0.8551938  
