58

C    6.7228594   -0.0028435   -5.8348544  
C    5.4479659   -0.0024585   -6.3025312  
C    5.5283979   -0.0026664   -7.7441853  
C    6.9649552   -0.0032374   -8.0804789  
N    7.6352768   -0.0029203   -6.8789972  
C    7.4587036   -0.0039722   -9.3445662  
C    6.5120745   -0.0039908  -10.4474851  
O    6.8575235   -0.0045613  -11.6217791  
C    4.9859726   -0.0031397  -10.1145959  
O    4.1795322   -0.0028409  -11.0348750  
C    4.5754437   -0.0026685   -8.7126975  
H    4.5533061   -0.0018904   -5.7057091  
H    8.5162044   -0.0045121   -9.5695100  
H    3.5169378   -0.0022852   -8.4906858  
H    8.6335382   -0.0047295   -6.7764368  
C    4.5679461   -0.0016854   -2.0086701  
C    5.6245801   -0.0018695   -1.1556757  
C    6.8197131   -0.0025283   -1.9659187  
C    6.3695110   -0.0026851   -3.3709485  
N    4.9943549   -0.0025530   -3.3281076  
C    7.1998311   -0.0028672   -4.4443876  
C    8.6325203   -0.0031380   -4.1995661  
O    9.4620769   -0.0033775   -5.0996411  
C    9.1316831   -0.0032304   -2.7194844  
O   10.3356443   -0.0037644   -2.5009918  
C    8.1403753   -0.0027353   -1.6465627  
H    5.5727016   -0.0017595   -0.0814682  
H    8.4942119   -0.0025975   -0.6245433  
H    4.3931135   -0.0010543   -4.1315711  
C    3.1301149   -0.0010311   -1.7028252  
C    2.5367768   -0.0002767   -0.4864665  
C    1.1089904    0.0001028   -0.7656183  
C    1.0177872   -0.0004148   -2.2415132  
N    2.1993578   -0.0011611   -2.7963820  
C   -0.2459209   -0.0002877   -2.9257118  
C   -1.3675319   -0.0000605   -2.1698524  
O   -2.6129313    0.0000867   -2.6748490  
C   -1.3083584    0.0000910   -0.6783232  
O   -2.3693261    0.0004206   -0.0541692  
C    0.0000000    0.0000000    0.0000000  
H    3.0096017   -0.0001007    0.4807525  
H   -0.2829630   -0.0004687   -4.0053125  
H   -3.1967441    0.0002094   -1.8949034  
C    2.5128556    2.1077716    2.9199648  
C    1.9592212    1.6432552    4.0696553  
C    0.8915788    0.7479214    3.6910360  
C    0.8684491    0.7287414    2.2159470  
N    1.8754542    1.5738793    1.8102719  
C    0.0000000    0.0000000    1.4700000  
C   -0.9772830   -0.8200135    2.1664417  
O   -1.8021297   -1.5120829    1.5842315  
C   -0.9711318   -0.8147624    3.7284083  
O   -1.7894187   -1.5009653    4.3257297  
C    0.0140216    0.0115358    4.4216297  
H    2.2638494    1.8988021    5.0689105  
H    0.0117648    0.0094386    5.5031631  
H    3.3327358    2.7953732    2.7900019  
H    2.1123206    1.7707734    0.8551938  
