60

C    1.1243411    0.0099243   -0.7919006  
C    0.7474080    0.0234091   -2.1148544  
C   -0.6787376    0.0234901   -2.1414695  
C   -1.1201742    0.0099270   -0.7935543  
N    0.0000000    0.0000000    0.0000000  
C   -2.4730817    0.0065204   -0.4408231  
C   -3.3971953    0.0173039   -1.4675054  
O   -4.7313513    0.0149120   -1.1793453  
C   -2.9763642    0.0305307   -2.8186311  
O   -4.0166464    0.0397549   -3.7247608  
C   -1.6418558    0.0336257   -3.1673474  
H   -2.8160166   -0.0039406    0.5845978  
H   -5.1938814    0.0234010   -2.0274364  
H   -3.6464663    0.0484503   -4.6127329  
H   -1.3497461    0.0436686   -4.2109227  
H    2.1062466    0.0051544   -0.3505413  
C    4.5316458   -2.0782506   -2.8537113  
C    4.8145576   -1.6024192   -4.0937195  
C    3.7435725   -0.7035952   -4.4541939  
C    2.8068217   -0.6946980   -3.3143653  
N    3.3419281   -1.5485144   -2.3775898  
C    1.6628959    0.0337896   -3.2649305  
C    1.3321238    0.8643634   -4.4109115  
O    0.3242791    1.5570833   -4.4627600  
C    2.3096985    0.8701065   -5.6291562  
O    2.0415749    1.5652518   -6.5997971  
C    3.5120828    0.0430159   -5.5655543  
H    5.6751772   -1.8526685   -4.6881292  
H    4.1838754    0.0527636   -6.4130938  
H    2.9324186   -1.7535205   -1.4846613  
C    8.3147528   -4.1887443   -3.5729167  
C    8.4133828   -4.8770011   -2.4064478  
C    7.2543826   -4.5345900   -1.6163155  
C    6.4667829   -3.5836339   -2.4238796  
N    7.1639062   -3.4156594   -3.5980574  
C    5.2959352   -3.0236743   -2.0273119  
C    4.7769389   -3.3812999   -0.7176240  
O    3.7306043   -2.9306284   -0.2699852  
C    5.5946642   -4.3863913    0.1546840  
O    5.1678120   -4.6947413    1.2592103  
C    6.8430122   -4.9234202   -0.3811143  
H    9.2075161   -5.5478427   -2.1308814  
H    7.4031246   -5.6189046    0.2290494  
H    8.9860839   -4.1810878   -4.4162113  
H    6.8793527   -2.8242877   -4.3572381  
C    2.5128556    2.1077716    2.9199648  
C    1.9592212    1.6432552    4.0696553  
C    0.8915788    0.7479214    3.6910360  
C    0.8684491    0.7287414    2.2159470  
N    1.8754542    1.5738793    1.8102719  
C    0.0000000    0.0000000    1.4700000  
C   -0.9772830   -0.8200135    2.1664417  
O   -1.8021297   -1.5120829    1.5842315  
C   -0.9711318   -0.8147624    3.7284083  
O   -1.7894187   -1.5009653    4.3257297  
C    0.0140216    0.0115358    4.4216297  
H    2.2638494    1.8988021    5.0689105  
H    0.0117648    0.0094386    5.5031631  
H    3.3327358    2.7953732    2.7900019  
H    2.1123206    1.7707734    0.8551938  
