60

C    5.5795940   -0.0005393   -1.1027768  
C    4.5679461   -0.0016852   -2.0086700  
C    5.1756895   -0.0033631   -3.3184336  
C    6.6347913   -0.0031282   -3.0997721  
N    6.8134015   -0.0009884   -1.7355933  
C    7.5609142   -0.0048088   -4.0917384  
C    7.0891344   -0.0067691   -5.4664949  
O    7.8442683   -0.0083101   -6.4298607  
C    5.5480913   -0.0068001   -5.7214262  
O    5.1390405   -0.0081348   -6.8746544  
C    4.6483385   -0.0051689   -4.5706462  
H    8.6266509   -0.0047314   -3.9097624  
H    3.5827537   -0.0054069   -4.7557176  
H    5.5275970    0.0008126   -0.0261227  
H    7.7030105   -0.0018794   -1.2712202  
C    3.1301152   -0.0010311   -1.7028251  
C    2.5367770   -0.0002766   -0.4864665  
C    1.1089905    0.0001028   -0.7656183  
C    1.0177873   -0.0004148   -2.2415130  
N    2.1993580   -0.0011610   -2.7963820  
C   -0.2459208   -0.0002877   -2.9257119  
C   -1.3675318   -0.0000605   -2.1698523  
O   -2.6129310    0.0000866   -2.6748492  
C   -1.3083584    0.0000911   -0.6783232  
O   -2.3693259    0.0004206   -0.0541692  
C    0.0000000    0.0000000    0.0000000  
H    3.0096019   -0.0001007    0.4807529  
H   -3.1967440    0.0002093   -1.8949035  
C    2.2088388   -2.1426203   -5.8191635  
C    1.6816921   -1.7351239   -6.9971461  
C    0.6077912   -0.8240078   -6.6323121  
C    0.6276219   -0.7974852   -5.1539730  
N    1.5640856   -1.5684496   -4.6716460  
C   -0.2963281   -0.0005339   -4.3948471  
C   -1.1988036    0.7367192   -5.0813821  
O   -2.1196078    1.5258332   -4.5021938  
C   -1.2438073    0.7314048   -6.5733970  
O   -2.0920741    1.4267091   -7.1321600  
C   -0.2854223   -0.0943976   -7.3293553  
H    1.9842863   -2.0178255   -7.9909228  
H   -2.6127094    1.9180867   -5.2452553  
H   -0.3507714   -0.0705874   -8.4088886  
H    3.0283507   -2.8250548   -5.6589869  
C    2.5311839    2.1237619    3.0120429  
C    1.9795631    1.6616747    1.8395852  
C    0.9223175    0.7739173    2.1983588  
C    0.8753926    0.7337535    3.6154372  
N    1.8668922    1.5631002    4.0777464  
C   -0.0496243   -0.0427881    4.3197917  
C   -0.9437528   -0.7922060    3.5801400  
O   -1.8685244   -1.5680278    4.2172520  
C   -0.9124520   -0.7656372    2.1655264  
O   -1.8671164   -1.5663939    1.5732860  
C    0.0000000    0.0000000    1.4700000  
H    2.3005065    1.9304404    0.8477417  
H    2.0679347    1.7444845    5.0445261  
H   -0.0904770   -0.0778569    5.3997470  
H   -2.3849669   -2.0011402    3.5251786  
H   -1.7775064   -1.4909735    0.6183591  
H    3.3468514    2.8078103    3.1724291  
