62

C   -4.4707081    2.1246583   -0.3281856  
C   -5.6599878    1.6263945   -0.8075745  
C   -5.3396937    0.7516167   -1.8877482  
C   -3.9276520    0.7558485   -2.0220873  
N   -3.4313359    1.6012569   -1.0610605  
C   -3.2578656    0.0024077   -2.9908503  
C   -4.0275288   -0.7695991   -3.8392613  
O   -3.4247850   -1.5249845   -4.8031641  
C   -5.4376988   -0.7867627   -3.7211790  
O   -6.0624834   -1.6048825   -4.6396920  
C   -6.0991482   -0.0435168   -2.7658799  
H   -2.4588376    1.7971179   -0.9065737  
H   -4.1335895   -1.9789601   -5.2772597  
H   -7.0119740   -1.5590920   -4.4914531  
H   -7.1803452   -0.0767178   -2.6996347  
H   -4.2817145    2.8130940    0.4776032  
C    0.0000000    0.0000000    0.0000000  
C    1.0521663   -0.0011919   -0.8862340  
C    0.4917211   -0.0011968   -2.1979129  
C   -0.9187434    0.0003156   -2.0478680  
N   -1.1833175   -0.0009398   -0.7007911  
C   -1.7951700    0.0010368   -3.1372091  
C   -1.2375840    0.0005234   -4.4010420  
O   -2.0474216    0.0015377   -5.4997579  
C    0.1673575   -0.0013577   -4.5711962  
O    0.5673522   -0.0020705   -5.8915554  
C    1.0325768   -0.0023431   -3.4969889  
H    2.0953057   -0.0030680   -0.6200562  
H   -2.0989780    0.0102397   -0.2891821  
H   -1.4634885    0.0006509   -6.2693589  
H    1.5290710   -0.0033183   -5.9180045  
H    2.1042149   -0.0039643   -3.6584454  
C   -7.4203859    3.1765260    0.1187599  
C   -6.9955979    1.9522329   -0.2871173  
C   -8.1022665    1.0421395   -0.1086517  
C   -9.2145951    1.8423203    0.4383639  
N   -8.7363942    3.1272741    0.5528514  
C  -10.4400599    1.3466336    0.7453420  
C  -10.6793895   -0.0695253    0.5222926  
O  -11.7495671   -0.6108728    0.7671696  
C   -9.5155327   -0.9359857   -0.0560584  
O   -9.7051507   -2.1295284   -0.2477917  
C   -8.2391273   -0.2883324   -0.3479232  
H  -11.2423247    1.9508764    1.1455563  
H   -7.4384587   -0.8952290   -0.7483368  
H   -6.8826984    4.1105664    0.1374770  
H   -9.2629901    3.9092738    0.8966838  
C    3.1301144    0.0010313    3.1728260  
C    2.5367765    0.0002768    1.9564670  
C    1.1089900   -0.0001027    2.2356185  
C    1.0177864    0.0004150    3.7115134  
N    2.1993570    0.0011613    4.2663826  
C   -0.2459220    0.0002880    4.3957118  
C   -1.3675327    0.0000606    3.6398520  
O   -2.6129319   -0.0000866    4.1448486  
C   -1.3083589   -0.0000910    2.1483229  
O   -2.3693264   -0.0004206    1.5241687  
C    0.0000000    0.0000000    1.4700000  
H    3.0096015    0.0001008    0.9892483  
H   -0.2829642    0.0004689    5.4753125  
H   -3.1967446   -0.0002093    3.3649027  
H    4.1849273    0.0015113    3.3971983  
