62

C    2.8328491   -0.6823044   -3.3633882  
C    1.6628815    0.0345983   -3.2649297  
C    1.5242912    0.7738313   -4.4769226  
C    2.6492360    0.4649617   -5.2837838  
N    3.4245380   -0.4204016   -4.5769204  
C    2.8431021    1.0161408   -6.5539830  
C    1.8837143    1.8949006   -7.0182411  
O    2.0233097    2.4618221   -8.2519853  
C    0.7545198    2.2158484   -6.2278435  
O   -0.1103054    3.1064221   -6.8297560  
C    0.5627562    1.6726824   -4.9745582  
H    3.6983950    0.7849126   -7.1738300  
H    1.2554401    3.0343597   -8.3778525  
H   -0.8448250    3.2695318   -6.2301888  
H   -0.3119894    1.9375279   -4.3921880  
H    3.2928057   -1.3586318   -2.6634023  
C    1.1243370    0.0104708   -0.7919001  
C    0.7473984    0.0237727   -2.1148544  
C   -0.6787472    0.0231603   -2.1414704  
C   -1.1201781    0.0093826   -0.7935552  
N    0.0000000    0.0000000    0.0000000  
C   -2.4730837    0.0053186   -0.4408252  
C   -3.3972020    0.0156525   -1.4675073  
O   -4.7313574    0.0126130   -1.1793487  
C   -2.9763764    0.0290844   -2.8186338  
O   -4.0166627    0.0378030   -3.7247643  
C   -1.6418692    0.0328277   -3.1673487  
H   -2.8160145   -0.0053094    0.5845953  
H   -5.1938903    0.0208767   -2.0274402  
H   -3.6464859    0.0466784   -4.6127360  
H   -1.3497638    0.0430128   -4.2109241  
H    2.1062445    0.0061782   -0.3505403  
C    5.0681474   -2.3326847   -4.8599121  
C    6.2846305   -2.5695429   -5.4150176  
C    6.7259193   -1.3288242   -6.0072309  
C    5.6591741   -0.3426399   -5.7497698  
N    4.6829000   -1.0144005   -5.0508309  
C    5.6971243    0.9533515   -6.1506084  
C    6.8665638    1.4071540   -6.8847809  
O    6.9951997    2.5554235   -7.2888004  
C    8.0082724    0.3797372   -7.1688917  
O    8.9975920    0.7501697   -7.7863767  
C    7.8532507   -0.9901180   -6.6858619  
H    6.8124973   -3.5065323   -5.4103373  
H    4.9039462    1.6605065   -5.9513351  
H    8.6483583   -1.6952836   -6.8865299  
H    4.4205846   -3.0103259   -4.3276020  
C    0.0000000    0.0000000    1.4700000  
C    1.0662921    0.0000102    2.3034270  
C    0.4961870   -0.0000064    3.6418889  
C   -0.9663858    0.0000850    3.4240247  
N   -1.2632773    0.0000084    2.1528658  
C   -1.8985362    0.0000517    4.5177257  
C   -1.3925775   -0.0004564    5.7720543  
O   -2.1456383   -0.0005410    6.8851312  
C    0.0786232   -0.0009323    6.0245000  
O    0.4683759   -0.0012588    7.1921102  
C    1.0143166   -0.0008442    4.8859032  
H    2.1107198   -0.0000632    2.0421868  
H   -2.9622183    0.0003270    4.3293377  
H   -1.5042274   -0.0009692    7.6184419  
H    2.0724152   -0.0013148    5.1109744  
