58

C    4.2303300    0.5703294   -7.3178292  
C    5.2539326   -0.2631867   -6.9991386  
C    6.1674100   -0.2547905   -8.1173183  
C    5.5879442    0.6585123   -9.1207561  
N    4.4142590    1.1251603   -8.5752360  
C    6.1525228    0.9382215  -10.3227202  
C    7.4150466    0.2967857  -10.6500273  
O    8.0027801    0.4837909  -11.7073344  
C    8.0467076   -0.6743677   -9.6023293  
O    9.1092728   -1.2204714   -9.8668830  
C    7.3441143   -0.8962534   -8.3409888  
H    5.3571894   -0.8204633   -6.0851397  
H    5.7109841    1.6113096  -11.0444583  
H    7.7882409   -1.5699549   -7.6208490  
H    3.7887648    1.7710269   -9.0209506  
C    2.8912669   -0.6998116   -3.3332350  
C    1.7334695    0.0049281   -3.2500363  
C    1.6041102    0.7488995   -4.4807305  
C    2.7899386    0.4174235   -5.2935811  
N    3.5303614   -0.4649349   -4.5411801  
C    3.0393028    0.9187046   -6.5298011  
C    2.0755512    1.8468028   -7.0975618  
O    2.2101254    2.3528610   -8.2039499  
C    0.8125769    2.2121884   -6.2542379  
O   -0.0056403    2.9927350   -6.7217079  
C    0.6534236    1.6072169   -4.9341881  
H   -0.2239001    1.8652502   -4.3567402  
H    3.3315067   -1.3708305   -2.6136436  
H    4.3999326   -0.8765953   -4.8265370  
C    1.1319246    0.0015678   -0.8009268  
C    0.7969914    0.0034958   -2.1169401  
C   -0.6453340    0.0035696   -2.1842669  
C   -1.1266832    0.0015410   -0.7896025  
N    0.0000000    0.0000000    0.0000000  
C   -2.4346129    0.0013913   -0.4276292  
C   -3.4350111    0.0031335   -1.4820181  
O   -4.6384614    0.0030875   -1.2583914  
C   -2.9478961    0.0050442   -2.9661074  
O   -3.7809382    0.0062135   -3.8623773  
C   -1.5113825    0.0053055   -3.2312122  
H   -2.7664565    0.0000174    0.6013448  
H   -1.1823533    0.0068381   -4.2614848  
H    2.1104316    0.0009435   -0.3488059  
C    0.8400945    0.7047457    2.2710304  
C    0.0000000    0.0000000    1.4700000  
C   -0.8844236   -0.7423113    2.3369512  
C   -0.4878984   -0.4098547    3.7186280  
N    0.5629682    0.4714286    3.6095011  
C   -1.0836927   -0.9095027    4.8308716  
C   -2.1891196   -1.8367527    4.6554461  
O   -2.7906899   -2.3413415    5.5944904  
C   -2.6257283   -2.2031529    3.2011665  
O   -3.5549479   -2.9829990    3.0410059  
C   -1.9068976   -1.5999348    2.0816745  
H   -0.7774656   -0.6525820    5.8354244  
H   -2.2155208   -1.8586617    1.0779135  
H    1.6384792    1.3747609    1.9961646  
H    1.0518368    0.8833920    4.3830260  
