58

C   -0.6742160    0.1888313   -8.7793463  
C    0.0789268   -0.4701362   -9.6972862  
C   -0.4174707   -0.0914426  -10.9992144  
C   -1.5295012    0.8489297  -10.7628278  
N   -1.6341816    0.9761251   -9.3969011  
C   -2.2618876    1.4356231  -11.7431874  
C   -1.9331010    1.1196523  -13.1232596  
O   -2.5339476    1.5965718  -14.0771100  
C   -0.7593478    0.1260572  -13.3968967  
O   -0.4735613   -0.1477842  -14.5547382  
C   -0.0432268   -0.4420129  -12.2574587  
H    0.8895717   -1.1446777   -9.4864263  
H   -3.0735148    2.1227769  -11.5482747  
H    0.7683118   -1.1289780  -12.4554668  
H   -2.3033982    1.5536498   -8.9218623  
C    2.0407257   -2.0139649   -6.1785238  
C    1.6287192   -1.6317253   -4.9473771  
C    0.5264170   -0.7135551   -5.1890257  
C    0.4056583   -0.6555639   -6.6616555  
N    1.2906467   -1.4158622   -7.2470885  
C   -0.5850930    0.1568590   -7.3123990  
C   -1.4176233    0.8782450   -6.5276508  
O   -2.3882009    1.6789423   -6.9997770  
C   -1.3210824    0.8405679   -5.0385497  
O   -2.1116406    1.5230226   -4.3870179  
C   -0.2963293   -0.0005341   -4.3948471  
H    2.0239472   -1.9354084   -3.9930991  
H   -2.8082867    2.0545009   -6.2050211  
H    2.8401844   -2.6925107   -6.4303447  
C    3.1301146   -0.0010313   -1.7028256  
C    2.5367765   -0.0002766   -0.4864669  
C    1.1089901    0.0001027   -0.7656184  
C    1.0177865   -0.0004150   -2.2415133  
N    2.1993571   -0.0011612   -2.7963824  
C   -0.2459219   -0.0002879   -2.9257116  
C   -1.3675326   -0.0000606   -2.1698520  
O   -2.6129318    0.0000865   -2.6748483  
C   -1.3083588    0.0000910   -0.6783229  
O   -2.3693264    0.0004206   -0.0541685  
C    0.0000000    0.0000000    0.0000000  
H    3.0096016   -0.0001007    0.4807518  
H   -3.1967444    0.0002093   -1.8949026  
H    4.1849275   -0.0015114   -1.9271979  
C    0.0000000    0.0000000    1.4700000  
C    1.0662921    0.0000102    2.3034270  
C    0.4961870   -0.0000064    3.6418889  
C   -0.9663858    0.0000850    3.4240247  
N   -1.2632773    0.0000084    2.1528658  
C   -1.8985362    0.0000517    4.5177257  
C   -1.3925775   -0.0004564    5.7720543  
O   -2.1456383   -0.0005410    6.8851312  
C    0.0786232   -0.0009323    6.0245000  
O    0.4683759   -0.0012588    7.1921102  
C    1.0143166   -0.0008442    4.8859032  
H    2.1107198   -0.0000632    2.0421868  
H   -2.9622183    0.0003270    4.3293377  
H   -1.5042274   -0.0009692    7.6184419  
H    2.0724152   -0.0013148    5.1109744  
