62

C    1.9074108   -2.1157062   -5.2171228  
C    1.7366753   -1.6153229   -6.4871356  
C    0.6103628   -0.7412451   -6.4423316  
C    0.1310741   -0.7480685   -5.1073549  
N    0.9400188   -1.5942802   -4.3903111  
C   -0.9736305    0.0040464   -4.6965761  
C   -1.6058310    0.7773675   -5.6507637  
O   -2.6892514    1.5315493   -5.3037402  
C   -1.1427646    0.7971172   -6.9879235  
O   -1.8787373    1.6162795   -7.8189834  
C   -0.0531729    0.0551810   -7.3939360  
H    0.8493707   -1.7918999   -3.4101531  
H   -2.9736292    1.9867680   -6.1069646  
H   -1.5003168    1.5722378   -8.7024209  
H    0.2783196    0.0903623   -8.4251257  
H    2.6418349   -2.8044007   -4.8359680  
C    1.1188638    0.0008222   -0.8003807  
C    0.0000000    0.0000000    0.0000000  
C   -1.1323863    0.0008897   -0.8673528  
C   -0.6382665    0.0019678   -2.1969280  
N    0.7324013    0.0038482   -2.1202242  
C   -1.4770921    0.0027316   -3.3154799  
C   -2.8395481    0.0020941   -3.0876851  
O   -3.7039209    0.0024421   -4.1440337  
C   -3.3517872    0.0013923   -1.7684324  
O   -4.7300501    0.0012357   -1.7073109  
C   -2.5248545    0.0009118   -0.6644811  
H    1.3576309   -0.0056164   -2.9057046  
H   -4.5940041    0.0021820   -3.7685117  
H   -4.9934604    0.0007252   -0.7819900  
H   -2.9462579    0.0005598    0.3339668  
H    2.1619891    0.0009357   -0.5342068  
C    3.5598629   -5.3821472   -7.8954863  
C    2.8770910   -4.4416735   -7.1930570  
C    3.0340134   -3.1922277   -7.8995240  
C    3.8701458   -3.4839745   -9.0795904  
N    4.1555183   -4.8284942   -9.0186078  
C    4.2460797   -2.5625909  -10.0023204  
C    3.7974162   -1.1920611   -9.8209827  
O    4.0828520   -0.2895377  -10.5970482  
C    2.9112541   -0.8604031   -8.5781936  
O    2.5277956    0.2900494   -8.4148531  
C    2.5713789   -1.9386678   -7.6531625  
H    2.3265208   -4.6045750   -6.2836896  
H    4.8597367   -2.7974982  -10.8608977  
H    3.6781800   -6.4330715   -7.6870419  
H    4.7093289   -5.3306534   -9.6880687  
C    0.8175213    0.6860729    2.3021913  
C    0.0000000    0.0000000    1.4700000  
C   -0.8887526   -0.7456559    2.3478473  
C   -0.4549825   -0.3816753    3.7138435  
N    0.5448156    0.4573574    3.6934124  
C   -1.0945674   -0.9182058    4.8835240  
C   -2.1210866   -1.7789155    4.6970523  
O   -2.8083856   -2.3554314    5.6976972  
C   -2.5824069   -2.1655116    3.3310774  
O   -3.5227682   -2.9541547    3.2362962  
C   -1.9100805   -1.6015804    2.1470656  
H   -0.7567140   -0.6349833    5.8697035  
H   -3.4728268   -2.9124471    5.2533954  
H   -2.2742832   -1.9066565    1.1752040  
H    1.6189533    1.3585343    2.0405121  
