58

C    6.6026400    0.0036982   -2.0975992  
C    5.9881533    0.0039153   -0.8866157  
C    7.0293213    0.0041456    0.1137862  
C    8.3099363    0.0040733   -0.6188910  
N    7.9819212    0.0034003   -1.9550405  
C    9.5326398    0.0046340   -0.0300783  
C    9.5912578    0.0051308    1.4221960  
O   10.6442316    0.0055914    2.0463316  
C    8.2474200    0.0049640    2.2183771  
O    8.2842013    0.0050718    3.4414504  
C    6.9917282    0.0046232    1.4719923  
H    4.9266591    0.0037320   -0.7138619  
H   10.4599387    0.0046995   -0.5859801  
H    6.0656925    0.0047150    2.0307246  
H    8.6427089    0.0047487   -2.7102921  
C    2.4521485    0.0014838   -3.7217479  
C    3.4891875    0.0014498   -2.8521906  
C    4.6797447    0.0022555   -3.6882972  
C    4.1623485    0.0025995   -5.0735352  
N    2.8572360    0.0022306   -5.0994557  
C    5.0381743    0.0034466   -6.2128403  
C    6.3703216    0.0043171   -5.9789259  
O    7.3023603    0.0051589   -6.9470914  
C    6.9233382    0.0043694   -4.5924433  
O    8.1464880    0.0050628   -4.4541498  
C    6.0043357    0.0034467   -3.4403323  
H    3.4509653    0.0010310   -1.7762658  
H    4.6326012    0.0034749   -7.2140497  
H    8.1530742    0.0056737   -6.4722873  
C    0.0000000    0.0000000    0.0000000  
C    1.0662924   -0.0000102   -0.8334267  
C    0.4961874    0.0000064   -2.1718888  
C   -0.9663853   -0.0000849   -1.9540250  
N   -1.2632772   -0.0000084   -0.6828660  
C   -1.8985357   -0.0000515   -3.0477261  
C   -1.3925767    0.0004566   -4.3020548  
O   -2.1456375    0.0005411   -5.4151316  
C    0.0786242    0.0009324   -4.5545000  
O    0.4683770    0.0012590   -5.7221099  
C    1.0143173    0.0008443   -3.4159029  
H    2.1107200    0.0000632   -0.5721862  
H   -2.9622180   -0.0003269   -2.8593382  
H   -1.5042262    0.0009694   -6.1484423  
C    1.0672568    0.0000697    2.3021913  
C    0.0000000    0.0000000    1.4700000  
C   -1.1601224    0.0000736    2.3478473  
C   -0.5938729    0.0000769    3.7138435  
N    0.7113367    0.0001554    3.6934124  
C   -1.4286986    0.0001879    4.8835240  
C   -2.7683114    0.0006799    4.6970523  
O   -3.6653903    0.0008304    5.6976972  
C   -3.3702025    0.0010610    3.3310774  
O   -4.5974910    0.0013779    3.2362962  
C   -2.4926826    0.0008943    2.1470656  
H   -0.9878360   -0.0000190    5.8697035  
H   -4.5324246    0.0012261    5.2533954  
H   -2.9677772    0.0012974    1.1752040  
H    2.1134392    0.0000545    2.0405121  
