58

C    9.9681252   -0.7285178   -1.7974499  
C   11.2276420   -0.5121600   -2.2566660  
C   11.1206047    0.4150997   -3.3582866  
C    9.6851942    0.7234533   -3.5042506  
N    9.0408288   -0.0017741   -2.5286850  
C    9.1703511    1.5642856   -4.4367963  
C   10.0914203    2.2083945   -5.3583677  
O    9.7257811    2.9820939   -6.2335816  
C   11.6158224    1.8962142   -5.2221877  
O   12.4008183    2.4323486   -5.9926424  
C   12.0504858    0.9728372   -4.1770587  
H   12.1288322   -0.9520826   -1.8681592  
H    8.1141304    1.7769066   -4.5267893  
H   13.1076651    0.7621464   -4.0892982  
H    9.6393012   -1.3578973   -0.9864957  
C    6.7921791   -0.0024531    1.2037504  
C    5.5119024   -0.0013790    0.7650370  
C    5.6127416   -0.0007798   -0.6862834  
C    7.0661036   -0.0015329   -0.9589053  
N    7.7625298   -0.0025956    0.1451683  
C    7.5891403   -0.0012859   -2.2973816  
C    6.7006579   -0.0007190   -3.3171529  
O    7.0481214   -0.0004248   -4.6153474  
C    5.2278291   -0.0003233   -3.0743868  
O    4.4775289    0.0003121   -4.0502301  
C    4.7161325   -0.0005435   -1.6923264  
H    4.6104185   -0.0011262    1.3535969  
H    6.2020980   -0.0000591   -5.0984586  
H    7.1449934   -0.0031694    2.2228162  
C    3.2573665   -0.0002920   -1.5109385  
C    2.5379463   -0.0001709   -0.3591964  
C    1.1435038    0.0000331   -0.7338500  
C    1.1092599   -0.0000083   -2.2088477  
N    2.4227553    0.0001909   -2.6182613  
C   -0.0265539   -0.0002524   -2.9515660  
C   -1.3003040   -0.0002640   -2.2514977  
O   -2.3786790   -0.0004133   -2.8306421  
C   -1.2877727    0.0000311   -0.6895603  
O   -2.3539959    0.0003306   -0.0892030  
C    0.0000000    0.0000000    0.0000000  
H    2.9384091   -0.0000367    0.6389234  
H   -0.0296303   -0.0004086   -4.0327229  
H    2.7280482   -0.0013407   -3.5742119  
C    2.3971438    2.0127888    3.1728260  
C    1.9431056    1.6308205    1.9564670  
C    0.8496017    0.7127664    2.2356185  
C    0.7794028    0.6545384    3.7115134  
N    1.6840587    1.4146091    4.2663826  
C   -0.1885723   -0.1578550    4.3957118  
C   -1.0476298   -0.8789867    3.6398520  
O   -2.0015663   -1.6796266    4.1448486  
C   -1.0022026   -0.8410666    2.1483229  
O   -1.8147390   -1.5232959    1.5241687  
C    0.0000000    0.0000000    1.4700000  
H    2.3054237    1.9346118    0.9892483  
H   -0.2170646   -0.1815267    5.4753125  
H   -2.4487139   -2.0549881    3.3649027  
H    3.2048689    2.6911772    3.3971983  
