58

C    6.6202828    0.0003740    2.4412955  
C    7.7031858    0.0005181    3.2606830  
C    7.2055163    0.0016364    4.6161013  
C    5.7333533    0.0021062    4.5185032  
N    5.4428596    0.0016986    3.1736974  
C    4.8921827    0.0027527    5.5834613  
C    5.4757192    0.0032285    6.9146340  
O    4.8025985    0.0038827    7.9369884  
C    7.0325361    0.0029956    7.0416203  
O    7.5352911    0.0036984    8.1571922  
C    7.8343293    0.0020057    5.8205647  
H    8.7330762    0.0000928    2.9509445  
H    3.8150698    0.0029589    5.4899868  
H    8.9115471    0.0016450    5.9171381  
H    4.5179871    0.0003130    2.7842662  
C    6.5698748   -0.0006426    0.9721604  
C    7.6069608   -0.0018566    0.1026600  
C    6.9912938   -0.0024303   -1.2154651  
C    5.5370524   -0.0015106   -0.9475766  
N    5.2839248   -0.0003802    0.3330147  
C    4.5679461   -0.0016854   -2.0086701  
C    5.0305954   -0.0023424   -3.2796108  
O    4.2398094   -0.0025846   -4.3662103  
C    6.4922743   -0.0029067   -3.5823566  
O    6.8417596   -0.0036170   -4.7626448  
C    7.4664607   -0.0027577   -2.4765153  
H    8.6597322   -0.0022169    0.3279327  
H    4.8556973   -0.0030409   -5.1210843  
H    8.5162191   -0.0030652   -2.7377369  
C    3.1301149   -0.0010311   -1.7028252  
C    2.5367768   -0.0002767   -0.4864665  
C    1.1089904    0.0001028   -0.7656183  
C    1.0177872   -0.0004148   -2.2415132  
N    2.1993578   -0.0011611   -2.7963820  
C   -0.2459209   -0.0002877   -2.9257118  
C   -1.3675319   -0.0000605   -2.1698524  
O   -2.6129313    0.0000867   -2.6748490  
C   -1.3083584    0.0000910   -0.6783232  
O   -2.3693261    0.0004206   -0.0541692  
C    0.0000000    0.0000000    0.0000000  
H    3.0096017   -0.0001007    0.4807525  
H   -0.2829630   -0.0004687   -4.0053125  
H   -3.1967441    0.0002094   -1.8949034  
C    2.3971438    2.0127888    3.1728260  
C    1.9431056    1.6308205    1.9564670  
C    0.8496017    0.7127664    2.2356185  
C    0.7794028    0.6545384    3.7115134  
N    1.6840587    1.4146091    4.2663826  
C   -0.1885723   -0.1578550    4.3957118  
C   -1.0476298   -0.8789867    3.6398520  
O   -2.0015663   -1.6796266    4.1448486  
C   -1.0022026   -0.8410666    2.1483229  
O   -1.8147390   -1.5232959    1.5241687  
C    0.0000000    0.0000000    1.4700000  
H    2.3054237    1.9346118    0.9892483  
H   -0.2170646   -0.1815267    5.4753125  
H   -2.4487139   -2.0549881    3.3649027  
H    3.2048689    2.6911772    3.3971983  
