58

C    0.0000000    0.0000000    0.0000000  
C    0.5727669    0.8849918   -0.8560391  
C    0.2772395    0.4284380   -2.1935957  
C   -0.5203930   -0.8039017   -2.0455737  
N   -0.6527236   -1.0091502   -0.6915974  
C   -0.9973754   -1.5400796   -3.0810617  
C   -0.7055005   -1.0886761   -4.4314612  
O   -1.0903468   -1.6826870   -5.4301324  
C    0.1377635    0.2137087   -4.6117577  
O    0.3900806    0.6033528   -5.7439119  
C    0.5960624    0.9214769   -3.4189131  
H    1.1379581    1.7578974   -0.5817982  
H   -1.5806567   -2.4410228   -2.9507071  
H   -1.1489315   -1.7731220   -0.2706798  
C    2.4674133    2.5519381   -2.8909325  
C    1.3886650    2.1461318   -3.6003003  
C    1.1772122    3.1898997   -4.5914295  
C    2.2479963    4.1753928   -4.3291140  
N    3.0074916    3.8067855   -3.3334807  
C    2.3859407    5.3746518   -5.1087515  
C    1.4949210    5.5798793   -6.1053958  
O    1.5049997    6.6550635   -6.9115703  
C    0.4033402    4.6038181   -6.3950792  
O   -0.3720418    4.8552636   -7.3174557  
C    0.2828374    3.3811470   -5.5811506  
H    0.7538666    6.5182542   -7.5167437  
H   -0.5213820    2.6992586   -5.8229964  
H    2.9438712    2.0521598   -2.0625708  
C    6.6245704    4.8411779   -3.9925730  
C    5.3267545    4.6379476   -4.3367339  
C    4.7222886    5.9405196   -4.4876005  
C    5.7819361    6.9263455   -4.2010959  
N    6.9100198    6.1954486   -3.9076556  
C    5.6104264    8.2720598   -4.2377348  
C    4.2942908    8.7836407   -4.5821281  
O    4.0390610    9.9792994   -4.6417872  
C    3.1571610    7.7577251   -4.8891105  
O    2.0448613    8.1766172   -5.1799355  
C    3.4635016    6.3312248   -4.8176648  
H    4.8475133    3.6843761   -4.4695610  
H    6.4010526    8.9779369   -4.0242936  
H    7.3964309    4.1155468   -3.7936236  
H    7.8036103    6.5857195   -3.6705250  
C    1.0965515   -0.0001358    2.2710304  
C    0.0000000    0.0000000    1.4700000  
C   -1.1546562   -0.0001469    2.3369512  
C   -0.6372014   -0.0003519    3.7186280  
N    0.7342871   -0.0007337    3.6095011  
C   -1.4147739   -0.0001353    4.8308716  
C   -2.8576048    0.0001048    4.6554461  
O   -3.6427778    0.0002493    5.5944904  
C   -3.4275839    0.0000726    3.2011665  
O   -4.6406829   -0.0000333    3.0410059  
C   -2.4891866    0.0001091    2.0816745  
H   -1.0150448   -0.0001615    5.8354244  
H   -2.8919121    0.0002919    1.0779135  
H    2.1388271   -0.0000662    1.9961646  
H    1.3735872    0.0006099    4.3830260  
