62

C    3.3041269    0.0001179   -1.5420437  
C    2.5845370   -0.0004780   -0.3695855  
C    1.2040003   -0.0000006   -0.7283588  
C    1.1422370    0.0006040   -2.1454376  
N    2.4348635    0.0026113   -2.6077471  
C   -0.0655191    0.0008803   -2.8497918  
C   -1.2321772    0.0002328   -2.1101395  
O   -2.4392820    0.0001150   -2.7472512  
C   -1.1911212   -0.0000006   -0.6955261  
O   -2.4371525   -0.0002319   -0.1032859  
C    0.0000000    0.0000000    0.0000000  
H    3.0031534   -0.0000662    0.6222577  
H   -0.1193554    0.0014851   -3.9297468  
H   -3.1132993   -0.0000643   -2.0551784  
H   -2.3200279   -0.0004071    0.8516418  
H    4.3686619    0.0004073   -1.7024300  
C    5.6928642   -2.1325511   -4.8023243  
C    4.8437646   -1.6629831   -3.8271308  
C    3.9187201   -0.7861184   -4.4674439  
C    4.2553064   -0.7600043   -5.8451067  
N    5.3381020   -1.5868696   -6.0138210  
C    3.5511940    0.0032266   -6.7813186  
C    2.4877412    0.7535316   -6.3184051  
O    1.7657442    1.5166953   -7.1897918  
C    2.1367180    0.7408789   -4.9474789  
O    1.0544917    1.5406705   -4.6434017  
C    2.8310655   -0.0116212   -4.0232755  
H    4.8866006   -1.9198936   -2.7825466  
H    3.8027850    0.0275524   -7.8326568  
H    1.0801148    1.9528847   -6.6673782  
H    0.8837157    1.4751247   -3.6988683  
H    6.5243657   -2.8124287   -4.7293116  
C    6.0041731   -1.8640850   -7.2946021  
C    7.0668023   -2.6700928   -7.5500343  
C    7.3247764   -2.5897611   -8.9684253  
C    6.3181357   -1.6642250   -9.5223637  
N    5.5480598   -1.2598942   -8.4563481  
C    6.2261274   -1.3227967  -10.8325792  
C    7.1822204   -1.9059653  -11.7590438  
O    7.1819019   -1.6612623  -12.9583858  
C    8.2568378   -2.8888951  -11.1943740  
O    9.0668822   -3.3863281  -11.9648597  
C    8.2559372   -3.1796672   -9.7628353  
H    7.6080339   -3.2543876   -6.8273442  
H    5.4801834   -0.6418354  -11.2182848  
H    9.0033822   -3.8610917   -9.3798072  
H    4.7751635   -0.6223609   -8.5131800  
C    2.5128556    2.1077716    2.9199648  
C    1.9592212    1.6432552    4.0696553  
C    0.8915788    0.7479214    3.6910360  
C    0.8684491    0.7287414    2.2159470  
N    1.8754542    1.5738793    1.8102719  
C    0.0000000    0.0000000    1.4700000  
C   -0.9772830   -0.8200135    2.1664417  
O   -1.8021297   -1.5120829    1.5842315  
C   -0.9711318   -0.8147624    3.7284083  
O   -1.7894187   -1.5009653    4.3257297  
C    0.0140216    0.0115358    4.4216297  
H    2.2638494    1.8988021    5.0689105  
H    0.0117648    0.0094386    5.5031631  
H    3.3327358    2.7953732    2.7900019  
H    2.1123206    1.7707734    0.8551938  
