60

C    0.0000000    0.0000000    0.0000000  
C   -0.0954212    1.0478318   -0.8862338  
C   -0.0439575    0.4897547   -2.1979128  
C    0.0840422   -0.9148902   -2.0478684  
N    0.1095851   -1.1782325   -0.7007915  
C    0.1637956   -1.7876817   -3.1372091  
C    0.1131103   -1.2324027   -4.4010425  
O    0.1864575   -2.0389133   -5.4997580  
C   -0.0140154    0.1667763   -4.5711963  
O   -0.0500324    0.5651467   -5.8915549  
C   -0.0924763    1.0284308   -3.4969887  
H   -0.1893319    2.0867367   -0.6200559  
H    0.1825267   -2.0910509   -0.2891831  
H    0.2615806   -2.8591528   -3.0295516  
H    0.1337254   -1.4573649   -6.2693595  
H   -0.1370928    1.5229175   -5.9180040  
C    0.4159767    3.4592589   -2.9764944  
C    0.0861473    4.6978015   -3.4251590  
C   -0.8277620    4.5164228   -4.5282034  
C   -1.0046224    3.0602454   -4.6865015  
N   -0.2237527    2.4760857   -3.7159916  
C   -1.7954288    2.4791656   -5.6238784  
C   -2.5206131    3.3457783   -6.5380040  
O   -3.2580922    2.9188870   -7.4167471  
C   -2.3480183    4.8910078   -6.3887338  
O   -2.9533015    5.6306301   -7.1528366  
C   -1.4677133    5.3987764   -5.3394075  
H   -1.9113489    1.4088110   -5.7229394  
H   -1.3538033    6.4699307   -5.2425720  
H    1.0727343    3.1820289   -2.1679755  
C    1.8222773    6.2755971   -2.4579283  
C    0.5732976    5.9745285   -2.8833532  
C   -0.1936293    7.1954034   -2.6889667  
C    0.7753906    8.1580474   -2.1224850  
N    1.9587953    7.6245707   -1.9848445  
C    0.4018069    9.5038561   -1.7843715  
C   -0.8813969    9.8713989   -2.0026262  
O   -1.3677544   11.0950072   -1.7337794  
C   -1.8828164    8.9229724   -2.5734210  
O   -3.0332537    9.3257122   -2.7452199  
C   -1.4750647    7.5478292   -2.9120143  
H    1.1305724   10.1861047   -1.3716400  
H   -2.3055039   11.0518499   -1.9943865  
H   -2.2302523    6.8916016   -3.3234591  
H    2.6895169    5.6349181   -2.4379439  
C    1.1319247   -0.0015655    2.2709268  
C    0.7969915   -0.0034943    3.5869401  
C   -0.6453339   -0.0035710    3.6542670  
C   -1.1266833   -0.0015433    2.2596025  
N    0.0000000    0.0000000    1.4700000  
C   -2.4346130   -0.0013964    1.8976294  
C   -3.4350110   -0.0031408    2.9520183  
O   -4.6384611   -0.0030974    2.7283916  
C   -2.9478959   -0.0050506    4.4361073  
O   -3.7809380   -0.0062218    5.3323774  
C   -1.5113823   -0.0053090    4.7012123  
H    1.4821238   -0.0045407    4.4159191  
H   -2.7664565   -0.0000232    0.8686553  
H   -1.1823530   -0.0068408    5.7314848  
H    2.1104316   -0.0009391    1.8188057  
