58

C    3.2573672   -0.0002917   -1.5109378  
C    2.5379470   -0.0001709   -0.3591962  
C    1.1435042    0.0000332   -0.7338496  
C    1.1092607   -0.0000081   -2.2088474  
N    2.4227563    0.0001910   -2.6182606  
C   -0.0265531   -0.0002524   -2.9515660  
C   -1.3003036   -0.0002638   -2.2514978  
O   -2.3786786   -0.0004132   -2.8306429  
C   -1.2877725    0.0000312   -0.6895605  
O   -2.3539955    0.0003308   -0.0892036  
C    0.0000000    0.0000000    0.0000000  
H    2.9384092   -0.0000367    0.6389238  
H   -0.0296287   -0.0004085   -4.0327227  
H    4.3270397   -0.0004763   -1.6439438  
C    5.7040776   -2.1117454   -4.6322106  
C    5.5266124   -1.6490479   -5.8965255  
C    4.3947082   -0.7532601   -5.8619875  
C    3.9239255   -0.7318315   -4.4638835  
N    4.7594836   -1.5762333   -3.7698247  
C    2.8699644   -0.0020524   -4.0185821  
C    2.1511682    0.8167848   -4.9805454  
O    1.1885422    1.5096471   -4.6779000  
C    2.6322123    0.8091504   -6.4665948  
O    2.0346741    1.4943468   -7.2855670  
C    3.7812713   -0.0180914   -6.8260208  
H    4.1081499   -0.0176452   -7.8569790  
H    6.4453145   -2.7990533   -4.2579576  
H    4.6944966   -1.7716426   -2.7876646  
C    7.2695998   -5.4607804   -7.2064983  
C    7.8761458   -5.0494109   -8.3497183  
C    7.6116503   -3.6360824   -8.4815514  
C    6.7954642   -3.2550416   -7.3130315  
N    6.6231633   -4.4062932   -6.5796684  
C    6.3386557   -2.0003802   -7.0704302  
C    6.6729979   -0.9556013   -8.0239435  
O    6.3088339    0.2058206   -7.8943864  
C    7.5361066   -1.3366062   -9.2688067  
O    7.8236439   -0.4655019  -10.0785963  
C    7.9700296   -2.7230266   -9.4217806  
H    8.4438846   -5.6657407   -9.0238279  
H    8.5674882   -2.9785617  -10.2863435  
H    7.2402799   -6.4456061   -6.7692927  
H    6.1089147   -4.4701757   -5.7202996  
C    0.8400945    0.7047457    2.2710304  
C    0.0000000    0.0000000    1.4700000  
C   -0.8844236   -0.7423113    2.3369512  
C   -0.4878984   -0.4098547    3.7186280  
N    0.5629682    0.4714286    3.6095011  
C   -1.0836927   -0.9095027    4.8308716  
C   -2.1891196   -1.8367527    4.6554461  
O   -2.7906899   -2.3413415    5.5944904  
C   -2.6257283   -2.2031529    3.2011665  
O   -3.5549479   -2.9829990    3.0410059  
C   -1.9068976   -1.5999348    2.0816745  
H   -0.7774656   -0.6525820    5.8354244  
H   -2.2155208   -1.8586617    1.0779135  
H    1.6384792    1.3747609    1.9961646  
H    1.0518368    0.8833920    4.3830260  
