60

C    0.8532113   -0.7025399   -5.2251463  
C    0.0139746    0.0003883   -4.4216235  
C   -0.8744123    0.7410328   -5.2859441  
C   -0.4811478    0.4095794   -6.6687928  
N    0.5718068   -0.4695908   -6.5627883  
C   -1.0811137    0.9081807   -7.7792625  
C   -2.1879113    1.8331656   -7.6005540  
O   -2.7931710    2.3366715   -8.5378069  
C   -2.6211216    2.1984715   -6.1449830  
O   -3.5514579    2.9764118   -5.9820625  
C   -1.8978899    1.5965481   -5.0276307  
H   -0.7772265    0.6520253   -8.7847201  
H   -2.2041792    1.8545051   -4.0229573  
H    1.6537294   -1.3709770   -4.9526533  
H    1.0593055   -0.8804520   -7.3377627  
C    3.2798087    0.0005858   -1.4499643  
C    2.5571149    0.0005569   -2.5996548  
C    1.1637440    0.0001551   -2.2210358  
C    1.1336966   -0.0000198   -0.7459468  
N    2.4483512   -0.0001426   -0.3402714  
C    0.0000000    0.0000000    0.0000000  
C   -1.2757369   -0.0000185   -0.6964416  
O   -2.3524599   -0.0000639   -0.1142315  
C   -1.2676492   -0.0000870   -2.2584080  
O   -2.3355760   -0.0004099   -2.8557298  
C    0.0181565    0.0001762   -2.9516296  
H    2.9547360    0.0006079   -3.5989102  
H    2.7563627    0.0012824    0.6148067  
C    4.7390849    0.0009618   -1.2727274  
C    5.6949939    0.0015511   -2.2307549  
C    6.9549544    0.0016812   -1.5034317  
C    6.5623385    0.0012149   -0.0777962  
N    5.2646566    0.0007113    0.0636667  
C    7.5356716    0.0011414    0.9794207  
C    8.8418530    0.0011278    0.6283864  
O    9.8560143    0.0010694    1.5101563  
C    9.2698392    0.0012213   -0.8016446  
O   10.4759238    0.0013272   -1.0477761  
C    8.2523646    0.0013394   -1.8677918  
H    5.5615855    0.0017693   -3.2990611  
H    7.2204107    0.0010035    2.0126294  
H   10.6613099    0.0010489    0.9618393  
H    8.6033679    0.0012895   -2.8910346  
C    0.8576279    0.7185626    2.2703808  
C    0.0000000    0.0000000    1.4700000  
C   -0.8668858   -0.7285659    2.3373528  
C   -0.4876752   -0.4117774    3.6669281  
N    0.5635254    0.4678311    3.5902241  
C   -1.1297612   -0.9515493    4.7854808  
C   -2.1738724   -1.8268314    4.5576857  
O   -2.8357962   -2.3827064    5.6140350  
C   -2.5667212   -2.1555554    3.2384331  
O   -3.6226318   -3.0413663    3.1773122  
C   -1.9335634   -1.6236449    2.1344818  
H    1.0363952    0.8769718    4.3757045  
H   -0.8454472   -0.7142436    5.8013813  
H   -3.5178062   -2.9546422    5.2385129  
H   -3.8247440   -3.2102924    2.2519915  
H   -2.2566033   -1.8942483    1.1360343  
H    1.6567807    1.3889844    2.0042067  
