58

C    7.9719829    0.7286174   -4.3633630  
C    8.5386754    0.5128832   -5.5784327  
C    9.6282073   -0.4128314   -5.3764256  
C    9.6499530   -0.7209579   -3.9337285  
N    8.6213209    0.0029129   -3.3762192  
C   10.5356664   -1.5604757   -3.3400726  
C   11.5343158   -2.2033079   -4.1779277  
O   12.3757181   -2.9757752   -3.7378830  
C   11.5300083   -1.8913427   -5.7084384  
O   12.3661928   -2.4264099   -6.4238102  
C   10.5250857   -0.9694366   -6.2319591  
H    8.2289252    0.9522470   -6.5098977  
H   10.5342995   -1.7729537   -2.2799969  
H   10.5287620   -0.7588855   -7.2927976  
H    7.1347596    1.3568660   -4.1059705  
C    4.7390840    0.0009613   -1.2727298  
C    5.7159780    0.0017137   -2.2159966  
C    6.9782049    0.0017419   -1.5148417  
C    6.6542736    0.0009092   -0.0754467  
N    5.2807306    0.0008646    0.0037337  
C    7.5764457    0.0002870    0.9201955  
C    8.9818048    0.0006743    0.5493866  
O    9.8878556    0.0002336    1.3724144  
C    9.3478544    0.0018078   -0.9691032  
O   10.5277193    0.0024491   -1.2934190  
C    8.2653746    0.0021236   -1.9499649  
H    5.5691178    0.0023766   -3.2813817  
H    7.3176385   -0.0004497    1.9699235  
H    4.7530492   -0.0011857    0.8573115  
C    3.2798077    0.0005856   -1.4499661  
C    2.5571132    0.0005565   -2.5996564  
C    1.1637425    0.0001547   -2.2210366  
C    1.1336959   -0.0000200   -0.7459475  
N    2.4483509   -0.0001429   -0.3402730  
C    0.0000000    0.0000000    0.0000000  
C   -1.2757370   -0.0000187   -0.6964411  
O   -2.3524597   -0.0000640   -0.1142306  
C   -1.2676502   -0.0000874   -2.2584078  
O   -2.3355774   -0.0004102   -2.8557287  
C    0.0181551    0.0001758   -2.9516297  
H    2.9547342    0.0006074   -3.5989118  
H    0.0150776    0.0003317   -4.0331632  
H    2.7563626    0.0012823    0.6148051  
C    0.0000000    0.0000000    1.4700000  
C    1.0541688    0.0001722    2.3260392  
C    0.5103138    0.0000454    3.6635956  
C   -0.9576371   -0.0002459    3.5155732  
N   -1.2018458    0.0001392    2.1615969  
C   -1.8348311   -0.0008317    4.5510609  
C   -1.2972847   -0.0009736    5.9014604  
O   -2.0050672   -0.0014265    6.9001319  
C    0.2542623   -0.0004184    6.0817573  
O    0.7184670   -0.0002256    7.2139121  
C    1.0974552   -0.0000873    4.8889129  
H    2.0940752    0.0005483    2.0517982  
H   -2.9081052   -0.0011668    4.4207061  
H    2.1707277    0.0000911    5.0223670  
H   -2.1128194   -0.0014912    1.7406791  
