62

C    0.3821150    3.2819571   -1.5420439  
C    0.2994622    2.5671295   -0.3695860  
C    0.1392835    1.1959169   -0.7283591  
C    0.1315378    1.1346380   -2.1454375  
N    0.2790790    2.4188181   -2.6077471  
C   -0.0084536   -0.0649774   -2.8497918  
C   -0.1427734   -1.2238780   -2.1101399  
O   -0.2822983   -2.4228917   -2.7472514  
C   -0.1377922   -1.1831242   -0.6955258  
O   -0.2817073   -2.4208175   -0.1032850  
C    0.0000000    0.0000000    0.0000000  
H    0.3474803    2.9829831    0.6222579  
H   -0.0152821   -0.1183828   -3.9297468  
H   -0.3600924   -3.0924044   -2.0551776  
H   -0.2679838   -2.3044988    0.8516418  
H    0.5049762    4.3393785   -1.7024304  
C    2.6568012    5.3371762   -4.9939710  
C    2.1806098    4.6204336   -3.9494130  
C    1.1665189    3.7494312   -4.5234113  
C    1.1616017    4.0821274   -5.9642001  
N    2.0331786    5.0121391   -6.2460176  
C    0.2820259    3.4276083   -6.8931986  
C   -0.5543358    2.4833641   -6.4051043  
O   -1.4280894    1.7932114   -7.1576238  
C   -0.5728012    2.1250284   -4.9561682  
O   -1.3603168    1.2561348   -4.5819176  
C    0.3390501    2.8107133   -4.0232756  
H    2.4805382    4.6758744   -2.9169185  
H    0.2995978    3.6907636   -7.9407439  
H   -1.8791982    1.1986814   -6.5313746  
C    4.3929988    6.7965506   -3.8704357  
C    3.7021616    6.3705973   -4.9811897  
C    4.1946322    7.1199313   -6.0905007  
C    5.1933655    7.9947542   -5.5913579  
N    5.2872564    7.7739527   -4.2396742  
C    5.8966301    8.8845723   -6.4089336  
C    5.5862352    8.8911720   -7.7549605  
O    6.2427629    9.7401043   -8.5983461  
C    4.5926015    8.0260932   -8.2718248  
O    4.3986722    8.1521423   -9.6319164  
C    3.8982244    7.1481976   -7.4658069  
H    5.9207127    8.2427982   -3.6176641  
H    6.6588537    9.5539915   -6.0346403  
H    5.8786588    9.5851502   -9.4796409  
H    3.7122269    7.5336007   -9.8998767  
H    3.1424055    6.4977453   -7.8902229  
H    4.3175956    6.4815050   -2.8437807  
C    0.0000000    0.0000000    1.4700000  
C    1.0541688    0.0001722    2.3260392  
C    0.5103138    0.0000454    3.6635956  
C   -0.9576371   -0.0002459    3.5155732  
N   -1.2018458    0.0001392    2.1615969  
C   -1.8348311   -0.0008317    4.5510609  
C   -1.2972847   -0.0009736    5.9014604  
O   -2.0050672   -0.0014265    6.9001319  
C    0.2542623   -0.0004184    6.0817573  
O    0.7184670   -0.0002256    7.2139121  
C    1.0974552   -0.0000873    4.8889129  
H    2.0940752    0.0005483    2.0517982  
H   -2.9081052   -0.0011668    4.4207061  
H    2.1707277    0.0000911    5.0223670  
H   -2.1128194   -0.0014912    1.7406791  
