58

C    9.0099430   -0.0039228   -3.8443147  
C    9.6763360   -0.0036012   -2.6611007  
C   11.0863488   -0.0041913   -2.9720643  
C   11.1875176   -0.0048587   -4.4439866  
N    9.8939624   -0.0050580   -4.9126065  
C   12.3558774   -0.0051377   -5.1343771  
C   13.5965339   -0.0049813   -4.3772060  
O   14.7000882   -0.0052686   -4.9067982  
C   13.5131079   -0.0045294   -2.8174479  
O   14.5509783   -0.0047008   -2.1693061  
C   12.1953596   -0.0039779   -2.1870595  
H    9.2309751   -0.0031996   -1.6821897  
H   12.4080314   -0.0054978   -6.2142796  
H   12.1462609   -0.0034619   -1.1066370  
H    9.6323810   -0.0039371   -5.8814317  
C    5.5795932   -0.0015222   -1.1027756  
C    4.5679461   -0.0016854   -2.0086701  
C    5.1756903   -0.0023284   -3.3184343  
C    6.6347917   -0.0025572   -3.0997717  
N    6.8134024   -0.0016467   -1.7355918  
C    7.5609148   -0.0035410   -4.0917389  
C    7.0891367   -0.0042081   -5.4664971  
O    7.8442696   -0.0050453   -6.4298628  
C    5.5480930   -0.0037283   -5.7214287  
O    5.1390420   -0.0039759   -6.8746581  
C    4.6483399   -0.0029380   -4.5706479  
H    3.5827546   -0.0028152   -4.7557200  
H    5.5275962   -0.0011045   -0.0261208  
H    7.7030101   -0.0031107   -1.2712192  
C    3.1301149   -0.0010311   -1.7028252  
C    2.5367768   -0.0002767   -0.4864665  
C    1.1089904    0.0001028   -0.7656183  
C    1.0177872   -0.0004148   -2.2415132  
N    2.1993578   -0.0011611   -2.7963820  
C   -0.2459209   -0.0002877   -2.9257118  
C   -1.3675319   -0.0000605   -2.1698524  
O   -2.6129313    0.0000867   -2.6748490  
C   -1.3083584    0.0000910   -0.6783232  
O   -2.3693261    0.0004206   -0.0541692  
C    0.0000000    0.0000000    0.0000000  
H    3.0096017   -0.0001007    0.4807525  
H   -0.2829630   -0.0004687   -4.0053125  
H   -3.1967441    0.0002094   -1.8949034  
C    0.8400945    0.7047457    2.2710304  
C    0.0000000    0.0000000    1.4700000  
C   -0.8844236   -0.7423113    2.3369512  
C   -0.4878984   -0.4098547    3.7186280  
N    0.5629682    0.4714286    3.6095011  
C   -1.0836927   -0.9095027    4.8308716  
C   -2.1891196   -1.8367527    4.6554461  
O   -2.7906899   -2.3413415    5.5944904  
C   -2.6257283   -2.2031529    3.2011665  
O   -3.5549479   -2.9829990    3.0410059  
C   -1.9068976   -1.5999348    2.0816745  
H   -0.7774656   -0.6525820    5.8354244  
H   -2.2155208   -1.8586617    1.0779135  
H    1.6384792    1.3747609    1.9961646  
H    1.0518368    0.8833920    4.3830260  
