58

C   -3.1006046    0.0019949   -3.9654949  
C   -4.3965740    0.0020822   -4.3711283  
C   -4.3857790    0.0024708   -5.8149838  
C   -2.9671161    0.0025745   -6.2201834  
N   -2.2396171    0.0026729   -5.0524355  
C   -2.5349202    0.0025227   -7.5066166  
C   -3.5336494    0.0025798   -8.5625877  
O   -3.2452490    0.0026010   -9.7521785  
C   -5.0419174    0.0027238   -8.1564681  
O   -5.8918119    0.0030794   -9.0367746  
C   -5.3843434    0.0024893   -6.7363993  
H   -5.2614021    0.0020780   -3.7318435  
H   -1.4895005    0.0024705   -7.7823110  
H   -1.2375699    0.0012004   -4.9981502  
C   -3.2798076    0.0021870   -1.4499654  
C   -2.5571136    0.0016052   -2.5996555  
C   -1.1637428    0.0008290   -2.2210361  
C   -1.1336958    0.0009784   -0.7459474  
N   -2.4483501    0.0022126   -0.3402719  
C    0.0000000    0.0000000    0.0000000  
C    1.2757363   -0.0010598   -0.6964412  
O    2.3524590   -0.0019247   -0.1142307  
C    1.2676495   -0.0009843   -2.2584080  
O    2.3355762   -0.0015643   -2.8557290  
C   -0.0181557   -0.0001607   -2.9516294  
H   -0.0150787   -0.0003191   -4.0331627  
H   -4.3498537    0.0028161   -1.3200026  
H   -2.7563628    0.0010479    0.6148061  
C   -6.8068082    0.0023483   -6.3655965  
C   -7.3692549    0.0023261   -5.1295835  
C   -8.8007442    0.0021290   -5.3184574  
C   -9.0277943    0.0020084   -6.7762772  
N   -7.7792027    0.0025494   -7.3541254  
C  -10.2510663    0.0014168   -7.3639076  
C  -11.4222031    0.0010881   -6.5031104  
O  -12.5671171    0.0006149   -6.9360928  
C  -11.2052979    0.0014606   -4.9562557  
O  -12.1837479    0.0014954   -4.2214801  
C   -9.8383341    0.0018162   -4.4412205  
H   -6.8415686    0.0026176   -4.1924810  
H  -10.3956569    0.0012087   -8.4353562  
H   -9.6967425    0.0018674   -3.3689911  
H   -7.6016859    0.0010565   -8.3418162  
C    0.8175213    0.6860729    2.3021913  
C    0.0000000    0.0000000    1.4700000  
C   -0.8887526   -0.7456559    2.3478473  
C   -0.4549825   -0.3816753    3.7138435  
N    0.5448156    0.4573574    3.6934124  
C   -1.0945674   -0.9182058    4.8835240  
C   -2.1210866   -1.7789155    4.6970523  
O   -2.8083856   -2.3554314    5.6976972  
C   -2.5824069   -2.1655116    3.3310774  
O   -3.5227682   -2.9541547    3.2362962  
C   -1.9100805   -1.6015804    2.1470656  
H   -0.7567140   -0.6349833    5.8697035  
H   -3.4728268   -2.9124471    5.2533954  
H   -2.2742832   -1.9066565    1.1752040  
H    1.6189533    1.3585343    2.0405121  
