58

C    0.3445018   -0.0471761   -8.8023151  
C    1.3636817   -0.7039578   -9.4138581  
C    1.3345275   -0.3230912  -10.8063116  
C    0.2067505    0.6161741  -10.9569445  
N   -0.3521935    0.7407188   -9.7059617  
C   -0.1531907    1.2042911  -12.1258187  
C    0.6217473    0.8911306  -13.3149106  
O    0.3768535    1.3695015  -14.4146767  
C    1.8202524   -0.1012502  -13.1786364  
O    2.4797763   -0.3727281  -14.1729151  
C    2.1112574   -0.6710552  -11.8654381  
H    2.0566843   -1.3784184   -8.9432599  
H   -0.9838534    1.8905947  -12.2146839  
H    2.9428799   -1.3571643  -11.7795178  
H   -1.1430270    1.3169468   -9.4832717  
C    1.7744463   -2.1336760   -5.1326807  
C    1.6746907   -1.7240763   -6.4187040  
C    0.5405885   -0.8130121   -6.4352720  
C    0.0614875   -0.7888182   -5.0365367  
N    0.7809200   -1.5609931   -4.2683222  
C   -1.0641734    0.0073898   -4.6315339  
C   -1.6828407    0.7461571   -5.5806432  
O   -2.7449527    1.5348085   -5.3440237  
C   -1.2228402    0.7432051   -7.0006960  
O   -1.8334830    1.4397968   -7.8113106  
C   -0.0658191   -0.0818757   -7.3911694  
H    2.2942506   -2.0053653   -7.2530286  
H   -2.9590926    1.9284667   -6.2090847  
H    2.4922211   -2.8167589   -4.7070391  
C    1.1319248    0.0015675   -0.8009270  
C    0.7969916    0.0034959   -2.1169404  
C   -0.6453336    0.0035703   -2.1842672  
C   -1.1266831    0.0015415   -0.7896027  
N    0.0000000    0.0000000    0.0000000  
C   -2.4346129    0.0013924   -0.4276297  
C   -3.4350110    0.0031352   -1.4820184  
O   -4.6384610    0.0030897   -1.2583919  
C   -2.9478958    0.0050460   -2.9661075  
O   -3.7809377    0.0062160   -3.8623775  
C   -1.5113821    0.0053068   -3.2312125  
H    1.4821240    0.0045436   -2.9459192  
H   -2.7664565    0.0000185    0.6013447  
H    2.1104318    0.0009428   -0.3488058  
C    2.3971438    2.0127888    3.1728260  
C    1.9431056    1.6308205    1.9564670  
C    0.8496017    0.7127664    2.2356185  
C    0.7794028    0.6545384    3.7115134  
N    1.6840587    1.4146091    4.2663826  
C   -0.1885723   -0.1578550    4.3957118  
C   -1.0476298   -0.8789867    3.6398520  
O   -2.0015663   -1.6796266    4.1448486  
C   -1.0022026   -0.8410666    2.1483229  
O   -1.8147390   -1.5232959    1.5241687  
C    0.0000000    0.0000000    1.4700000  
H    2.3054237    1.9346118    0.9892483  
H   -0.2170646   -0.1815267    5.4753125  
H   -2.4487139   -2.0549881    3.3649027  
H    3.2048689    2.6911772    3.3971983  
