58

C    0.8353425   -0.7266722   -5.2248492  
C    0.5761920   -0.5101811   -6.5401620  
C   -0.5291476    0.4165999   -6.6044789  
C   -0.8953224    0.7245274   -5.2088117  
N   -0.0307344   -0.0004648   -4.4215605  
C   -1.8966021    1.5648462   -4.8441100  
C   -2.6650470    2.2088127   -5.8964105  
O   -3.5865954    2.9820601   -5.6702727  
C   -2.2947844    1.8970774   -7.3815134  
O   -2.9349086    2.4330965   -8.2760437  
C   -1.1946283    0.9742392   -7.6496156  
H    1.0994961   -0.9497146   -7.3705698  
H   -2.1488361    1.7771609   -3.8144446  
H    1.5860180   -1.3558036   -4.7747706  
C    3.2573671   -0.0002923   -1.5109378  
C    2.5379468   -0.0001709   -0.3591957  
C    1.1435045    0.0000331   -0.7338504  
C    1.1092613   -0.0000084   -2.2088481  
N    2.4227569    0.0001905   -2.6182610  
C   -0.0265528   -0.0002524   -2.9515665  
C   -1.3003030   -0.0002641   -2.2514988  
O   -2.3786778   -0.0004133   -2.8306435  
C   -1.2877722    0.0000311   -0.6895611  
O   -2.3539956    0.0003306   -0.0892041  
C    0.0000000    0.0000000    0.0000000  
H    2.9384092   -0.0000370    0.6389245  
H    4.3270397   -0.0004769   -1.6439440  
H    2.7280500   -0.0013408   -3.5742112  
C   -0.5085584   -0.5220305   -9.5602410  
C   -0.8545957    0.6882889   -9.0508690  
C   -0.8230433    1.6300783  -10.1448855  
C   -0.4274505    0.8637254  -11.3419650  
N   -0.2514380   -0.4338991  -10.9199693  
C   -0.2842749    1.3950972  -12.5824688  
C   -0.5364218    2.8167093  -12.7497284  
O   -0.4343541    3.3890960  -13.8268804  
C   -0.9562745    3.6477425  -11.4955698  
O   -1.1709075    4.8455245  -11.6240641  
C   -1.0778129    2.9630703  -10.2109283  
H    0.0066683    0.8152832  -13.4473836  
H   -1.3691625    3.5455817   -9.3474930  
H   -0.4195394   -1.4709061   -9.0566533  
H    0.0198384   -1.1994266  -11.5093963  
C    0.0000000    0.0000000    1.4700000  
C    1.0662921    0.0000102    2.3034270  
C    0.4961870   -0.0000064    3.6418889  
C   -0.9663858    0.0000850    3.4240247  
N   -1.2632773    0.0000084    2.1528658  
C   -1.8985362    0.0000517    4.5177257  
C   -1.3925775   -0.0004564    5.7720543  
O   -2.1456383   -0.0005410    6.8851312  
C    0.0786232   -0.0009323    6.0245000  
O    0.4683759   -0.0012588    7.1921102  
C    1.0143166   -0.0008442    4.8859032  
H    2.1107198   -0.0000632    2.0421868  
H   -2.9622183    0.0003270    4.3293377  
H   -1.5042274   -0.0009692    7.6184419  
H    2.0724152   -0.0013148    5.1109744  
