58

C    1.7175724   -2.3580975   -7.7804821  
C    1.2838546   -1.0739009   -7.6980018  
C    1.6569686   -0.4234661   -8.9319200  
C    2.3485454   -1.4412979   -9.7458805  
N    2.3523574   -2.5915154   -8.9909795  
C    2.8558175   -1.2202056  -10.9850316  
C    2.7111869    0.1089852  -11.5550047  
O    3.1342075    0.4077939  -12.6640893  
C    1.9824447    1.2024428  -10.7105587  
O    1.8549680    2.3252767  -11.1798714  
C    1.4780501    0.8441162   -9.3872906  
H    3.3594903   -1.9807446  -11.5653805  
H    0.9745014    1.6068993   -8.8090818  
H    1.6270667   -3.1535510   -7.0587124  
H    2.7526379   -3.4663786   -9.2763528  
C    0.8518586   -0.7041561   -5.2251428  
C    0.0139741    0.0003876   -4.4216236  
C   -0.8729886    0.7427329   -5.2859478  
C   -0.4803619    0.4105163   -6.6687950  
N    0.5709013   -0.4706744   -6.5627858  
C   -1.0793694    0.9102632   -7.7792669  
C   -2.1843879    1.8373742   -7.6005633  
O   -2.7886791    2.3420362   -8.5378192  
C   -2.6168948    2.2035197   -6.1449948  
O   -3.5457350    2.9832468   -5.9820782  
C   -1.8948203    1.6002142   -5.0276394  
H   -0.7759753    0.6535189   -8.7847240  
H   -2.2006131    1.8587645   -4.0229668  
H    1.6510907   -1.3741286   -4.9526464  
C    3.2798085    0.0005853   -1.4499648  
C    2.5571144    0.0005562   -2.5996554  
C    1.1637436    0.0001546   -2.2210360  
C    1.1336965   -0.0000201   -0.7459470  
N    2.4483513   -0.0001430   -0.3402717  
C    0.0000000    0.0000000    0.0000000  
C   -1.2757367   -0.0000188   -0.6964414  
O   -2.3524597   -0.0000640   -0.1142313  
C   -1.2676494   -0.0000875   -2.2584081  
O   -2.3355762   -0.0004102   -2.8557294  
C    0.0181562    0.0001757   -2.9516296  
H    2.9547357    0.0006072   -3.5989105  
H    4.3498550    0.0008609   -1.3200021  
H    2.7563627    0.0012824    0.6148063  
C    2.3971438    2.0127888    3.1728260  
C    1.9431056    1.6308205    1.9564670  
C    0.8496017    0.7127664    2.2356185  
C    0.7794028    0.6545384    3.7115134  
N    1.6840587    1.4146091    4.2663826  
C   -0.1885723   -0.1578550    4.3957118  
C   -1.0476298   -0.8789867    3.6398520  
O   -2.0015663   -1.6796266    4.1448486  
C   -1.0022026   -0.8410666    2.1483229  
O   -1.8147390   -1.5232959    1.5241687  
C    0.0000000    0.0000000    1.4700000  
H    2.3054237    1.9346118    0.9892483  
H   -0.2170646   -0.1815267    5.4753125  
H   -2.4487139   -2.0549881    3.3649027  
H    3.2048689    2.6911772    3.3971983  
