60

C    3.3003545    0.0005278   -1.4738994  
C    2.5232810    0.0003500   -2.6090750  
C    1.1623198   -0.0001317   -2.1820102  
C    1.1711882    0.0000584   -0.7636141  
N    2.4852299   -0.0014919   -0.3662360  
C    0.0000000    0.0000000    0.0000000  
C   -1.2020384    0.0000520   -0.6806479  
O   -2.3759251    0.0003495    0.0157749  
C   -1.2314659   -0.0005110   -2.0955508  
O   -2.5054390   -0.0008034   -2.6250179  
C   -0.0764518   -0.0007269   -2.8495192  
H    2.8919952   -0.0005616   -3.6205303  
H    2.8036266    0.0088181    0.5858654  
H   -3.0835638    0.0000348   -0.6418815  
H   -2.4360052   -0.0011524   -3.5845917  
H    4.3715548    0.0004896   -1.3667140  
C    2.1623910   -2.0122254   -6.1367518  
C    1.7689756   -1.6301523   -4.8994875  
C    0.6617230   -0.7136662   -5.1243082  
C    0.5180513   -0.6563659   -6.5949062  
N    1.3949574   -1.4155852   -7.1937485  
C   -0.4838563    0.1543916   -7.2304692  
C   -1.3051623    0.8748445   -6.4331366  
O   -2.2841110    1.6739683   -6.8904132  
C   -1.1854796    0.8378292   -4.9457004  
O   -1.9668285    1.5193652   -4.2822073  
C   -0.1496419   -0.0015607   -4.3176961  
H    2.1794005   -1.9329281   -3.9513552  
H   -2.6923642    2.0491960   -6.0893597  
H    2.9588345   -2.6896999   -6.4007216  
C   -0.1851105   -2.8592563  -10.5005025  
C   -0.1943759   -2.3010032   -9.2676815  
C   -0.4621721   -0.8895641   -9.4970824  
C   -0.5908156   -0.7684246  -10.9651970  
N   -0.4294548   -1.9197935  -11.5587467  
C   -0.8613217    0.4900947  -11.6039785  
C   -0.9975210    1.5780685  -10.8120840  
O   -1.2511981    2.8147497  -11.2728530  
C   -0.8735860    1.4880599   -9.3272607  
O   -1.0092246    2.5191651   -8.6687437  
C   -0.5957701    0.1857209   -8.6958683  
H   -0.0387981   -2.7870055   -8.3196982  
H   -0.9500973    0.5495340  -12.6789190  
H   -1.2926616    3.3728172  -10.4753600  
H   -0.0202479   -3.8928499  -10.7602672  
C    0.0000000    0.0000000    1.4700000  
C    1.0541688    0.0001722    2.3260392  
C    0.5103138    0.0000454    3.6635956  
C   -0.9576371   -0.0002459    3.5155732  
N   -1.2018458    0.0001392    2.1615969  
C   -1.8348311   -0.0008317    4.5510609  
C   -1.2972847   -0.0009736    5.9014604  
O   -2.0050672   -0.0014265    6.9001319  
C    0.2542623   -0.0004184    6.0817573  
O    0.7184670   -0.0002256    7.2139121  
C    1.0974552   -0.0000873    4.8889129  
H    2.0940752    0.0005483    2.0517982  
H   -2.9081052   -0.0011668    4.4207061  
H    2.1707277    0.0000911    5.0223670  
H   -2.1128194   -0.0014912    1.7406791  
