62

C   -3.8806665    2.9507169   -1.4420380  
C   -2.7551687    2.2520642   -1.8129921  
C   -3.1242330    1.4213273   -2.9122050  
C   -4.4988329    1.6581329   -3.1697387  
N   -4.9275639    2.5905122   -2.2578854  
C   -5.2001481    1.0079489   -4.1896439  
C   -4.5010017    0.1024362   -4.9638655  
O   -5.1370356   -0.5602051   -5.9735104  
C   -3.1292000   -0.1476681   -4.7221533  
O   -2.5742540   -1.0763965   -5.5782143  
C   -2.4367654    0.4931902   -3.7159918  
H   -1.7874958    2.3306079   -1.3477688  
H   -5.8580708    2.9635151   -2.2030548  
H   -6.2478696    1.1838981   -4.3909470  
H   -4.4765524   -1.1353450   -6.3812363  
H   -1.6468491   -1.1868844   -5.3473114  
C    0.0000000    0.0000000    0.0000000  
C   -1.0314018    0.2080059   -0.8862340  
C   -0.4818919    0.0978367   -2.1979128  
C    0.9007536   -0.1809191   -2.0478684  
N    1.1604121   -0.2316984   -0.7007913  
C    1.7599370   -0.3539170   -3.1372090  
C    1.2133315   -0.2438022   -4.4010427  
O    2.0071673   -0.4039968   -5.4997578  
C   -0.1638260    0.0342294   -4.5711964  
O   -0.5558753    0.1135601   -5.8915552  
C   -1.0119682    0.2052831   -3.4969890  
H   -2.0538172    0.4149084   -0.6200559  
H    2.0560078   -0.4226628   -0.2891827  
H    2.8146677   -0.5664131   -3.0295513  
H    1.4348034   -0.2883361   -6.2693593  
H   -1.4985831    0.3038405   -5.9180045  
C   -3.1204176    4.3769022    0.4939428  
C   -4.0707044    3.9416381   -0.3729915  
C   -5.2925361    4.6360902   -0.0417835  
C   -4.9738899    5.5179592    1.0973221  
N   -3.6417633    5.3132812    1.3737906  
C   -5.8649358    6.3420553    1.7044529  
C   -7.2288764    6.3616196    1.2026387  
O   -8.1048541    7.0696351    1.6818870  
C   -7.5886754    5.4356461   -0.0027345  
O   -8.7338828    5.4433311   -0.4336643  
C   -6.5420650    4.5915073   -0.5735999  
H   -5.6106359    6.9810682    2.5386615  
H   -6.7993084    3.9534284   -1.4081091  
H   -2.0831547    4.0922368    0.5642365  
H   -3.1270152    5.7747081    2.1012294  
C    1.0672568    0.0000697    2.3021913  
C    0.0000000    0.0000000    1.4700000  
C   -1.1601224    0.0000736    2.3478473  
C   -0.5938729    0.0000769    3.7138435  
N    0.7113367    0.0001554    3.6934124  
C   -1.4286986    0.0001879    4.8835240  
C   -2.7683114    0.0006799    4.6970523  
O   -3.6653903    0.0008304    5.6976972  
C   -3.3702025    0.0010610    3.3310774  
O   -4.5974910    0.0013779    3.2362962  
C   -2.4926826    0.0008943    2.1470656  
H   -0.9878360   -0.0000190    5.8697035  
H   -4.5324246    0.0012261    5.2533954  
H   -2.9677772    0.0012974    1.1752040  
H    2.1134392    0.0000545    2.0405121  
