62

C    3.3003546    0.0005277   -1.4738991  
C    2.5232814    0.0003500   -2.6090751  
C    1.1623200   -0.0001317   -2.1820105  
C    1.1711884    0.0000584   -0.7636149  
N    2.4852301   -0.0014918   -0.3662360  
C    0.0000000    0.0000000    0.0000000  
C   -1.2020381    0.0000520   -0.6806482  
O   -2.3759249    0.0003494    0.0157741  
C   -1.2314658   -0.0005112   -2.0955513  
O   -2.5054389   -0.0008037   -2.6250183  
C   -0.0764516   -0.0007271   -2.8495197  
H    2.8919954   -0.0005617   -3.6205304  
H    2.8036264    0.0088181    0.5858648  
H   -3.0835636    0.0000347   -0.6418825  
H   -2.4360049   -0.0011526   -3.5845926  
H    4.3715554    0.0004896   -1.3667140  
C   -0.1496415   -0.0015610   -4.3176962  
C    0.8605985   -0.0020141   -5.2251600  
C    0.2508223   -0.0027517   -6.5339793  
C   -1.2079382   -0.0026617   -6.3130523  
N   -1.3844307   -0.0023261   -4.9485967  
C   -2.1356001   -0.0028338   -7.3035813  
C   -1.6659557   -0.0033535   -8.6790695  
O   -2.4225831   -0.0036047   -9.6412625  
C   -0.1253096   -0.0037095   -8.9363927  
O    0.2819504   -0.0044544  -10.0902555  
C    0.7762281   -0.0032001   -7.7870096  
H    1.9128695   -0.0020326   -5.0030345  
H   -3.2010530   -0.0026332   -7.1199510  
H   -2.2733178   -0.0006339   -4.4828456  
C    4.1125281   -2.1233505   -5.8038442  
C    5.1278519   -1.6242761   -6.5864745  
C    4.5271274   -0.7502289   -7.5402940  
C    3.1312249   -0.7557212   -7.2885960  
N    2.9134552   -1.6011455   -6.2291377  
C    2.2241539   -0.0032620   -8.0408031  
C    2.7355881    0.7690417   -9.0655761  
O    1.8943826    1.5235043   -9.8311957  
C    4.1252899    0.7874571   -9.3324250  
O    4.4782603    1.6057206  -10.3856111  
C    5.0206900    0.0451799   -8.5909344  
H    6.1727889   -1.8619108   -6.4833740  
H    2.0189095   -1.7977702   -5.8179098  
H    2.4485263    1.9778835  -10.4790606  
H    5.4325710    1.5608021  -10.4990928  
H    6.0796207    0.0793303   -8.8189238  
H    4.1486400   -2.8116062   -4.9768264  
C    2.4951002    2.0940188    2.9809380  
C    1.9440701    1.6314916    1.8291961  
C    0.8759964    0.7350050    2.2038498  
C    0.8497377    0.7130254    3.6788474  
N    1.8560616    1.5571714    4.0882609  
C   -0.0205033   -0.0168748    4.4215661  
C   -0.9962600   -0.8356168    3.7214979  
O   -1.8224391   -1.5286685    4.3006425  
C   -0.9864710   -0.8277881    2.1595606  
O   -1.8030528   -1.5133726    1.5592035  
C    0.0000000    0.0000000    1.4700000  
H    2.2509283    1.8888011    0.8310761  
H   -0.0229599   -0.0187323    5.5027230  
H    3.3143982    2.7817323    3.1139444  
H    2.0889452    1.7545833    5.0442112  
