58

C    6.9331516   -0.0616541   -4.0709013  
C    7.9147865   -0.7195428   -3.4018348  
C    9.1671798   -0.3409357   -4.0125753  
C    8.8323129    0.5982104   -5.1000767  
N    7.4624396    0.7248501   -5.0828329  
C    9.7433136    1.1844680   -5.9174407  
C   11.1473135    0.8692892   -5.7125403  
O   12.0436697    1.3459003   -6.3964166  
C   11.5248014   -0.1230036   -4.5668252  
O   12.7036067   -0.3961704   -4.3850063  
C   10.4538984   -0.6907071   -3.7515149  
H    7.7772342   -1.3933157   -2.5749599  
H    9.4766126    1.8707196   -6.7091727  
H   10.7236745   -1.3767690   -2.9601467  
H    6.9294527    1.3015277   -5.7076652  
C    4.1985330   -2.1423500   -1.2324143  
C    5.3247411   -1.7348290   -1.8626207  
C    4.8654772   -0.8236656   -2.8996153  
C    3.3948140   -0.7971456   -2.7478596  
N    2.9980296   -1.5681521   -1.7721028  
C    2.5562217   -0.0001543   -3.6003001  
C    3.1594332    0.7371395   -4.5604398  
O    2.5003399    1.5262936   -5.4258144  
C    4.6414695    0.7318289   -4.7384884  
O    5.1222596    1.4271713   -5.6332285  
C    5.4799816   -0.0940150   -3.8514687  
H    6.3415670   -2.0175427   -1.6499837  
H    3.1964050    1.9185702   -5.9832785  
H    4.1121693   -2.8248211   -0.4019036  
C    0.0000000    0.0000000    0.0000000  
C    1.0541688   -0.0001719   -0.8560391  
C    0.5103141   -0.0000449   -2.1935955  
C   -0.9576367    0.0002461   -2.0455733  
N   -1.2018459   -0.0001392   -0.6915970  
C   -1.8348306    0.0008319   -3.0810611  
C   -1.2972842    0.0009739   -4.4314605  
O   -2.0050664    0.0014267   -5.4301321  
C    0.2542628    0.0004190   -4.6117571  
O    0.7184677    0.0002263   -5.7439119  
C    1.0974556    0.0000880   -3.4189127  
H    2.0940752   -0.0005479   -0.5817978  
H   -2.9081050    0.0011669   -2.9507065  
H   -2.1128195    0.0014911   -0.2706793  
C    0.0000000    0.0000000    1.4700000  
C    1.0662921    0.0000102    2.3034270  
C    0.4961870   -0.0000064    3.6418889  
C   -0.9663858    0.0000850    3.4240247  
N   -1.2632773    0.0000084    2.1528658  
C   -1.8985362    0.0000517    4.5177257  
C   -1.3925775   -0.0004564    5.7720543  
O   -2.1456383   -0.0005410    6.8851312  
C    0.0786232   -0.0009323    6.0245000  
O    0.4683759   -0.0012588    7.1921102  
C    1.0143166   -0.0008442    4.8859032  
H    2.1107198   -0.0000632    2.0421868  
H   -2.9622183    0.0003270    4.3293377  
H   -1.5042274   -0.0009692    7.6184419  
H    2.0724152   -0.0013148    5.1109744  
