62

C   -0.7827203    0.7995047   -0.8003800  
C    0.0000000    0.0000000    0.0000000  
C    0.7909478   -0.8103704   -0.8673531  
C    0.4447665   -0.4577874   -2.1969280  
N   -0.5147312    0.5210375   -2.1202235  
C    1.0305932   -1.0581498   -3.3154812  
C    1.9834614   -2.0319715   -3.0876861  
O    2.5874445   -2.6503120   -4.1440360  
C    2.3420398   -2.3977745   -1.7684335  
O    3.3056135   -3.3832350   -1.7073135  
C    1.7643242   -1.8061142   -0.6644821  
H   -0.9450243    0.9747444   -2.9057037  
H    3.2098347   -3.2866121   -3.7685143  
H    3.4901135   -3.5712384   -0.7819926  
H    2.0591545   -2.1072065    0.3339649  
H   -1.5119882    1.5453449   -0.5342062  
C    0.1632777    2.8632330   -5.2802153  
C    0.4767025    1.8831054   -4.3672080  
C    0.4503414    0.6396849   -5.0656423  
C    0.1122732    0.9262441   -6.4130547  
N   -0.0570451    2.2852276   -6.5085136  
C   -0.0043888   -0.0661524   -7.3909747  
C    0.2246924   -1.3715785   -7.0016647  
O    0.1245261   -2.3797331   -7.9163248  
C    0.5627125   -1.6775386   -5.6619078  
O    0.7594660   -3.0235236   -5.4317841  
C    0.6777125   -0.6990522   -4.6965761  
H    0.6961373    2.0443704   -3.3256539  
H   -0.2915034    2.7832978   -7.3481187  
H   -0.2618750    0.1456949   -8.4195771  
H    0.3202405   -3.1986158   -7.4426251  
H    0.9837612   -3.1438559   -4.5039827  
C    0.2380898    5.0037276   -3.9487907  
C    0.0469075    4.3181420   -5.1052927  
C   -0.2900897    5.2890663   -6.1194797  
C   -0.2794631    6.6059468   -5.4542706  
N    0.0473991    6.3638127   -4.1399564  
C   -0.5479304    7.7828163   -6.0744388  
C   -0.8689766    7.7502792   -7.4916214  
O   -1.1255682    8.7564627   -8.1397379  
C   -0.8862868    6.3666512   -8.2162452  
O   -1.1555107    6.3267260   -9.4092189  
C   -0.5796411    5.1669111   -7.4413626  
H   -0.5346235    8.7379730   -5.5680709  
H   -0.5935548    4.2128471   -7.9505704  
H    0.5020348    4.6297894   -2.9728844  
H    0.1359746    7.0670340   -3.4295469  
C    0.8400945    0.7047457    2.2710304  
C    0.0000000    0.0000000    1.4700000  
C   -0.8844236   -0.7423113    2.3369512  
C   -0.4878984   -0.4098547    3.7186280  
N    0.5629682    0.4714286    3.6095011  
C   -1.0836927   -0.9095027    4.8308716  
C   -2.1891196   -1.8367527    4.6554461  
O   -2.7906899   -2.3413415    5.5944904  
C   -2.6257283   -2.2031529    3.2011665  
O   -3.5549479   -2.9829990    3.0410059  
C   -1.9068976   -1.5999348    2.0816745  
H   -0.7774656   -0.6525820    5.8354244  
H   -2.2155208   -1.8586617    1.0779135  
H    1.6384792    1.3747609    1.9961646  
H    1.0518368    0.8833920    4.3830260  
