60

C    3.3003546    0.0005277   -1.4738988  
C    2.5232816    0.0003498   -2.6090750  
C    1.1623201   -0.0001319   -2.1820101  
C    1.1711885    0.0000582   -0.7636141  
N    2.4852302   -0.0014917   -0.3662354  
C    0.0000000    0.0000000    0.0000000  
C   -1.2020384    0.0000519   -0.6806477  
O   -2.3759248    0.0003493    0.0157747  
C   -1.2314656   -0.0005113   -2.0955507  
O   -2.5054388   -0.0008039   -2.6250181  
C   -0.0764515   -0.0007273   -2.8495192  
H    2.8919956   -0.0005619   -3.6205299  
H    2.8036266    0.0088182    0.5858661  
H   -3.0835638    0.0000345   -0.6418814  
H   -2.4360043   -0.0011529   -3.5845921  
H    4.3715550    0.0004896   -1.3667133  
C    2.2883739   -2.1096670   -5.8898009  
C    1.6780811   -1.6459105   -7.0107594  
C    0.6304148   -0.7505695   -6.5799512  
C    0.6807528   -0.7305571   -5.1055511  
N    1.7068949   -1.5752689   -4.7500461  
C   -0.1496413   -0.0015613   -4.3176959  
C   -1.1605697    0.8178670   -4.9650724  
O   -1.9555596    1.5101064   -4.3429013  
C   -1.2321937    0.8117308   -6.5254047  
O   -2.0793585    1.4974358   -7.0816262  
C   -0.2825931   -0.0147691   -7.2663564  
H   -0.3386961   -0.0132860   -8.3464369  
H    3.1138609   -2.7970353   -5.8004373  
H    1.9910640   -1.7715753   -3.8078370  
C    2.3791774   -3.2076238   -8.8838944  
C    2.0260221   -1.9959006   -8.3954416  
C    2.0638897   -1.1031521   -9.5435117  
C    2.4701098   -1.9661480  -10.6734710  
N    2.6562827   -3.2008577  -10.2929171  
C    2.6246407   -1.4518238  -12.0063916  
C    2.3839107   -0.1352964  -12.2016837  
O    2.4892799    0.4783871  -13.3926204  
C    1.9721085    0.7614649  -11.0816850  
O    1.7696935    1.9495233  -11.3322173  
C    1.8204894    0.2100174   -9.7234355  
H    2.9228055   -2.1052671  -12.8132493  
H    2.2568015    1.4075124  -13.2142039  
H    1.5205137    0.8925218   -8.9395780  
H    2.4704163   -4.1388779   -8.3477836  
C    0.8400945    0.7047457    2.2710304  
C    0.0000000    0.0000000    1.4700000  
C   -0.8844236   -0.7423113    2.3369512  
C   -0.4878984   -0.4098547    3.7186280  
N    0.5629682    0.4714286    3.6095011  
C   -1.0836927   -0.9095027    4.8308716  
C   -2.1891196   -1.8367527    4.6554461  
O   -2.7906899   -2.3413415    5.5944904  
C   -2.6257283   -2.2031529    3.2011665  
O   -3.5549479   -2.9829990    3.0410059  
C   -1.9068976   -1.5999348    2.0816745  
H   -0.7774656   -0.6525820    5.8354244  
H   -2.2155208   -1.8586617    1.0779135  
H    1.6384792    1.3747609    1.9961646  
H    1.0518368    0.8833920    4.3830260  
