60

C   -3.3003449   -0.0077015   -1.4739000  
C   -2.5232735   -0.0058344   -2.6090755  
C   -1.1623166   -0.0023945   -2.1820107  
C   -1.1711853   -0.0026041   -0.7636145  
N   -2.4852269   -0.0039102   -0.3662368  
C    0.0000000    0.0000000    0.0000000  
C    1.2020361    0.0025610   -0.6806476  
O    2.3759196    0.0048151    0.0157753  
C    1.2314622    0.0031881   -2.0955506  
O    2.5054326    0.0062499   -2.6250168  
C    0.0764512    0.0008935   -2.8495197  
H   -2.8919882   -0.0057242   -3.6205315  
H   -2.8036008   -0.0149124    0.5858650  
H    3.0835570    0.0066681   -0.6418808  
H    2.4359987    0.0064480   -3.5845911  
H    0.1304081    0.0016257   -3.9319086  
C   -5.6973496   -0.0135805   -2.3066404  
C   -4.7630373   -0.0108289   -1.3275420  
C   -5.5210171   -0.0117794   -0.0857830  
C   -6.9365998   -0.0151724   -0.5132159  
N   -7.0462184   -0.0163220   -1.8139740  
C   -8.0173487   -0.0170591    0.4339189  
C   -7.6984291   -0.0160104    1.7483097  
O   -8.6047846   -0.0175237    2.7405587  
C   -6.2793180   -0.0129715    2.2112098  
O   -6.0628168   -0.0120387    3.4229632  
C   -5.1885602   -0.0110351    1.2201657  
H   -8.0763675   -0.0162338    3.5590488  
H   -4.1742275   -0.0089649    1.5961384  
H   -5.5411306   -0.0139020   -3.3736774  
C   -9.9430647   -0.7076831   -1.0673392  
C   -9.4124150   -0.0201449   -0.0294180  
C  -10.5272096    0.7233621    0.5370883  
C  -11.6860871    0.3566634   -0.3050041  
N  -11.3498045   -0.4819820   -1.2471174  
C  -12.9988636    0.8905182   -0.0668789  
C  -13.1472586    1.7512658    0.9658008  
O  -14.3147390    2.3254443    1.3024735  
C  -11.9971330    2.1405704    1.8340241  
O  -12.2052363    2.9290885    2.7560618  
C  -10.6603788    1.5793562    1.5693530  
H  -13.8276875    0.6053419   -0.6982545  
H  -14.1036842    2.8831640    2.0729001  
H   -9.8534936    1.8863470    2.2212144  
H   -9.4407055   -1.3793192   -1.7452135  
C    2.4951002    2.0940188    2.9809380  
C    1.9440701    1.6314916    1.8291961  
C    0.8759964    0.7350050    2.2038498  
C    0.8497377    0.7130254    3.6788474  
N    1.8560616    1.5571714    4.0882609  
C   -0.0205033   -0.0168748    4.4215661  
C   -0.9962600   -0.8356168    3.7214979  
O   -1.8224391   -1.5286685    4.3006425  
C   -0.9864710   -0.8277881    2.1595606  
O   -1.8030528   -1.5133726    1.5592035  
C    0.0000000    0.0000000    1.4700000  
H    2.2509283    1.8888011    0.8310761  
H   -0.0229599   -0.0187323    5.5027230  
H    3.3143982    2.7817323    3.1139444  
H    2.0889452    1.7545833    5.0442112  
