62

C    3.3003545    0.0005278   -1.4738982  
C    2.5232817    0.0003499   -2.6090743  
C    1.1623204   -0.0001317   -2.1820100  
C    1.1711892    0.0000584   -0.7636137  
N    2.4852303   -0.0014918   -0.3662354  
C    0.0000000    0.0000000    0.0000000  
C   -1.2020389    0.0000521   -0.6806480  
O   -2.3759245    0.0003494    0.0157744  
C   -1.2314649   -0.0005110   -2.0955509  
O   -2.5054384   -0.0008035   -2.6250181  
C   -0.0764514   -0.0007270   -2.8495195  
H    2.8919960   -0.0005616   -3.6205298  
H    2.8036263    0.0088182    0.5858667  
H   -3.0835641    0.0000348   -0.6418821  
H   -2.4360050   -0.0011525   -3.5845924  
H   -0.1304086   -0.0013418   -3.9319086  
C    6.7690613    0.0009409   -4.2725614  
C    5.4996713    0.0003253   -3.8032773  
C    5.6352800    0.0001668   -2.3547915  
C    7.0947606    0.0006471   -2.1170956  
N    7.7645150    0.0011828   -3.2375502  
C    7.6497403    0.0007000   -0.7915448  
C    6.7859642    0.0006807    0.2492365  
O    7.1644555    0.0007169    1.5387270  
C    5.3077383    0.0005722    0.0418547  
O    4.5810512    0.0004363    1.0354074  
C    4.7630507    0.0004758   -1.3275395  
H    4.5843347    0.0001073   -4.3700522  
H    6.3302582    0.0007162    2.0419847  
H    7.0973396    0.0012426   -5.2997937  
C   10.9048320    2.1220930   -2.9041143  
C   11.9503366    1.6229010   -2.1623620  
C   11.3878658    0.7484164   -1.1858866  
C    9.9831136    0.7537758   -1.3822747  
N    9.7235616    1.5995444   -2.4320009  
C    9.1065570    0.0009025   -0.5951154  
C    9.6581649   -0.7716861    0.4083851  
O    8.8479524   -1.5265570    1.2063449  
C   11.0573204   -0.7899751    0.6201522  
O   11.4517169   -1.6085589    1.6582835  
C   11.9226401   -0.0472894   -0.1558418  
H   12.9903537    1.8607395   -2.3065509  
H    8.8134487    1.7961733   -2.8075190  
H    9.4273092   -1.9810795    1.8316611  
H   12.4097575   -1.5635286    1.7340152  
H   12.9897515   -0.0813523    0.0301494  
H   10.9081642    2.8106504   -3.7316625  
C    2.4951002    2.0940188    2.9809380  
C    1.9440701    1.6314916    1.8291961  
C    0.8759964    0.7350050    2.2038498  
C    0.8497377    0.7130254    3.6788474  
N    1.8560616    1.5571714    4.0882609  
C   -0.0205033   -0.0168748    4.4215661  
C   -0.9962600   -0.8356168    3.7214979  
O   -1.8224391   -1.5286685    4.3006425  
C   -0.9864710   -0.8277881    2.1595606  
O   -1.8030528   -1.5133726    1.5592035  
C    0.0000000    0.0000000    1.4700000  
H    2.2509283    1.8888011    0.8310761  
H   -0.0229599   -0.0187323    5.5027230  
H    3.3143982    2.7817323    3.1139444  
H    2.0889452    1.7545833    5.0442112  
