58

C    0.5566498   -3.2343812  -10.4204588  
C    0.4640793   -2.5517073   -9.2502186  
C    0.2090093   -1.1710698   -9.5872869  
C    0.1601877   -1.1048867  -11.0603881  
N    0.3787267   -2.3885181  -11.5047082  
C   -0.0606684    0.0292483  -11.7721916  
C   -0.2636270    1.2673951  -11.0384793  
O   -0.4695782    2.3414146  -11.5883571  
C   -0.2158398    1.2207100   -9.4779199  
O   -0.3850107    2.2568687   -8.8494157  
C    0.0298374   -0.0618533   -8.8233015  
H    0.5633488   -2.9677861   -8.2634870  
H   -0.0927176    0.0560623  -12.8525453  
H    0.7400928   -4.2842086  -10.5820159  
H    0.4030034   -2.6681872  -12.4681626  
C    2.5185220   -2.1418782   -5.7664424  
C    2.0285782   -1.7344766   -6.9604095  
C    0.9435063   -0.8236411   -6.6295061  
C    0.9168306   -0.7971604   -5.1512739  
N    1.8378571   -1.5679055   -4.6397540  
C   -0.0307352   -0.0004646   -4.4215603  
C   -0.9113598    0.7365842   -5.1361191  
O   -1.8501208    1.5254492   -4.5861545  
C   -0.9094201    0.7313057   -6.6288110  
O   -1.7398704    1.4264151   -7.2139569  
C    0.0724715   -0.0942327   -7.3542764  
H    2.3623455   -2.0170710   -7.9441861  
H   -2.3197100    1.9176027   -5.3443463  
H    3.3327631   -2.8241128   -5.5805892  
C    3.2573670   -0.0002920   -1.5109380  
C    2.5379468   -0.0001709   -0.3591961  
C    1.1435043    0.0000332   -0.7338500  
C    1.1092609   -0.0000082   -2.2088477  
N    2.4227562    0.0001909   -2.6182613  
C   -0.0265532   -0.0002522   -2.9515663  
C   -1.3003035   -0.0002639   -2.2514981  
O   -2.3786784   -0.0004131   -2.8306429  
C   -1.2877725    0.0000312   -0.6895608  
O   -2.3539958    0.0003307   -0.0892036  
C    0.0000000    0.0000000    0.0000000  
H    2.9384091   -0.0000369    0.6389239  
H    4.3270394   -0.0004765   -1.6439446  
H    2.7280494   -0.0013406   -3.5742113  
C    2.5528530    2.1414826    2.8079335  
C    2.0663498    1.7338582    4.0032312  
C    0.9804344    0.8229586    3.6752840  
C    0.9495562    0.7966882    2.1971295  
N    1.8690446    1.5676019    1.6831036  
C    0.0000000    0.0000000    1.4700000  
C   -0.8785127   -0.7372425    2.1869543  
O   -1.8187535   -1.5261249    1.6395491  
C   -0.8723269   -0.7321790    3.6796354  
O   -1.7010379   -1.4274584    4.2670412  
C    0.1115397    0.0933559    4.4024240  
H    2.4028853    2.0163452    4.9860947  
H   -2.2861435   -1.9184361    2.3990168  
H    0.0832434    0.0693689    5.4835595  
H    3.3664920    2.8238276    2.6198634  
