60

C    1.1188647    0.0008220   -0.8003810  
C    0.0000000    0.0000000    0.0000000  
C   -1.1323857    0.0008906   -0.8673531  
C   -0.6382656    0.0019688   -2.1969283  
N    0.7324022    0.0038483   -2.1202241  
C   -1.4770910    0.0027330   -3.3154815  
C   -2.8395466    0.0020966   -3.0876864  
O   -3.7039193    0.0024451   -4.1440354  
C   -3.3517866    0.0013950   -1.7684337  
O   -4.7300490    0.0012388   -1.7073133  
C   -2.5248538    0.0009137   -0.6644825  
H   -1.1067557    0.0037002   -4.3313812  
H   -4.5940023    0.0021860   -3.7685143  
H   -4.9934602    0.0007284   -0.7819922  
H   -2.9462578    0.0005614    0.3339651  
H    2.1619898    0.0009347   -0.5342068  
C    4.5154620   -2.1146769   -2.8156723  
C    4.7985775   -1.6646945   -4.0652469  
C    3.7280659   -0.7729181   -4.4441602  
C    2.7913710   -0.7399863   -3.3047267  
N    3.3260543   -1.5745778   -2.3505461  
C    1.6478443   -0.0100099   -3.2703000  
C    1.3174733    0.7969146   -4.4331686  
O    0.3100037    1.4889664   -4.4992699  
C    2.2949966    0.7769793   -5.6513050  
O    2.0272083    1.4520889   -6.6360777  
C    3.4969333   -0.0492780   -5.5706859  
H    5.6590342   -1.9276282   -4.6543936  
H    4.1686932   -0.0573917   -6.4182684  
H    2.9164729   -1.7608871   -1.4535629  
C    6.4487530   -3.6606518   -2.2575779  
C    5.2792734   -3.0432592   -1.9699613  
C    4.9342688   -3.4979835   -0.6317921  
C    6.0350884   -4.4095504   -0.2525475  
N    6.9258784   -4.5088030   -1.2015637  
C    6.0663865   -5.0765622    1.0199311  
C    5.0446185   -4.8432141    1.8748425  
O    4.9451139   -5.3980651    3.0947930  
C    3.9193895   -3.9283003    1.5213556  
O    3.0227459   -3.7626641    2.3482867  
C    3.9101012   -3.2559491    0.2099507  
H    6.8831567   -5.7375844    1.2706217  
H    4.1156877   -5.0425541    3.4619668  
H    3.0772289   -2.6008770   -0.0078434  
H    7.0352613   -3.5853123   -3.1594122  
C    0.8400945    0.7047457    2.2710304  
C    0.0000000    0.0000000    1.4700000  
C   -0.8844236   -0.7423113    2.3369512  
C   -0.4878984   -0.4098547    3.7186280  
N    0.5629682    0.4714286    3.6095011  
C   -1.0836927   -0.9095027    4.8308716  
C   -2.1891196   -1.8367527    4.6554461  
O   -2.7906899   -2.3413415    5.5944904  
C   -2.6257283   -2.2031529    3.2011665  
O   -3.5549479   -2.9829990    3.0410059  
C   -1.9068976   -1.5999348    2.0816745  
H   -0.7774656   -0.6525820    5.8354244  
H   -2.2155208   -1.8586617    1.0779135  
H    1.6384792    1.3747609    1.9961646  
H    1.0518368    0.8833920    4.3830260  
