64

C    4.3849900   -2.1304618   -1.4422214  
C    3.1441139   -1.6666549   -1.8131356  
C    3.3426739   -0.7794831   -2.9122717  
C    4.7370041   -0.7414325   -3.1698023  
N    5.3406533   -1.5714197   -2.2580206  
C    5.2968250    0.0340154   -4.1896406  
C    4.4333178    0.7844919   -4.9637976  
O    4.9266820    1.5593197   -5.9733754  
C    3.0391174    0.7600316   -4.7220873  
O    2.3124332    1.5616242   -5.5780799  
C    2.4861704   -0.0045255   -3.7159919  
H    2.2107612   -1.9339278   -1.3479351  
H    6.3586912    0.0674737   -4.3909403  
H    4.1660274    1.9934379   -6.3810643  
H    1.3814038    1.4876304   -5.3471832  
H    4.6641030   -2.8147095   -0.6593677  
C    7.6064301   -5.2883675   -1.4773558  
C    8.8679320   -4.7461348   -1.5613953  
C    8.7061592   -3.3567218   -1.8406125  
C    7.3119461   -3.1069581   -1.9162023  
N    6.6732250   -4.3014212   -1.6927966  
C    6.7838482   -1.8390910   -2.1777620  
C    7.6795100   -0.8044525   -2.3661502  
O    7.2178822    0.4538495   -2.6241989  
C    9.0741900   -1.0338375   -2.2949752  
O    9.8350452    0.0975959   -2.5054564  
C    9.5958844   -2.2844125   -2.0372468  
H    9.7911994   -5.2858672   -1.4378653  
H    5.6780529   -4.4329295   -1.6749105  
H    7.9974380    1.0160836   -2.7214122  
H   10.7639916   -0.1441235   -2.4403767  
H   10.6687576   -2.4296170   -1.9888810  
H    7.2985276   -6.3013182   -1.2822006  
C    0.0000000    0.0000000    0.0000000  
C    1.0521669   -0.0011848   -0.8862341  
C    0.4917221   -0.0011931   -2.1979130  
C   -0.9187427    0.0003100   -2.0478683  
N   -1.1833170   -0.0009472   -0.7007915  
C   -1.7951698    0.0010259   -3.1372090  
C   -1.2375835    0.0005161   -4.4010425  
O   -2.0474208    0.0015256   -5.4997580  
C    0.1673584   -0.0013557   -4.5711962  
O    0.5673529   -0.0020659   -5.8915551  
C    1.0325773   -0.0023359   -3.4969890  
H    2.0953059   -0.0030542   -0.6200560  
H   -2.0989777    0.0102265   -0.2891825  
H   -2.8710930    0.0020274   -3.0295514  
H   -1.4634881    0.0006427   -6.2693593  
H    1.5290715   -0.0033076   -5.9180042  
C    3.2573670    0.0002920    2.9809380  
C    2.5379467    0.0001709    1.8291961  
C    1.1435042   -0.0000331    2.2038498  
C    1.1092607    0.0000083    3.6788474  
N    2.4227561   -0.0001909    4.0882609  
C   -0.0265533    0.0002524    4.4215661  
C   -1.3003036    0.0002640    3.7214979  
O   -2.3786784    0.0004133    4.3006425  
C   -1.2877726   -0.0000311    2.1595606  
O   -2.3539958   -0.0003306    1.5592035  
C    0.0000000    0.0000000    1.4700000  
H    2.9384090    0.0000368    0.8310761  
H   -0.0296291    0.0004086    5.5027230  
H    4.3270393    0.0004765    3.1139444  
H    2.7280493    0.0013407    5.0442112  
