58

C    1.1319248    0.0015676   -0.8009264  
C    0.7969916    0.0034960   -2.1169399  
C   -0.6453338    0.0035697   -2.1842669  
C   -1.1266832    0.0015408   -0.7896028  
N    0.0000000    0.0000000    0.0000000  
C   -2.4346133    0.0013914   -0.4276295  
C   -3.4350114    0.0031336   -1.4820180  
O   -4.6384612    0.0030875   -1.2583916  
C   -2.9478959    0.0050442   -2.9661077  
O   -3.7809376    0.0062135   -3.8623778  
C   -1.5113822    0.0053056   -3.2312124  
H    1.4821237    0.0045436   -2.9459189  
H   -2.7664564    0.0000174    0.6013440  
H    2.1104316    0.0009435   -0.3488055  
C   -0.0314511   -0.6768997   -5.1763403  
C   -1.0641735    0.0073884   -4.6315337  
C   -1.6445842    0.7536296   -5.7373126  
C   -0.8153932    0.3919060   -6.9070059  
N    0.1317520   -0.4464152   -6.5843234  
C   -1.0694267    0.9296198   -8.2152172  
C   -2.1049955    1.7893047   -8.3489091  
O   -2.4559516    2.3667292   -9.5105682  
C   -2.9604499    2.1736234   -7.1875921  
O   -3.8859683    2.9614356   -7.3824977  
C   -2.6795558    1.6085129   -5.8557990  
H   -3.2246978    2.9226232   -9.2888397  
H   -3.3225050    1.9119420   -5.0404604  
H    0.6531476   -1.3491381   -4.6840054  
C    0.8291067   -2.8470212   -9.6283689  
C    0.1155053   -1.9707250   -8.8837496  
C    0.2437850   -0.6980575   -9.5768308  
C    1.0913319   -0.9969357  -10.7511046  
N    1.4374625   -2.2550764  -10.7866779  
C    1.4564696    0.0154942  -11.7033370  
C    0.9955296    1.2694179  -11.4922832  
O    1.2578906    2.3113106  -12.2995426  
C    0.1379422    1.6024752  -10.3167925  
O   -0.2456627    2.7649481  -10.1874696  
C   -0.2227558    0.5464488   -9.3541763  
H   -0.4305706   -2.1640981   -7.9762896  
H    2.0772849   -0.2310500  -12.5522865  
H    0.7953512    3.0647431  -11.8902138  
H    0.9821859   -3.8995192   -9.4500766  
C    2.4951002    2.0940188    2.9809380  
C    1.9440701    1.6314916    1.8291961  
C    0.8759964    0.7350050    2.2038498  
C    0.8497377    0.7130254    3.6788474  
N    1.8560616    1.5571714    4.0882609  
C   -0.0205033   -0.0168748    4.4215661  
C   -0.9962600   -0.8356168    3.7214979  
O   -1.8224391   -1.5286685    4.3006425  
C   -0.9864710   -0.8277881    2.1595606  
O   -1.8030528   -1.5133726    1.5592035  
C    0.0000000    0.0000000    1.4700000  
H    2.2509283    1.8888011    0.8310761  
H   -0.0229599   -0.0187323    5.5027230  
H    3.3143982    2.7817323    3.1139444  
H    2.0889452    1.7545833    5.0442112  
