62

C   -3.8806665    2.9507169   -1.4420380  
C   -2.7551687    2.2520642   -1.8129921  
C   -3.1242330    1.4213273   -2.9122050  
C   -4.4988329    1.6581329   -3.1697387  
N   -4.9275639    2.5905122   -2.2578854  
C   -5.2001481    1.0079489   -4.1896439  
C   -4.5010017    0.1024362   -4.9638655  
O   -5.1370356   -0.5602051   -5.9735104  
C   -3.1292000   -0.1476681   -4.7221533  
O   -2.5742540   -1.0763965   -5.5782143  
C   -2.4367654    0.4931902   -3.7159918  
H   -1.7874958    2.3306079   -1.3477688  
H   -5.8580708    2.9635151   -2.2030548  
H   -6.2478696    1.1838981   -4.3909470  
H   -4.4765524   -1.1353450   -6.3812363  
H   -1.6468491   -1.1868844   -5.3473114  
C    0.0000000    0.0000000    0.0000000  
C   -1.0314018    0.2080059   -0.8862340  
C   -0.4818919    0.0978367   -2.1979128  
C    0.9007536   -0.1809191   -2.0478684  
N    1.1604121   -0.2316984   -0.7007913  
C    1.7599370   -0.3539170   -3.1372090  
C    1.2133315   -0.2438022   -4.4010427  
O    2.0071673   -0.4039968   -5.4997578  
C   -0.1638260    0.0342294   -4.5711964  
O   -0.5558753    0.1135601   -5.8915552  
C   -1.0119682    0.2052831   -3.4969890  
H   -2.0538172    0.4149084   -0.6200559  
H    2.0560078   -0.4226628   -0.2891827  
H    2.8146677   -0.5664131   -3.0295513  
H    1.4348034   -0.2883361   -6.2693593  
H   -1.4985831    0.3038405   -5.9180045  
C   -4.0707044    3.9416381   -0.3729915  
C   -3.1681870    4.4182523    0.5227632  
C   -3.8638229    5.3716832    1.3545657  
C   -5.2555787    5.4117271    0.8665046  
N   -5.3151501    4.5225958   -0.1817255  
C   -6.2326419    6.1929981    1.3924963  
C   -5.8906267    7.0519126    2.5140250  
O   -6.7000799    7.7923018    3.0570810  
C   -4.4226363    7.0258434    3.0470635  
O   -4.1228130    7.7448821    3.9906471  
C   -3.4579706    6.1415559    2.3979815  
H   -2.1332070    4.1344585    0.5927021  
H   -7.2473758    6.2072686    1.0196408  
H   -2.4436772    6.1292603    2.7731908  
H   -6.1366528    4.3245668   -0.7229879  
C    0.0000000    0.0000000    1.4700000  
C    1.0541688    0.0001722    2.3260392  
C    0.5103138    0.0000454    3.6635956  
C   -0.9576371   -0.0002459    3.5155732  
N   -1.2018458    0.0001392    2.1615969  
C   -1.8348311   -0.0008317    4.5510609  
C   -1.2972847   -0.0009736    5.9014604  
O   -2.0050672   -0.0014265    6.9001319  
C    0.2542623   -0.0004184    6.0817573  
O    0.7184670   -0.0002256    7.2139121  
C    1.0974552   -0.0000873    4.8889129  
H    2.0940752    0.0005483    2.0517982  
H   -2.9081052   -0.0011668    4.4207061  
H    2.1707277    0.0000911    5.0223670  
H   -2.1128194   -0.0014912    1.7406791  
