60

C    3.2798085    0.0005856   -1.4499646  
C    2.5571146    0.0005565   -2.5996553  
C    1.1637436    0.0001548   -2.2210360  
C    1.1336964   -0.0000200   -0.7459468  
N    2.4483512   -0.0001429   -0.3402719  
C    0.0000000    0.0000000    0.0000000  
C   -1.2757371   -0.0000187   -0.6964415  
O   -2.3524597   -0.0000640   -0.1142312  
C   -1.2676493   -0.0000873   -2.2584081  
O   -2.3355761   -0.0004101   -2.8557295  
C    0.0181561    0.0001759   -2.9516296  
H    2.9547354    0.0006074   -3.5989104  
H    2.7563628    0.0012823    0.6148064  
C    5.6706443   -0.0002810   -2.2998281  
C    6.9366753   -0.0019086   -1.8086675  
C    6.8296111   -0.0021192   -0.3687464  
C    5.3870838   -0.0004983   -0.0590621  
N    4.7390846    0.0009612   -1.2727278  
C    4.8700558   -0.0005811    1.1956833  
C    5.7961359   -0.0021607    2.3159101  
O    5.4290412   -0.0023005    3.4836180  
C    7.3281297   -0.0036402    2.0112840  
O    8.1174222   -0.0046697    2.9463114  
C    7.7645007   -0.0036803    0.6172134  
H    7.8422126   -0.0026713   -2.3888524  
H    3.8085774    0.0004945    1.4010438  
H    8.8269286   -0.0049143    0.4148035  
H    5.3397992    0.0003324   -3.3257082  
C    0.8518586   -0.7041558   -5.2251424  
C    0.0139740    0.0003878   -4.4216236  
C   -0.8729886    0.7427330   -5.2859478  
C   -0.4803616    0.4105165   -6.6687949  
N    0.5709016   -0.4706743   -6.5627858  
C   -1.0793689    0.9102634   -7.7792669  
C   -2.1843874    1.8373743   -7.6005633  
O   -2.7886786    2.3420364   -8.5378201  
C   -2.6168947    2.2035197   -6.1449947  
O   -3.5457348    2.9832471   -5.9820786  
C   -1.8948201    1.6002144   -5.0276394  
H   -0.7759747    0.6535191   -8.7847240  
H   -2.2006131    1.8587647   -4.0229673  
H    1.6510908   -1.3741283   -4.9526460  
H    1.0576100   -0.8824758   -7.3377577  
C    0.0000000    0.0000000    1.4700000  
C    1.0521667    0.0011902    2.3562342  
C    0.4917218    0.0011957    3.6679131  
C   -0.9187428   -0.0003148    3.5178682  
N   -1.1833171    0.0009411    2.1707914  
C   -1.7951701   -0.0010350    4.6072090  
C   -1.2375837   -0.0005224    5.8710424  
O   -2.0474215   -0.0015360    6.9697579  
C    0.1673580    0.0013566    6.0411963  
O    0.5673524    0.0020687    7.3615553  
C    1.0325770    0.0023412    4.9669890  
H    2.0953057    0.0030649    2.0900562  
H   -2.0989778   -0.0102372    1.7591824  
H   -2.8710934   -0.0020419    4.4995513  
H   -1.4634884   -0.0006497    7.7393593  
H    1.5290710    0.0033153    7.3880045  
H    2.1042148    0.0039609    5.1284455  
