58

C    6.7131192   -2.1208482   -1.5722849  
C    7.1855800   -2.9639646   -0.6183402  
C    8.6222417   -2.9961773   -0.7590605  
C    8.9503941   -2.0962415   -1.8812113  
N    7.7494116   -1.5977754   -2.3307254  
C   10.2080530   -1.8533019   -2.3295189  
C   11.3121319   -2.5230359   -1.6624335  
O   12.4810042   -2.3698769   -1.9919461  
C   10.9877921   -3.4806713   -0.4718276  
O   11.9090960   -4.0503417    0.0973256  
C    9.5923735   -3.6621554   -0.0797557  
H    6.5950497   -3.5020640    0.1016158  
H   10.4270849   -1.1894200   -3.1542583  
H    9.3762803   -4.3267298    0.7456945  
H    7.6423825   -0.9517766   -3.0911715  
C    4.1985321   -2.1423503   -1.2324138  
C    5.3247411   -1.7348290   -1.8626207  
C    4.8654767   -0.8236660   -2.8996152  
C    3.3948133   -0.7971457   -2.7478594  
N    2.9980294   -1.5681521   -1.7721028  
C    2.5562217   -0.0001543   -3.6003001  
C    3.1594330    0.7371395   -4.5604398  
O    2.5003404    1.5262936   -5.4258144  
C    4.6414696    0.7318287   -4.7384882  
O    5.1222596    1.4271711   -5.6332286  
C    5.4799812   -0.0940155   -3.8514684  
H    3.1964050    1.9185699   -5.9832782  
H    6.5493677   -0.0702011   -4.0129487  
H    4.1121688   -2.8248211   -0.4019035  
C    0.0000000    0.0000000    0.0000000  
C    1.0541688   -0.0001719   -0.8560391  
C    0.5103141   -0.0000449   -2.1935955  
C   -0.9576367    0.0002461   -2.0455733  
N   -1.2018459   -0.0001392   -0.6915970  
C   -1.8348306    0.0008319   -3.0810611  
C   -1.2972842    0.0009739   -4.4314605  
O   -2.0050664    0.0014267   -5.4301321  
C    0.2542628    0.0004190   -4.6117571  
O    0.7184677    0.0002263   -5.7439119  
C    1.0974556    0.0000880   -3.4189127  
H    2.0940752   -0.0005479   -0.5817978  
H   -2.9081050    0.0011669   -2.9507065  
H   -2.1128195    0.0014911   -0.2706793  
C    0.0000000    0.0000000    1.4700000  
C    1.0541688    0.0001722    2.3260392  
C    0.5103138    0.0000454    3.6635956  
C   -0.9576371   -0.0002459    3.5155732  
N   -1.2018458    0.0001392    2.1615969  
C   -1.8348311   -0.0008317    4.5510609  
C   -1.2972847   -0.0009736    5.9014604  
O   -2.0050672   -0.0014265    6.9001319  
C    0.2542623   -0.0004184    6.0817573  
O    0.7184670   -0.0002256    7.2139121  
C    1.0974552   -0.0000873    4.8889129  
H    2.0940752    0.0005483    2.0517982  
H   -2.9081052   -0.0011668    4.4207061  
H    2.1707277    0.0000911    5.0223670  
H   -2.1128194   -0.0014912    1.7406791  
