58

C    5.8009416   -1.0748218   -6.3406657  
C    6.7453476   -1.9482424   -5.9055696  
C    7.6093072   -2.2278309   -7.0281744  
C    7.0870944   -1.4400298   -8.1610697  
N    5.9904221   -0.7637061   -7.6785908  
C    7.6288299   -1.4302445   -9.4053100  
C    8.8045671   -2.2505267   -9.6447160  
O    9.3655779   -2.3096136  -10.7310282  
C    9.3744802   -3.0931663   -8.4594053  
O   10.3637976   -3.7878187   -8.6490672  
C    8.7038989   -3.0213391   -7.1636381  
H    6.8272880   -2.3508641   -4.9116914  
H    7.2302865   -0.8450772  -10.2224099  
H    9.1048874   -3.6076575   -6.3480630  
H    5.4173071   -0.1386531   -8.2151492  
C    4.3913908   -0.7046356   -4.2635301  
C    3.2973506   -0.0000934   -3.8752374  
C    2.8435631    0.7418821   -5.0277932  
C    3.7695328    0.4094502   -6.1272744  
N    4.6845873   -0.4714996   -5.5986041  
C    3.6794133    0.9088342   -7.3859241  
C    2.5984069    1.8357540   -7.6770941  
O    2.4323272    2.3400895   -8.7799830  
C    1.6062045    2.2021224   -6.5276965  
O    0.6923299    2.9816918   -6.7608606  
C    1.8057156    1.5992068   -5.2121965  
H    4.3690173    0.6519371   -8.1779845  
H    1.1142469    1.8579095   -4.4218374  
H    5.0082524   -1.3743835   -3.6866344  
C    3.3321174    0.0004714   -1.3379332  
C    2.6974186    0.0000115   -2.5332308  
C    1.2800441   -0.0002119   -2.2052838  
C    1.2395035    0.0000643   -0.7271293  
N    2.4394063    0.0005458   -0.2131034  
C    0.0000000    0.0000000    0.0000000  
C   -1.1468701    0.0000634   -0.7169542  
O   -2.3742201    0.0000072   -0.1695492  
C   -1.1388767    0.0001606   -2.2096354  
O   -2.2206229    0.0000903   -2.7970413  
C    0.1454526    0.0001815   -2.9324239  
H   -2.9844344    0.0001023   -0.9290168  
H    0.1083580    0.0003680   -4.0135594  
H    4.3940040    0.0007617   -1.1498630  
C    2.5128556    2.1077716    2.9199648  
C    1.9592212    1.6432552    4.0696553  
C    0.8915788    0.7479214    3.6910360  
C    0.8684491    0.7287414    2.2159470  
N    1.8754542    1.5738793    1.8102719  
C    0.0000000    0.0000000    1.4700000  
C   -0.9772830   -0.8200135    2.1664417  
O   -1.8021297   -1.5120829    1.5842315  
C   -0.9711318   -0.8147624    3.7284083  
O   -1.7894187   -1.5009653    4.3257297  
C    0.0140216    0.0115358    4.4216297  
H    2.2638494    1.8988021    5.0689105  
H    0.0117648    0.0094386    5.5031631  
H    3.3327358    2.7953732    2.7900019  
H    2.1123206    1.7707734    0.8551938  
