60

C    0.0000000    0.0000000    0.0000000  
C    1.0521666   -0.0011903   -0.8862342  
C    0.4917221   -0.0011958   -2.1979133  
C   -0.9187425    0.0003147   -2.0478684  
N   -1.1833171   -0.0009412   -0.7007915  
C   -1.7951697    0.0010349   -3.1372093  
C   -1.2375833    0.0005223   -4.4010427  
O   -2.0474206    0.0015358   -5.4997581  
C    0.1673585   -0.0013568   -4.5711967  
O    0.5673528   -0.0020688   -5.8915550  
C    1.0325774   -0.0023413   -3.4969890  
H    2.0953060   -0.0030649   -0.6200559  
H   -2.0989774    0.0102371   -0.2891827  
H   -1.4634879    0.0006496   -6.2693593  
H    1.5290719   -0.0033154   -5.9180046  
H    2.1042151   -0.0039610   -3.6584456  
C   -3.2578649    0.0024037   -2.9908511  
C   -3.9809867    0.0031286   -1.8468784  
C   -5.3695592    0.0043912   -2.2808889  
C   -5.2983960    0.0043640   -3.7578856  
N   -4.0631136    0.0031208   -4.1798630  
C   -6.4794703    0.0054028   -4.5765119  
C   -7.6771912    0.0060335   -3.9481819  
O   -8.8597146    0.0070287   -4.5866792  
C   -7.7819054    0.0057080   -2.4591569  
O   -8.9049083    0.0064463   -1.9550895  
C   -6.5558058    0.0046819   -1.6414754  
H   -3.6170579    0.0027518   -0.8336497  
H   -9.5255205    0.0072465   -3.8754444  
H   -6.6744112    0.0043600   -0.5662256  
C   -3.7678911   -2.0899140   -7.3610080  
C   -4.4039780   -1.6271736   -6.2540572  
C   -5.4401063   -0.7298853   -6.7080912  
C   -5.3549261   -0.7076674   -8.1808577  
N   -4.3211455   -1.5524550   -8.5133054  
C   -6.1661149    0.0229514   -8.9870053  
C   -7.1913747    0.8422705   -8.3624308  
O   -7.9710003    1.5359856   -9.0021525  
C   -7.2995314    0.8342019   -6.8042131  
O   -8.1586340    1.5202672   -6.2670756  
C   -6.3684983    0.0056220   -6.0423175  
H   -4.1735211   -1.8848464   -5.2356724  
H   -6.0869451    0.0249719  -10.0652619  
H   -2.9413619   -2.7781799   -7.4319236  
H   -4.0168962   -1.7498871   -9.4489865  
C    3.2573670    0.0002920    2.9809380  
C    2.5379467    0.0001709    1.8291961  
C    1.1435042   -0.0000331    2.2038498  
C    1.1092607    0.0000083    3.6788474  
N    2.4227561   -0.0001909    4.0882609  
C   -0.0265533    0.0002524    4.4215661  
C   -1.3003036    0.0002640    3.7214979  
O   -2.3786784    0.0004133    4.3006425  
C   -1.2877726   -0.0000311    2.1595606  
O   -2.3539958   -0.0003306    1.5592035  
C    0.0000000    0.0000000    1.4700000  
H    2.9384090    0.0000368    0.8310761  
H   -0.0296291    0.0004086    5.5027230  
H    4.3270393    0.0004765    3.1139444  
H    2.7280493    0.0013407    5.0442112  
