58

C   -1.7856238    4.2864331    2.0598123  
C   -2.6346735    4.9132983    2.9143474  
C   -3.9705917    4.4900069    2.5665221  
C   -3.8292227    3.5584493    1.4311782  
N   -2.4803027    3.4784172    1.1725297  
C   -4.8653437    2.9383881    0.8117578  
C   -6.2094695    3.2065741    1.2954287  
O   -7.2081732    2.6971222    0.8041539  
C   -6.3826828    4.1900331    2.4965170  
O   -7.5095438    4.4237783    2.9122181  
C   -5.1897934    4.7969663    3.0817507  
H   -2.3568490    5.5946271    3.6987058  
H   -5.3183060    5.4766193    3.9131831  
H   -0.7108893    4.3469310    2.0034616  
H   -2.0643724    2.9176736    0.4516860  
C   -4.6947971    2.0138971   -0.3183440  
C   -3.5421862    1.6316857   -0.9158233  
C   -3.9514599    0.7140410   -1.9679274  
C   -5.4250718    0.6562916   -1.8596809  
N   -5.8665579    1.4162671   -0.8945302  
C   -6.2212658   -0.1556038   -2.7383085  
C   -5.5747442   -0.8767162   -3.6824171  
O   -6.1913473   -1.6769182   -4.5687122  
C   -4.0886060   -0.8392724   -3.8171447  
O   -3.5672064   -1.5214553   -4.6991819  
C   -3.2941076    0.0012878   -2.9038237  
H   -2.5382346    1.9350698   -0.6726877  
H   -7.2964342   -0.1789322   -2.6364322  
H   -5.4711325   -2.0523895   -5.1067314  
C    0.0000000    0.0000000    0.0000000  
C    1.0541688   -0.0001723   -0.8560392  
C    0.5103136   -0.0000455   -2.1935956  
C   -0.9576373    0.0002461   -2.0455730  
N   -1.2018460   -0.0001389   -0.6915968  
C   -1.8348314    0.0008319   -3.0810607  
C   -1.2972851    0.0009739   -4.4314603  
O   -2.0050676    0.0014268   -5.4301316  
C    0.2542619    0.0004184   -4.6117572  
O    0.7184666    0.0002257   -5.7439122  
C    1.0974551    0.0000873   -3.4189129  
H    2.0940752   -0.0005484   -0.5817983  
H    2.1707276   -0.0000912   -3.5523673  
H   -2.1128194    0.0014915   -0.2706789  
C    1.1319247   -0.0015655    2.2709268  
C    0.7969915   -0.0034943    3.5869401  
C   -0.6453339   -0.0035710    3.6542670  
C   -1.1266833   -0.0015433    2.2596025  
N    0.0000000    0.0000000    1.4700000  
C   -2.4346130   -0.0013964    1.8976294  
C   -3.4350110   -0.0031408    2.9520183  
O   -4.6384611   -0.0030974    2.7283916  
C   -2.9478959   -0.0050506    4.4361073  
O   -3.7809380   -0.0062218    5.3323774  
C   -1.5113823   -0.0053090    4.7012123  
H    1.4821238   -0.0045407    4.4159191  
H   -2.7664565   -0.0000232    0.8686553  
H   -1.1823530   -0.0068408    5.7314848  
H    2.1104316   -0.0009391    1.8188057  
