62

C   -3.2981802    0.1197741   -1.4738994  
C   -2.5216166    0.0916266   -2.6090752  
C   -1.1615424    0.0424995   -2.1820105  
C   -1.1704126    0.0426327   -0.7636143  
N   -2.4835240    0.0920801   -0.3662364  
C    0.0000000    0.0000000    0.0000000  
C    1.2012382   -0.0438675   -0.6806477  
O    2.3743329   -0.0869542    0.0157750  
C    1.2306661   -0.0443775   -2.0955507  
O    2.5038037   -0.0905230   -2.6250172  
C    0.0764280   -0.0020603   -2.8495194  
H   -2.8900525    0.1059776   -3.6205313  
H   -2.8020850    0.0933829    0.5858655  
H    3.0815135   -0.1124340   -0.6418812  
H    2.4344290   -0.0876433   -3.5845914  
H    0.1303726   -0.0034127   -3.9319085  
C   -5.6585878    0.2228488   -2.3673695  
C   -6.9361731    0.2806538   -1.8605161  
C   -6.8210631    0.2676994   -0.4388333  
C   -5.4374208    0.2008757   -0.1338847  
N   -4.7599024    0.1731429   -1.3275415  
C   -4.9525005    0.1713832    1.1771345  
C   -5.8812648    0.2103599    2.1989250  
O   -5.4623760    0.1844102    3.4977224  
C   -7.2660674    0.2767623    1.9147970  
O   -8.0634843    0.3086641    3.0401652  
C   -7.7451806    0.3056168    0.6216826  
H   -7.8399712    0.3254118   -2.4437306  
H   -3.8991995    0.1203342    1.4162010  
H   -6.2594620    0.2191421    4.0424357  
H   -8.9828806    0.3532255    2.7602927  
H   -5.3173636    0.2116987   -3.3883502  
C   -9.1915655    0.3745112    0.3684534  
C   -9.8522185    0.4111474   -0.8174093  
C  -11.2619915    0.4756697   -0.5121044  
C  -11.3692741    0.4736348    0.9593834  
N  -10.0791464    0.4105607    1.4331786  
C  -12.5392467    0.5255057    1.6450781  
C  -13.7753224    0.5872479    0.8829486  
O  -14.8798850    0.6367283    1.4081078  
C  -13.6854035    0.5902691   -0.6764456  
O  -14.7193938    0.6416789   -1.3287363  
C  -12.3664485    0.5313846   -1.3015393  
H   -9.4032158    0.3946521   -1.7945164  
H  -12.5959043    0.5231028    2.7247512  
H  -12.3128344    0.5340894   -2.3817442  
H   -9.8218820    0.3953239    2.4030398  
C    2.5128556    2.1077716    2.9199648  
C    1.9592212    1.6432552    4.0696553  
C    0.8915788    0.7479214    3.6910360  
C    0.8684491    0.7287414    2.2159470  
N    1.8754542    1.5738793    1.8102719  
C    0.0000000    0.0000000    1.4700000  
C   -0.9772830   -0.8200135    2.1664417  
O   -1.8021297   -1.5120829    1.5842315  
C   -0.9711318   -0.8147624    3.7284083  
O   -1.7894187   -1.5009653    4.3257297  
C    0.0140216    0.0115358    4.4216297  
H    2.2638494    1.8988021    5.0689105  
H    0.0117648    0.0094386    5.5031631  
H    3.3327358    2.7953732    2.7900019  
H    2.1123206    1.7707734    0.8551938  
