58

C    7.0850020   -1.9921905   -6.5255490  
C    8.1576797   -2.8241719   -6.4902730  
C    8.7391577   -2.8176439   -7.8118916  
C    7.9113968   -1.9071097   -8.6258506  
N    6.9255094   -1.4401184   -7.7874982  
C    8.1339040   -1.6297339   -9.9355299  
C    9.2639453   -2.2709399  -10.5869900  
O    9.5475435   -2.0859161  -11.7632707  
C   10.1539087   -3.2391814   -9.7442103  
O   11.1078975   -3.7850659  -10.2819606  
C    9.8141906   -3.4587041   -8.3405526  
H    8.5021619   -3.3792583   -5.6359753  
H    7.5146531   -0.9586565  -10.5144021  
H   10.4355100   -4.1303968   -7.7639115  
H    6.2027812   -0.7957693   -8.0511753  
C    6.1837013   -2.1071893   -4.1730104  
C    6.1473624   -1.6429265   -5.4486332  
C    5.0179317   -0.7478965   -5.5388751  
C    4.3948023   -0.7286186   -4.2016663  
N    5.1487785   -1.5734154   -3.4201754  
C    3.2973506   -0.0000934   -3.8752374  
C    2.6891815    0.8195676   -4.9100425  
O    1.6983688    1.5114227   -4.7152919  
C    3.3322637    0.8142072   -6.3334970  
O    2.8288284    1.5001137   -7.2128977  
C    4.5147646   -0.0118350   -6.5641428  
H    4.9540960   -0.0098156   -7.5524282  
H    6.8793285   -2.7945271   -3.7196252  
H    4.9752873   -1.7701682   -2.4515493  
C    3.3321174    0.0004714   -1.3379332  
C    2.6974186    0.0000115   -2.5332308  
C    1.2800441   -0.0002119   -2.2052838  
C    1.2395035    0.0000643   -0.7271293  
N    2.4394063    0.0005458   -0.2131034  
C    0.0000000    0.0000000    0.0000000  
C   -1.1468701    0.0000634   -0.7169542  
O   -2.3742201    0.0000072   -0.1695492  
C   -1.1388767    0.0001606   -2.2096354  
O   -2.2206229    0.0000903   -2.7970413  
C    0.1454526    0.0001815   -2.9324239  
H   -2.9844344    0.0001023   -0.9290168  
H    0.1083580    0.0003680   -4.0135594  
H    4.3940040    0.0007617   -1.1498630  
C    0.0000000    0.0000000    1.4700000  
C    1.0662921    0.0000102    2.3034270  
C    0.4961870   -0.0000064    3.6418889  
C   -0.9663858    0.0000850    3.4240247  
N   -1.2632773    0.0000084    2.1528658  
C   -1.8985362    0.0000517    4.5177257  
C   -1.3925775   -0.0004564    5.7720543  
O   -2.1456383   -0.0005410    6.8851312  
C    0.0786232   -0.0009323    6.0245000  
O    0.4683759   -0.0012588    7.1921102  
C    1.0143166   -0.0008442    4.8859032  
H    2.1107198   -0.0000632    2.0421868  
H   -2.9622183    0.0003270    4.3293377  
H   -1.5042274   -0.0009692    7.6184419  
H    2.0724152   -0.0013148    5.1109744  
