64

C    5.9071324   -2.1224385   -4.5070223  
C    5.7365515   -1.6242144   -5.7779050  
C    4.6105082   -0.7497128   -5.7346240  
C    4.1312171   -0.7540643   -4.3996377  
N    4.9399006   -1.5992754   -3.6811211  
C    3.0267438   -0.0008951   -3.9901699  
C    2.3947819    0.7709585   -4.9457033  
O    1.3115941    1.5260769   -4.5999943  
C    2.8578549    0.7882375   -6.2828947  
O    2.1221352    1.6061780   -7.1153807  
C    3.9472181    0.0452595   -6.6876135  
H    4.8491910   -1.7951602   -2.7006202  
H    1.0273566    1.9799842   -5.4040106  
H    2.5005421    1.5604818   -7.9987397  
H    4.2787225    0.0785432   -7.7188635  
H    6.6413440   -2.8106947   -4.1246680  
C    7.5798029   -5.4451615   -7.1894468  
C    6.8846656   -4.4987201   -6.4728564  
C    7.0331661   -3.2603945   -7.1650250  
C    7.8357337   -3.5152300   -8.3064583  
N    8.1519127   -4.8510354   -8.2899240  
C    8.1872331   -2.5184148   -9.2216619  
C    7.7197815   -1.2411367   -8.9803589  
O    8.0328053   -0.2301257   -9.8422678  
C    6.9180848   -0.9670078   -7.8468017  
O    6.5314733    0.3534596   -7.7456065  
C    6.5711555   -1.9498460   -6.9433660  
H    6.3387329   -4.6784902   -5.5625637  
H    8.7037132   -5.3254193   -8.9816315  
H    8.7987154   -2.7061372  -10.0934704  
H    7.6125880    0.5664865   -9.4928522  
H    5.9938777    0.4531647   -6.9539912  
H    7.7139651   -6.4967179   -7.0018596  
C    3.3003547    0.0005277   -1.4738986  
C    2.5232816    0.0003497   -2.6090746  
C    1.1623203   -0.0001319   -2.1820102  
C    1.1711884    0.0000584   -0.7636141  
N    2.4852301   -0.0014919   -0.3662359  
C    0.0000000    0.0000000    0.0000000  
C   -1.2020383    0.0000520   -0.6806479  
O   -2.3759248    0.0003493    0.0157745  
C   -1.2314655   -0.0005115   -2.0955511  
O   -2.5054388   -0.0008040   -2.6250184  
C   -0.0764513   -0.0007274   -2.8495195  
H    2.8036266    0.0088183    0.5858662  
H   -3.0835639    0.0000346   -0.6418822  
H   -2.4360043   -0.0011529   -3.5845924  
H   -0.1304091   -0.0013423   -3.9319089  
H    4.3715553    0.0004897   -1.3667133  
C    2.5128556    2.1077716    2.9199648  
C    1.9592212    1.6432552    4.0696553  
C    0.8915788    0.7479214    3.6910360  
C    0.8684491    0.7287414    2.2159470  
N    1.8754542    1.5738793    1.8102719  
C    0.0000000    0.0000000    1.4700000  
C   -0.9772830   -0.8200135    2.1664417  
O   -1.8021297   -1.5120829    1.5842315  
C   -0.9711318   -0.8147624    3.7284083  
O   -1.7894187   -1.5009653    4.3257297  
C    0.0140216    0.0115358    4.4216297  
H    2.2638494    1.8988021    5.0689105  
H    0.0117648    0.0094386    5.5031631  
H    3.3327358    2.7953732    2.7900019  
H    2.1123206    1.7707734    0.8551938  
