58

C    2.4602722   -2.0944457   -5.9392883  
C    1.9124734   -1.6318087   -4.7860506  
C    0.8432457   -0.7354858   -5.1577935  
C    0.8127886   -0.7137219   -6.6327135  
N    1.8180306   -1.5578237   -7.0448664  
C   -0.0596368    0.0159816   -7.3730582  
C   -1.0334827    0.8347250   -6.6703356  
O   -1.8613771    1.5276079   -7.2472273  
C   -1.0192491    0.8271226   -5.1084314  
O   -1.8341903    1.5127100   -4.5058520  
C   -0.0307352   -0.0004646   -4.4215603  
H    2.2221960   -1.8889422   -3.7887704  
H   -0.0651693    0.0176827   -8.4542048  
H    2.0482142   -1.7553499   -8.0014469  
C    4.2969465   -3.6315375   -5.1012304  
C    5.2654642   -4.4431050   -5.5986310  
C    5.1762026   -4.3718757   -7.0380037  
C    4.0683662   -3.4456216   -7.3405662  
N    3.5771664   -3.0322268   -6.1237190  
C    3.6658712   -3.1113273   -8.5927438  
C    4.3706815   -3.7034797   -9.7175250  
O    4.0835419   -3.4656300  -10.8834065  
C    5.5469470   -4.6873279   -9.4204617  
O    6.1475497   -5.1922894  -10.3593705  
C    5.8884376   -4.9699148   -8.0285636  
H    5.9627119   -5.0253572   -5.0229220  
H    2.8508643   -2.4296921   -8.7928636  
H    6.7042582   -5.6520336   -7.8313985  
H    4.0483209   -3.4210111   -4.0737315  
C    3.2573670   -0.0002920   -1.5109380  
C    2.5379468   -0.0001709   -0.3591961  
C    1.1435043    0.0000332   -0.7338500  
C    1.1092609   -0.0000082   -2.2088477  
N    2.4227562    0.0001909   -2.6182613  
C   -0.0265532   -0.0002522   -2.9515663  
C   -1.3003035   -0.0002639   -2.2514981  
O   -2.3786784   -0.0004131   -2.8306429  
C   -1.2877725    0.0000312   -0.6895608  
O   -2.3539958    0.0003307   -0.0892036  
C    0.0000000    0.0000000    0.0000000  
H    2.9384091   -0.0000369    0.6389239  
H    4.3270394   -0.0004765   -1.6439446  
H    2.7280494   -0.0013406   -3.5742113  
C    2.5128556    2.1077716    2.9199648  
C    1.9592212    1.6432552    4.0696553  
C    0.8915788    0.7479214    3.6910360  
C    0.8684491    0.7287414    2.2159470  
N    1.8754542    1.5738793    1.8102719  
C    0.0000000    0.0000000    1.4700000  
C   -0.9772830   -0.8200135    2.1664417  
O   -1.8021297   -1.5120829    1.5842315  
C   -0.9711318   -0.8147624    3.7284083  
O   -1.7894187   -1.5009653    4.3257297  
C    0.0140216    0.0115358    4.4216297  
H    2.2638494    1.8988021    5.0689105  
H    0.0117648    0.0094386    5.5031631  
H    3.3327358    2.7953732    2.7900019  
H    2.1123206    1.7707734    0.8551938  
