58

C    0.0139745    0.0003876   -4.4216234  
C    1.0657033    0.0015278   -5.2806576  
C    0.5180455    0.0012339   -6.6166615  
C   -0.9494779   -0.0001520   -6.4644638  
N   -1.1898330   -0.0010077   -5.1097987  
C   -1.8296141   -0.0004065   -7.4974520  
C   -1.2959123    0.0005364   -8.8493758  
O   -2.0065331    0.0003348   -9.8460287  
C    0.2551151    0.0017573   -9.0340854  
O    0.7160971    0.0022513  -10.1675562  
C    1.1016980    0.0022055   -7.8436445  
H    2.1063852    0.0022852   -5.0093767  
H   -2.9025128   -0.0013008   -7.3640443  
H   -2.0996068   -0.0004656   -4.6862904  
C    3.2798091    0.0005855   -1.4499643  
C    2.5571147    0.0005563   -2.5996547  
C    1.1637437    0.0001546   -2.2210360  
C    1.1336965   -0.0000200   -0.7459467  
N    2.4483515   -0.0001428   -0.3402712  
C    0.0000000    0.0000000    0.0000000  
C   -1.2757365   -0.0000187   -0.6964408  
O   -2.3524594   -0.0000640   -0.1142307  
C   -1.2676492   -0.0000875   -2.2584076  
O   -2.3355758   -0.0004103   -2.8557296  
C    0.0181565    0.0001757   -2.9516294  
H    2.9547358    0.0006072   -3.5989101  
H    4.3498554    0.0008610   -1.3200012  
H    2.7563628    0.0012824    0.6148069  
C    2.5599415    0.0036346   -8.0291812  
C    3.5421873    0.0040873   -7.0914883  
C    4.8004033    0.0056215   -7.7998139  
C    4.4682862    0.0060577   -9.2373429  
N    3.0943160    0.0044043   -9.3087057  
C    5.3847758    0.0078228  -10.2382155  
C    6.7922220    0.0091718   -9.8754094  
O    7.6935723    0.0107349  -10.7035795  
C    7.1669065    0.0084866   -8.3590268  
O    8.3485975    0.0093032   -8.0414299  
C    6.0900270    0.0068299   -7.3720222  
H    3.4013920    0.0032399   -6.0252847  
H    5.1199996    0.0082424  -11.2864541  
H    6.3578780    0.0065701   -6.3241767  
H    2.5617837    0.0058047  -10.1592671  
C    2.4951002    2.0940188    2.9809380  
C    1.9440701    1.6314916    1.8291961  
C    0.8759964    0.7350050    2.2038498  
C    0.8497377    0.7130254    3.6788474  
N    1.8560616    1.5571714    4.0882609  
C   -0.0205033   -0.0168748    4.4215661  
C   -0.9962600   -0.8356168    3.7214979  
O   -1.8224391   -1.5286685    4.3006425  
C   -0.9864710   -0.8277881    2.1595606  
O   -1.8030528   -1.5133726    1.5592035  
C    0.0000000    0.0000000    1.4700000  
H    2.2509283    1.8888011    0.8310761  
H   -0.0229599   -0.0187323    5.5027230  
H    3.3143982    2.7817323    3.1139444  
H    2.0889452    1.7545833    5.0442112  
