58

C   -0.2706015    0.1889450   -8.8157701  
C    0.5112013   -0.4698048   -9.7095862  
C    0.0558963   -0.0911943  -11.0264719  
C   -1.0632542    0.8488920  -10.8251504  
N   -1.2108698    0.9760178   -9.4631901  
C   -1.7645963    1.4354329  -11.8280428  
C   -1.3924931    1.1195881  -13.1971014  
O   -1.9631664    1.5963874  -14.1693638  
C   -0.2104655    0.1262958  -13.4337153  
O    0.1116595   -0.1474374  -14.5820034  
C    0.4696118   -0.4416310  -12.2723333  
H    1.3149837   -1.1441499   -9.4733550  
H   -2.5821242    2.1223773  -11.6587347  
H    1.2871483   -1.1283866  -12.4447400  
H   -1.8948393    1.5533600   -9.0094177  
C    2.3617618   -2.0132533   -6.1309085  
C    1.9111467   -1.6311559   -4.9133181  
C    0.8167583   -0.7132543   -5.1894898  
C    0.7423550   -0.6552467   -6.6651875  
N    1.6455070   -1.4153047   -7.2225185  
C   -0.2276462    0.1569486   -7.3467464  
C   -1.0846243    0.8781012   -6.5885501  
O   -2.0400761    1.6785704   -7.0909459  
C   -1.0349500    0.8404012   -5.0971505  
O   -1.8457778    1.5226373   -4.4707857  
C   -0.0307352   -0.0004646   -4.4215603  
H    2.2762460   -1.9347702   -3.9470904  
H   -2.4850415    2.0539986   -6.3097848  
H    3.1689151   -2.6915912   -6.3574800  
C    3.2573670   -0.0002920   -1.5109380  
C    2.5379468   -0.0001709   -0.3591961  
C    1.1435043    0.0000332   -0.7338500  
C    1.1092609   -0.0000082   -2.2088477  
N    2.4227562    0.0001909   -2.6182613  
C   -0.0265532   -0.0002522   -2.9515663  
C   -1.3003035   -0.0002639   -2.2514981  
O   -2.3786784   -0.0004131   -2.8306429  
C   -1.2877725    0.0000312   -0.6895608  
O   -2.3539958    0.0003307   -0.0892036  
C    0.0000000    0.0000000    0.0000000  
H    2.9384091   -0.0000369    0.6389239  
H    4.3270394   -0.0004765   -1.6439446  
H    2.7280494   -0.0013406   -3.5742113  
C    0.8175213    0.6860729    2.3021913  
C    0.0000000    0.0000000    1.4700000  
C   -0.8887526   -0.7456559    2.3478473  
C   -0.4549825   -0.3816753    3.7138435  
N    0.5448156    0.4573574    3.6934124  
C   -1.0945674   -0.9182058    4.8835240  
C   -2.1210866   -1.7789155    4.6970523  
O   -2.8083856   -2.3554314    5.6976972  
C   -2.5824069   -2.1655116    3.3310774  
O   -3.5227682   -2.9541547    3.2362962  
C   -1.9100805   -1.6015804    2.1470656  
H   -0.7567140   -0.6349833    5.8697035  
H   -3.4728268   -2.9124471    5.2533954  
H   -2.2742832   -1.9066565    1.1752040  
H    1.6189533    1.3585343    2.0405121  
