60

C    3.3041269    0.0001181   -1.5420435  
C    2.5845374   -0.0004780   -0.3695858  
C    1.2040005   -0.0000006   -0.7283589  
C    1.1422371    0.0006039   -2.1454373  
N    2.4348634    0.0026113   -2.6077468  
C   -0.0655187    0.0008799   -2.8497917  
C   -1.2321773    0.0002325   -2.1101393  
O   -2.4392817    0.0001147   -2.7472515  
C   -1.1911209   -0.0000006   -0.6955265  
O   -2.4371526   -0.0002320   -0.1032855  
C    0.0000000    0.0000000    0.0000000  
H    3.0031535   -0.0000658    0.6222581  
H   -0.1193554    0.0014847   -3.9297468  
H   -3.1132989   -0.0000648   -2.0551776  
H   -2.3200276   -0.0004072    0.8516410  
H    4.3686618    0.0004076   -1.7024298  
C    3.8860202   -0.7395022   -4.5524255  
C    3.9939094   -0.5373176   -5.8909157  
C    2.9441496    0.3812284   -6.2638940  
C    2.2105941    0.6999149   -5.0240854  
N    2.8310656   -0.0116215   -4.0232754  
C    1.1445011    1.5368001   -4.9549938  
C    0.6890259    2.1654510   -6.1837637  
O   -0.2623541    2.9344952   -6.2255529  
C    1.4508803    1.8421335   -7.5084708  
O    1.0763526    2.3652242   -8.5493196  
C    2.5861423    0.9243305   -7.4567932  
H    4.7252832   -0.9811462   -6.5426234  
H    0.6206113    1.7571758   -4.0352746  
H    4.4883012   -1.3591726   -3.9080993  
C    3.7765355   -0.6189226   -9.0815076  
C    4.3863411   -0.5633705  -10.2935827  
C    4.3011275    0.8053705  -10.7453814  
C    3.5865924    1.5480121   -9.6895811  
N    3.2959769    0.6273878   -8.7093348  
C    3.3048585    2.8746227   -9.7389301  
C    3.7338226    3.6207682  -10.9101643  
O    3.5275168    4.8193199  -11.0487734  
C    4.4919074    2.8545132  -12.0406356  
O    4.8576871    3.4720895  -13.0316285  
C    4.7374640    1.4242578  -11.8735335  
H    4.8435049   -1.3872461  -10.8120848  
H    2.7796886    3.4002394   -8.9535423  
H    5.2631688    0.9011079  -12.6607252  
H    3.6375816   -1.4655215   -8.4289347  
C    0.0000000    0.0000000    1.4700000  
C    1.0541688    0.0001722    2.3260392  
C    0.5103138    0.0000454    3.6635956  
C   -0.9576371   -0.0002459    3.5155732  
N   -1.2018458    0.0001392    2.1615969  
C   -1.8348311   -0.0008317    4.5510609  
C   -1.2972847   -0.0009736    5.9014604  
O   -2.0050672   -0.0014265    6.9001319  
C    0.2542623   -0.0004184    6.0817573  
O    0.7184670   -0.0002256    7.2139121  
C    1.0974552   -0.0000873    4.8889129  
H    2.0940752    0.0005483    2.0517982  
H   -2.9081052   -0.0011668    4.4207061  
H    2.1707277    0.0000911    5.0223670  
H   -2.1128194   -0.0014912    1.7406791  
