58

C    2.5229107   -2.1069161   -5.8790356  
C    1.9659601   -1.6422910   -7.0270794  
C    0.8993074   -0.7471217   -6.6452951  
C    0.8803721   -0.7281566   -5.1701434  
N    1.8886141   -1.5732494   -4.7674571  
C    0.0139741    0.0003876   -4.4216236  
C   -0.9653704    0.8204008   -5.1151637  
O   -1.7886285    1.5123013   -4.5305094  
C   -0.9636625    0.8153756   -6.6771425  
O   -1.7837157    1.5015801   -7.2720346  
C    0.0195995   -0.0107210   -7.3732829  
H    0.0142656   -0.0084682   -8.4548052  
H    3.3432280   -2.7944520   -5.7515051  
H    2.1282169   -1.7702568   -3.8130851  
C    2.7566884   -3.2561798   -8.8183014  
C    3.0828802   -3.2501969  -10.1364966  
C    2.9082397   -1.8964163  -10.6072564  
C    2.4503095   -1.1085336   -9.4469408  
N    2.3784917   -1.9913471   -8.3941489  
C    2.1730208    0.2195066   -9.4804798  
C    2.3362894    0.9195561  -10.7437346  
O    2.1119483    2.1155437  -10.8763416  
C    2.8199767    0.1049394  -11.9856086  
O    2.9607918    0.6834823  -13.0545890  
C    3.0874474   -1.3221904  -11.8255696  
H    3.4084819   -4.0974855  -10.7132977  
H    1.8384064    0.7787054   -8.6177876  
H    3.4221987   -1.8789923  -12.6902293  
H    2.7605606   -4.0782214   -8.1210767  
C    3.2798085    0.0005853   -1.4499648  
C    2.5571144    0.0005562   -2.5996554  
C    1.1637436    0.0001546   -2.2210360  
C    1.1336965   -0.0000201   -0.7459470  
N    2.4483513   -0.0001430   -0.3402717  
C    0.0000000    0.0000000    0.0000000  
C   -1.2757367   -0.0000188   -0.6964414  
O   -2.3524597   -0.0000640   -0.1142313  
C   -1.2676494   -0.0000875   -2.2584081  
O   -2.3355762   -0.0004102   -2.8557294  
C    0.0181562    0.0001757   -2.9516296  
H    2.9547357    0.0006072   -3.5989105  
H    4.3498550    0.0008609   -1.3200021  
H    2.7563627    0.0012824    0.6148063  
C    2.5128556    2.1077716    2.9199648  
C    1.9592212    1.6432552    4.0696553  
C    0.8915788    0.7479214    3.6910360  
C    0.8684491    0.7287414    2.2159470  
N    1.8754542    1.5738793    1.8102719  
C    0.0000000    0.0000000    1.4700000  
C   -0.9772830   -0.8200135    2.1664417  
O   -1.8021297   -1.5120829    1.5842315  
C   -0.9711318   -0.8147624    3.7284083  
O   -1.7894187   -1.5009653    4.3257297  
C    0.0140216    0.0115358    4.4216297  
H    2.2638494    1.8988021    5.0689105  
H    0.0117648    0.0094386    5.5031631  
H    3.3327358    2.7953732    2.7900019  
H    2.1123206    1.7707734    0.8551938  
