58

C    3.2573672   -0.0002920   -1.5109380  
C    2.5379470   -0.0001710   -0.3591959  
C    1.1435044    0.0000331   -0.7338498  
C    1.1092609   -0.0000083   -2.2088475  
N    2.4227564    0.0001909   -2.6182609  
C   -0.0265532   -0.0002524   -2.9515660  
C   -1.3003037   -0.0002640   -2.2514978  
O   -2.3786783   -0.0004133   -2.8306423  
C   -1.2877723    0.0000311   -0.6895608  
O   -2.3539957    0.0003306   -0.0892035  
C    0.0000000    0.0000000    0.0000000  
H    2.9384091   -0.0000368    0.6389235  
H    2.7280494   -0.0013407   -3.5742112  
C    5.6506114    0.0009427   -0.6678802  
C    6.9152391    0.0026292   -1.1626405  
C    6.8040788    0.0026208   -2.6022513  
C    5.3606770    0.0008072   -2.9078302  
N    4.7161333   -0.0005436   -1.6923256  
C    4.8400806    0.0006555   -4.1610997  
C    5.7629700    0.0021685   -5.2839569  
O    5.3925554    0.0021018   -6.4506157  
C    7.2958242    0.0038490   -4.9836903  
O    8.0824545    0.0048244   -5.9209602  
C    7.7361592    0.0041354   -3.5908670  
H    7.8224240    0.0035686   -0.5850346  
H    3.7780229   -0.0005585   -4.3634388  
H    8.7991586    0.0055076   -3.3914806  
H    5.3226860    0.0004435    0.3589375  
C    2.4782023   -2.1081880   -5.8783641  
C    1.9212516   -1.6438943   -7.0265419  
C    0.8545983   -0.7486155   -6.6450160  
C    0.8356633   -0.7292248   -5.1698698  
N    1.8439055   -1.5742006   -4.7669391  
C   -0.0307352   -0.0004647   -4.4215603  
C   -1.0100801    0.8193479   -5.1153371  
O   -1.8333384    1.5114168   -4.5308820  
C   -1.0083720    0.8138718   -6.6773139  
O   -1.8284256    1.4999045   -7.2724039  
C   -0.0251096   -0.0124254   -7.3732162  
H    2.2230622   -1.8995542   -8.0266229  
H   -0.0304435   -0.0104847   -8.4547392  
H    3.2985198   -2.7956866   -5.7506350  
H    2.0835084   -1.7709325   -3.8125106  
C    2.5528530    2.1414826    2.8079335  
C    2.0663498    1.7338582    4.0032312  
C    0.9804344    0.8229586    3.6752840  
C    0.9495562    0.7966882    2.1971295  
N    1.8690446    1.5676019    1.6831036  
C    0.0000000    0.0000000    1.4700000  
C   -0.8785127   -0.7372425    2.1869543  
O   -1.8187535   -1.5261249    1.6395491  
C   -0.8723269   -0.7321790    3.6796354  
O   -1.7010379   -1.4274584    4.2670412  
C    0.1115397    0.0933559    4.4024240  
H    2.4028853    2.0163452    4.9860947  
H   -2.2861435   -1.9184361    2.3990168  
H    0.0832434    0.0693689    5.4835595  
H    3.3664920    2.8238276    2.6198634  
