62

C    3.3003532    0.0005276   -1.4739013  
C    2.5232795    0.0003498   -2.6090769  
C    1.1623181   -0.0001318   -2.1820113  
C    1.1711882    0.0000584   -0.7636154  
N    2.4852297   -0.0014919   -0.3662379  
C    0.0000000    0.0000000    0.0000000  
C   -1.2020392    0.0000521   -0.6806476  
O   -2.3759254    0.0003495    0.0157757  
C   -1.2314672   -0.0005110   -2.0955505  
O   -2.5054408   -0.0008034   -2.6250169  
C   -0.0764539   -0.0007270   -2.8495200  
H    2.8919929   -0.0005617   -3.6205325  
H    2.8036267    0.0088180    0.5858641  
H   -3.0835649    0.0000350   -0.6418804  
H   -2.4360080   -0.0011523   -3.5845910  
H   -0.1304124   -0.0013418   -3.9319091  
C    6.5323569    0.0028964   -4.4466921  
C    7.6043815    0.0022109   -3.6131227  
C    7.0889152    0.0013270   -2.2643717  
C    5.6181639    0.0015261   -2.3813380  
N    5.3453953    0.0028890   -3.7298502  
C    4.7630494    0.0004755   -1.3275437  
C    5.3290144   -0.0007200    0.0111936  
O    4.6424957   -0.0016578    1.0245992  
C    6.8840253   -0.0006991    0.1586604  
O    7.3720531   -0.0013932    1.2807519  
C    7.7018209    0.0002119   -1.0517370  
H    8.6382605    0.0024953   -3.9092793  
H    8.7776739    0.0000148   -0.9409948  
H    4.4257297    0.0017848   -4.1314226  
C    9.7697590    0.0045307   -7.4596814  
C    8.9688682    0.0053250   -8.5781818  
C    7.6172366    0.0049175   -8.1224504  
C    7.6560792    0.0041490   -6.7045588  
N    8.9782249    0.0019812   -6.3350410  
C    6.5012905    0.0038875   -5.9163632  
C    5.2851361    0.0047182   -6.5714551  
O    4.1262296    0.0048584   -5.8503793  
C    5.2258129    0.0051167   -7.9854204  
O    3.9409344    0.0055203   -8.4878454  
C    6.3646348    0.0051019   -8.7636306  
H    9.3161242    0.0049972   -9.5972042  
H    9.3166747    0.0115646   -5.3898737  
H    3.4048502    0.0051755   -6.4929340  
H    3.9900736    0.0057998   -9.4486732  
H    6.2878138    0.0052311   -9.8446385  
H   10.8429853    0.0041354   -7.3751591  
C    0.8400945    0.7047457    2.2710304  
C    0.0000000    0.0000000    1.4700000  
C   -0.8844236   -0.7423113    2.3369512  
C   -0.4878984   -0.4098547    3.7186280  
N    0.5629682    0.4714286    3.6095011  
C   -1.0836927   -0.9095027    4.8308716  
C   -2.1891196   -1.8367527    4.6554461  
O   -2.7906899   -2.3413415    5.5944904  
C   -2.6257283   -2.2031529    3.2011665  
O   -3.5549479   -2.9829990    3.0410059  
C   -1.9068976   -1.5999348    2.0816745  
H   -0.7774656   -0.6525820    5.8354244  
H   -2.2155208   -1.8586617    1.0779135  
H    1.6384792    1.3747609    1.9961646  
H    1.0518368    0.8833920    4.3830260  
