60

C    3.3003534    0.0005274   -1.4739007  
C    2.5232795    0.0003494   -2.6090763  
C    1.1623184   -0.0001321   -2.1820108  
C    1.1711881    0.0000583   -0.7636147  
N    2.4852294   -0.0014920   -0.3662374  
C    0.0000000    0.0000000    0.0000000  
C   -1.2020395    0.0000519   -0.6806471  
O   -2.3759253    0.0003495    0.0157761  
C   -1.2314670   -0.0005113   -2.0955500  
O   -2.5054410   -0.0008038   -2.6250164  
C   -0.0764538   -0.0007274   -2.8495193  
H    2.8919930   -0.0005622   -3.6205318  
H    2.8036263    0.0088181    0.5858648  
H   -3.0835646    0.0000348   -0.6418799  
H   -2.4360077   -0.0011529   -3.5845907  
H   -0.1304117   -0.0013424   -3.9319085  
C    6.4260906    0.0030627   -4.5098945  
C    7.5522563    0.0028886   -3.7593416  
C    7.0848206    0.0018023   -2.3816614  
C    5.6099745    0.0015407   -2.4884923  
N    5.2179684    0.0021959   -3.7336108  
C    4.7630492    0.0004753   -1.3275432  
C    5.3622555   -0.0006827   -0.1149899  
O    4.6953718   -0.0017513    1.0517601  
C    6.8483156   -0.0008253    0.0256720  
O    7.3251007   -0.0017844    1.1605269  
C    7.6953843    0.0003255   -1.1803121  
H    8.5739818    0.0033401   -4.0986817  
H    5.3903108   -0.0024424    1.7345566  
H    6.3446794    0.0037689   -5.5852290  
C   10.8194624    2.1438737   -3.3327139  
C   11.9389929    1.7354406   -2.6912996  
C   11.4687962    0.8234545   -1.6599432  
C    9.9997695    0.7975055   -1.8268884  
N    9.6132917    1.5695291   -2.8059718  
C    9.1522011   -0.0000271   -0.9838840  
C    9.7452652   -0.7383842   -0.0182556  
O    9.0770552   -1.5281442    0.8395413  
C   11.2253873   -0.7336721    0.1750787  
O   11.6967237   -1.4299816    1.0740873  
C   12.0732400    0.0927451   -0.7024769  
H   12.9580391    2.0180530   -2.8931723  
H    9.7672205   -1.9211390    1.4037932  
H   13.1408977    0.0684684   -0.5299943  
H   10.7418654    2.8271367   -4.1634389  
C    0.0000000    0.0000000    1.4700000  
C    1.0541688    0.0001722    2.3260392  
C    0.5103138    0.0000454    3.6635956  
C   -0.9576371   -0.0002459    3.5155732  
N   -1.2018458    0.0001392    2.1615969  
C   -1.8348311   -0.0008317    4.5510609  
C   -1.2972847   -0.0009736    5.9014604  
O   -2.0050672   -0.0014265    6.9001319  
C    0.2542623   -0.0004184    6.0817573  
O    0.7184670   -0.0002256    7.2139121  
C    1.0974552   -0.0000873    4.8889129  
H    2.0940752    0.0005483    2.0517982  
H   -2.9081052   -0.0011668    4.4207061  
H    2.1707277    0.0000911    5.0223670  
H   -2.1128194   -0.0014912    1.7406791  
