64

C    3.3041270    0.0001178   -1.5420432  
C    2.5845372   -0.0004779   -0.3695853  
C    1.2040007   -0.0000006   -0.7283591  
C    1.1422373    0.0006039   -2.1454374  
N    2.4348636    0.0026110   -2.6077466  
C   -0.0655186    0.0008800   -2.8497915  
C   -1.2321770    0.0002326   -2.1101397  
O   -2.4392818    0.0001149   -2.7472515  
C   -1.1911209   -0.0000006   -0.6955262  
O   -2.4371522   -0.0002319   -0.1032858  
C    0.0000000    0.0000000    0.0000000  
H    3.0031535   -0.0000661    0.6222580  
H    2.7054625   -0.0071097   -3.5745263  
H   -3.1132993   -0.0000646   -2.0551781  
H   -2.3200286   -0.0004070    0.8516413  
C    6.7068652   -0.0034178    1.2828889  
C    7.7136018   -0.0021475    0.3453677  
C    7.0885452   -0.0007420   -0.9367793  
C    5.6872999   -0.0009462   -0.7166943  
N    5.4901250   -0.0045361    0.6418810  
C    4.7577214    0.0005130   -1.7610465  
C    5.2516912    0.0025160   -3.0510726  
O    4.3881527    0.0043529   -4.1081026  
C    6.6464190    0.0023764   -3.2909673  
O    6.9801786    0.0041003   -4.6296031  
C    7.5640504    0.0006643   -2.2611726  
H    8.7687023   -0.0033295    0.5592768  
H    4.5960834    0.0050496    1.0985853  
H    4.9330445    0.0052560   -4.9058225  
H    7.9393885    0.0039071   -4.7039037  
H    8.6263216    0.0004197   -2.4757855  
H    6.7604653   -0.0050603    2.3581021  
C    0.6885576   -0.7240829   -5.1615361  
C    0.3679846   -0.5066242   -6.4630813  
C   -0.7389728    0.4203837   -6.4747896  
C   -1.0391596    0.7273897   -5.0632567  
N   -0.1387086    0.0017020   -4.3179679  
C   -2.0220479    1.5676167   -4.6513656  
C   -2.8389207    2.2124490   -5.6659812  
O   -3.7486839    2.9856886   -5.3962914  
C   -2.5388501    1.9016974   -7.1670460  
O   -3.2201592    2.4384509   -8.0301645  
C   -1.4526764    0.9788672   -7.4871439  
H    0.8516394   -0.9456596   -7.3174463  
H   -2.2256211    1.7792486   -3.6108468  
H   -1.2512191    0.7691660   -8.5288562  
H    1.4594109   -1.3536536   -4.7476336  
C    0.8576279    0.7185626    2.2703808  
C    0.0000000    0.0000000    1.4700000  
C   -0.8668858   -0.7285659    2.3373528  
C   -0.4876752   -0.4117774    3.6669281  
N    0.5635254    0.4678311    3.5902241  
C   -1.1297612   -0.9515493    4.7854808  
C   -2.1738724   -1.8268314    4.5576857  
O   -2.8357962   -2.3827064    5.6140350  
C   -2.5667212   -2.1555554    3.2384331  
O   -3.6226318   -3.0413663    3.1773122  
C   -1.9335634   -1.6236449    2.1344818  
H    1.0363952    0.8769718    4.3757045  
H   -0.8454472   -0.7142436    5.8013813  
H   -3.5178062   -2.9546422    5.2385129  
H   -3.8247440   -3.2102924    2.2519915  
H   -2.2566033   -1.8942483    1.1360343  
H    1.6567807    1.3889844    2.0042067  
