64

C   -4.5382365    2.1274889   -0.3187875  
C   -3.4269604    1.6643335   -0.9843852  
C   -3.8900485    0.7769750   -2.0006252  
C   -5.3047950    0.7381440   -1.9062261  
N   -5.6653104    1.5678664   -0.8736537  
C   -6.0984770   -0.0376825   -2.7564914  
C   -5.4522273   -0.7877422   -3.7197930  
O   -6.1789762   -1.5629116   -4.5765088  
C   -4.0415022   -0.7625026   -3.8294924  
O   -3.5480069   -1.5637590   -4.8383503  
C   -3.2578655    0.0024282   -2.9908505  
H   -2.4078388    1.9321496   -0.7637973  
H   -6.6070985    1.7501463   -0.5773607  
H   -7.1771659   -0.0717352   -2.6896158  
H   -5.5421674   -1.9966438   -5.1592758  
H   -2.5888323   -1.4892410   -4.8442647  
C   -1.4659831    4.3146309    1.9913099  
C   -2.3213729    4.9616108    2.8528159  
C   -3.6451107    4.5599867    2.5049418  
C   -3.5338518    3.6592961    1.4148480  
N   -2.1974128    3.5340386    1.1269976  
C   -4.6443825    3.0616790    0.8112218  
C   -5.8898979    3.3788507    1.3174537  
O   -7.0079431    2.8234028    0.7656683  
C   -6.0213908    4.2756347    2.4043332  
O   -7.3276082    4.4900915    2.7931109  
C   -4.9262792    4.8657799    3.0001397  
H   -2.0274918    5.6404733    3.6349757  
H   -1.8111000    2.9516277    0.4062056  
H   -7.7597537    3.1736846    1.2609943  
H   -7.3278134    5.1068346    3.5315098  
H   -5.0581803    5.5489359    3.8310307  
H   -0.3920965    4.3493314    1.9240626  
C    0.0000000    0.0000000    0.0000000  
C    1.0521666   -0.0011982   -0.8862343  
C    0.4917215   -0.0011996   -2.1979132  
C   -0.9187429    0.0003215   -2.0478682  
N   -1.1833171   -0.0009323   -0.7007913  
C   -1.7951703    0.0010483   -3.1372089  
C   -1.2375841    0.0005313   -4.4010422  
O   -2.0474218    0.0015510   -5.4997578  
C    0.1673576   -0.0013585   -4.5711963  
O    0.5673520   -0.0020735   -5.8915554  
C    1.0325768   -0.0023493   -3.4969892  
H    2.0953056   -0.0030808   -0.6200564  
H   -2.0989778    0.0102529   -0.2891822  
H   -1.4634888    0.0006601   -6.2693595  
H    1.5290707   -0.0033271   -5.9180047  
H    2.1042146   -0.0039770   -3.6584456  
C    1.1319247   -0.0015655    2.2709268  
C    0.7969915   -0.0034943    3.5869401  
C   -0.6453339   -0.0035710    3.6542670  
C   -1.1266833   -0.0015433    2.2596025  
N    0.0000000    0.0000000    1.4700000  
C   -2.4346130   -0.0013964    1.8976294  
C   -3.4350110   -0.0031408    2.9520183  
O   -4.6384611   -0.0030974    2.7283916  
C   -2.9478959   -0.0050506    4.4361073  
O   -3.7809380   -0.0062218    5.3323774  
C   -1.5113823   -0.0053090    4.7012123  
H    1.4821238   -0.0045407    4.4159191  
H   -2.7664565   -0.0000232    0.8686553  
H   -1.1823530   -0.0068408    5.7314848  
H    2.1104316   -0.0009391    1.8188057  
