58

C    4.3050459   -2.1060740   -1.2837810  
C    5.3776645   -1.6422076   -1.9754406  
C    4.8702536   -0.7476998   -2.9889620  
C    3.4035843   -0.7282959   -2.8299158  
N    3.1252155   -1.5725290   -1.7798346  
C    2.5562222   -0.0001542   -3.6002998  
C    3.1268018    0.8189313   -4.6567435  
O    2.4473032    1.5104103   -5.4040310  
C    4.6775909    0.8134279   -4.8433703  
O    5.1694184    1.4988513   -5.7296888  
C    5.4870244   -0.0121649   -3.9505853  
H    6.4068566   -1.8976656   -1.7962253  
H    6.5600149   -0.0102480   -4.0862800  
H    4.2772020   -2.7929719   -0.4535483  
H    2.2066514   -1.7690685   -1.4267622  
C    0.0000000    0.0000000    0.0000000  
C    1.0541691   -0.0001719   -0.8560389  
C    0.5103143   -0.0000448   -2.1935953  
C   -0.9576364    0.0002464   -2.0455731  
N   -1.2018458   -0.0001389   -0.6915972  
C   -1.8348303    0.0008322   -3.0810611  
C   -1.2972837    0.0009745   -4.4314603  
O   -2.0050658    0.0014276   -5.4301322  
C    0.2542633    0.0004194   -4.6117570  
O    0.7184681    0.0002269   -5.7439118  
C    1.0974560    0.0000881   -3.4189126  
H    2.0940754   -0.0005481   -0.5817976  
H   -2.1128195    0.0014913   -0.2706792  
C   -3.2941065    0.0012879   -2.9038247  
C   -3.9928918    0.0012415   -1.7448258  
C   -5.3903265    0.0018082   -2.1493949  
C   -5.3503921    0.0022639   -3.6275656  
N   -4.1243028    0.0018810   -4.0755538  
C   -6.5485032    0.0028449   -4.4210498  
C   -7.7326787    0.0025762   -3.7675487  
O   -8.9284316    0.0030589   -4.3809133  
C   -7.8059014    0.0017441   -2.2766436  
O   -8.9180018    0.0016644   -1.7489567  
C   -6.5627955    0.0012029   -1.4850558  
H   -3.6076319    0.0007787   -0.7395147  
H   -6.4897365    0.0033759   -5.4996854  
H   -9.5790587    0.0026686   -3.6557672  
H   -6.6586509    0.0004897   -0.4075397  
C    1.0965515   -0.0001358    2.2710304  
C    0.0000000    0.0000000    1.4700000  
C   -1.1546562   -0.0001469    2.3369512  
C   -0.6372014   -0.0003519    3.7186280  
N    0.7342871   -0.0007337    3.6095011  
C   -1.4147739   -0.0001353    4.8308716  
C   -2.8576048    0.0001048    4.6554461  
O   -3.6427778    0.0002493    5.5944904  
C   -3.4275839    0.0000726    3.2011665  
O   -4.6406829   -0.0000333    3.0410059  
C   -2.4891866    0.0001091    2.0816745  
H   -1.0150448   -0.0001615    5.8354244  
H   -2.8919121    0.0002919    1.0779135  
H    2.1388271   -0.0000662    1.9961646  
H    1.3735872    0.0006099    4.3830260  
