58

C    0.5163337   -0.7047867   -5.2241140  
C   -0.2963289   -0.0005348   -4.3948470  
C   -1.2105192    0.7409700   -5.2310660  
C   -0.8613561    0.4085787   -6.6254800  
N    0.1932978   -0.4719007   -6.5523272  
C   -1.4953156    0.9075948   -7.7167101  
C   -2.5947747    1.8340477   -7.5036128  
O   -3.2285718    2.3380296   -8.4215491  
C   -2.9815338    2.2003648   -6.0352690  
O   -3.9053018    2.9795430   -5.8434493  
C   -2.2242841    1.5978720   -4.9409993  
H   -1.2235223    0.6507348   -8.7311368  
H   -2.4985003    1.8565365   -3.9272825  
H    1.3241786   -1.3741586   -4.9766922  
H    0.6556640   -0.8836281   -7.3421030  
C    3.1301148   -0.0010315   -1.7028253  
C    2.5367766   -0.0002767   -0.4864666  
C    1.1089903    0.0001025   -0.7656183  
C    1.0177867   -0.0004153   -2.2415131  
N    2.1993574   -0.0011616   -2.7963821  
C   -0.2459218   -0.0002884   -2.9257117  
C   -1.3675324   -0.0000610   -2.1698519  
O   -2.6129318    0.0000862   -2.6748483  
C   -1.3083588    0.0000908   -0.6783229  
O   -2.3693264    0.0004202   -0.0541688  
C    0.0000000    0.0000000    0.0000000  
H    3.0096015   -0.0001006    0.4807520  
H   -3.1967441    0.0002093   -1.8949029  
C    6.7235401   -0.0015095    0.8630511  
C    5.4473218   -0.0011277    0.3990034  
C    5.5236514   -0.0015789   -1.0428735  
C    6.9592461   -0.0022888   -1.3832524  
N    7.6329843   -0.0018118   -0.1836828  
C    7.4493961   -0.0032614   -2.6487391  
C    6.4996346   -0.0034075   -3.7489606  
O    6.8417407   -0.0041923   -4.9242320  
C    4.9744853   -0.0024128   -3.4117305  
O    4.1654296   -0.0022195   -4.3297119  
C    4.5679459   -0.0016858   -2.0086704  
H    4.5543634   -0.0004090    0.9983689  
H    8.5062542   -0.0038999   -2.8766909  
H    7.0761900   -0.0013785    1.8816424  
H    8.6315326   -0.0036620   -0.0839629  
C    2.4951002    2.0940188    2.9809380  
C    1.9440701    1.6314916    1.8291961  
C    0.8759964    0.7350050    2.2038498  
C    0.8497377    0.7130254    3.6788474  
N    1.8560616    1.5571714    4.0882609  
C   -0.0205033   -0.0168748    4.4215661  
C   -0.9962600   -0.8356168    3.7214979  
O   -1.8224391   -1.5286685    4.3006425  
C   -0.9864710   -0.8277881    2.1595606  
O   -1.8030528   -1.5133726    1.5592035  
C    0.0000000    0.0000000    1.4700000  
H    2.2509283    1.8888011    0.8310761  
H   -0.0229599   -0.0187323    5.5027230  
H    3.3143982    2.7817323    3.1139444  
H    2.0889452    1.7545833    5.0442112  
