60

C    3.3003542    0.0005276   -1.4738995  
C    2.5232807    0.0003499   -2.6090754  
C    1.1623196   -0.0001317   -2.1820105  
C    1.1711880    0.0000584   -0.7636143  
N    2.4852302   -0.0014919   -0.3662359  
C    0.0000000    0.0000000    0.0000000  
C   -1.2020385    0.0000520   -0.6806476  
O   -2.3759251    0.0003495    0.0157751  
C   -1.2314662   -0.0005111   -2.0955503  
O   -2.5054392   -0.0008035   -2.6250176  
C   -0.0764521   -0.0007270   -2.8495195  
H    2.8919946   -0.0005618   -3.6205304  
H    2.8036265    0.0088180    0.5858656  
H   -3.0835641    0.0000348   -0.6418810  
H   -2.4360054   -0.0011524   -3.5845918  
H    4.3715548    0.0004895   -1.3667143  
C   -0.1496421   -0.0015610   -4.3176959  
C    0.8738319   -0.0018368   -5.2031789  
C    0.2377927   -0.0026902   -6.5115958  
C   -1.2121187   -0.0029422   -6.2211808  
N   -1.4453520   -0.0022021   -4.9368174  
C   -2.1975674   -0.0037104   -7.2671140  
C   -1.7546887   -0.0038155   -8.5450789  
O   -2.5622342   -0.0045087   -9.6192803  
C   -0.2978817   -0.0031970   -8.8704617  
O    0.0332533   -0.0034571  -10.0560291  
C    0.6933411   -0.0024574   -7.7798648  
H    1.9299710   -0.0014123   -4.9942643  
H   -3.2505505   -0.0040854   -7.0259997  
H   -1.9581302   -0.0043718  -10.3836179  
C    3.1113614   -0.7274917   -7.5232197  
C    4.3177342   -0.5101155   -8.1075888  
C    4.0989094    0.4168289   -9.1928197  
C    2.6558205    0.7238877   -9.1927761  
N    2.1141613   -0.0017121   -8.1569193  
C    2.0484758    1.5640792  -10.0685130  
C    2.8709544    2.2088151  -11.0786517  
O    2.4179109    2.9820165  -11.9124460  
C    4.4015913    1.8980063  -11.0974363  
O    5.1040900    2.4346786  -11.9434498  
C    4.9406380    0.9752219  -10.1015700  
H    5.2540153   -0.9491657   -7.8122473  
H    0.9883798    1.7757509  -10.0511573  
H    6.0014615    0.7654807  -10.1212446  
H    2.8668763   -1.3569984   -6.6830784  
C    0.8681109    0.7263879    2.2709268  
C    0.6127770    0.5096195    3.5869401  
C   -0.4920590   -0.4175482    3.6542670  
C   -0.8620974   -0.7254003    2.2596025  
N    0.0000000    0.0000000    1.4700000  
C   -1.8641242   -1.5660088    1.8976294  
C   -2.6293522   -2.2103885    2.9520183  
O   -3.5512764   -2.9839180    2.7283916  
C   -2.2549728   -1.8987399    4.4361073  
O   -2.8923672   -2.4351063    5.3323774  
C   -1.1543735   -0.9755647    4.7012123  
H    1.1382914    0.9492124    4.4159191  
H   -2.1192137   -1.7782617    0.8686553  
H   -0.9013378   -0.7652422    5.7314848  
H    1.6172880    1.3558399    1.8188057  
