58

C   -1.7334743    0.0032012   -3.2500362  
C   -3.0913789    0.0089356   -3.2383138  
C   -3.5242735    0.0095213   -4.6157889  
C   -2.2984714    0.0035865   -5.4368640  
N   -1.2476716    0.0003564   -4.5487768  
C   -2.2819933    0.0018912   -6.7938572  
C   -3.5566202    0.0064255   -7.4923143  
O   -3.6472704    0.0054058   -8.7130029  
C   -4.8674175    0.0129935   -6.6428605  
O   -5.9464764    0.0171560   -7.2198150  
C   -4.7574435    0.0139935   -5.1862356  
H   -3.7182352    0.0125463   -2.3644428  
H   -5.6697447    0.0183489   -4.6053650  
H   -0.2773463   -0.0054386   -4.8046717  
C   -1.1319201    0.0037406   -0.8009269  
C   -0.7969996    0.0002417   -2.1169402  
C    0.6453097   -0.0065962   -2.1842670  
C    1.1266633   -0.0068250   -0.7896029  
N    0.0000000    0.0000000    0.0000000  
C    2.4345796   -0.0128091   -0.4276299  
C    3.4349582   -0.0192431   -1.4820191  
O    4.6383951   -0.0248411   -1.2583927  
C    2.9478397   -0.0188694   -2.9661079  
O    3.7808664   -0.0239456   -3.8623784  
C    1.5113404   -0.0123940   -3.2312126  
H    2.7664257   -0.0129916    0.6013439  
H    1.1823074   -0.0123833   -4.2614850  
H   -2.1104128    0.0089539   -0.3488057  
C   -1.0442672   -0.0042351   -7.5868872  
C    0.2452078   -0.0093078   -7.1610897  
C    1.0780216   -0.0140677   -8.3405954  
C    0.1614646   -0.0113034   -9.4967560  
N   -1.1103166   -0.0057369   -8.9719412  
C    0.5601130   -0.0139238  -10.7939746  
C    1.9871305   -0.0200895  -11.0698692  
O    2.4461725   -0.0229037  -12.2045824  
C    2.9759588   -0.0233580   -9.8607318  
O    4.1796487   -0.0288560  -10.0806415  
C    2.4264759   -0.0197840   -8.5072521  
H    0.5753023   -0.0098559   -6.1375414  
H   -0.1286486   -0.0116884  -11.6273491  
H    3.1178473   -0.0218757   -7.6755517  
H   -1.9561669   -0.0012004   -9.5119078  
C    2.3971438    2.0127888    3.1728260  
C    1.9431056    1.6308205    1.9564670  
C    0.8496017    0.7127664    2.2356185  
C    0.7794028    0.6545384    3.7115134  
N    1.6840587    1.4146091    4.2663826  
C   -0.1885723   -0.1578550    4.3957118  
C   -1.0476298   -0.8789867    3.6398520  
O   -2.0015663   -1.6796266    4.1448486  
C   -1.0022026   -0.8410666    2.1483229  
O   -1.8147390   -1.5232959    1.5241687  
C    0.0000000    0.0000000    1.4700000  
H    2.3054237    1.9346118    0.9892483  
H   -0.2170646   -0.1815267    5.4753125  
H   -2.4487139   -2.0549881    3.3649027  
H    3.2048689    2.6911772    3.3971983  
