58

C    2.1650273   -2.1089233   -5.9297627  
C    1.5723610   -1.6445171   -7.0598728  
C    0.5184577   -0.7489611   -6.6450207  
C    0.5459261   -0.7295304   -5.1700096  
N    1.5661290   -1.5747500   -4.7989578  
C   -0.2963289   -0.0005348   -4.3948470  
C   -1.2968014    0.8195076   -5.0575088  
O   -2.1010996    1.5117971   -4.4474759  
C   -1.3442157    0.8139937   -6.6187670  
O   -2.1824053    1.5002182   -7.1877959  
C   -0.3835308   -0.0125674   -7.3452199  
H    1.8425083   -1.9002766   -8.0689422  
H   -0.4228724   -0.0106511   -8.4260399  
H    2.9887832   -2.7966250   -5.8278714  
H    1.8355784   -1.7715193   -3.8525297  
C    3.1301148   -0.0010315   -1.7028253  
C    2.5367766   -0.0002767   -0.4864666  
C    1.1089903    0.0001025   -0.7656183  
C    1.0177867   -0.0004153   -2.2415131  
N    2.1993574   -0.0011616   -2.7963821  
C   -0.2459218   -0.0002884   -2.9257117  
C   -1.3675324   -0.0000610   -2.1698519  
O   -2.6129318    0.0000862   -2.6748483  
C   -1.3083588    0.0000908   -0.6783229  
O   -2.3693264    0.0004202   -0.0541688  
C    0.0000000    0.0000000    0.0000000  
H    3.0096015   -0.0001006    0.4807520  
H   -3.1967441    0.0002093   -1.8949029  
C    5.6039774   -0.0017522   -1.1379130  
C    4.5679459   -0.0016858   -2.0086704  
C    5.1852099   -0.0025566   -3.3260481  
C    6.6391261   -0.0029696   -3.0563966  
N    6.8907015   -0.0025818   -1.7754988  
C    7.6095171   -0.0038936   -4.1163145  
C    7.1484094   -0.0047718   -5.3878147  
O    7.9405118   -0.0056820   -6.4734544  
C    5.6870980   -0.0047557   -5.6923321  
O    5.3390440   -0.0054603   -6.8730428  
C    4.7115721   -0.0037546   -4.5876729  
H    8.6658404   -0.0039713   -3.8902820  
H    7.3255396   -0.0061836   -7.2290739  
H    3.6621307   -0.0038915   -4.8501668  
H    5.5656909   -0.0012540   -0.0601804  
C    2.3971438    2.0127888    3.1728260  
C    1.9431056    1.6308205    1.9564670  
C    0.8496017    0.7127664    2.2356185  
C    0.7794028    0.6545384    3.7115134  
N    1.6840587    1.4146091    4.2663826  
C   -0.1885723   -0.1578550    4.3957118  
C   -1.0476298   -0.8789867    3.6398520  
O   -2.0015663   -1.6796266    4.1448486  
C   -1.0022026   -0.8410666    2.1483229  
O   -1.8147390   -1.5232959    1.5241687  
C    0.0000000    0.0000000    1.4700000  
H    2.3054237    1.9346118    0.9892483  
H   -0.2170646   -0.1815267    5.4753125  
H   -2.4487139   -2.0549881    3.3649027  
H    3.2048689    2.6911772    3.3971983  
