62

C    1.1188649    0.0008223   -0.8003809  
C    0.0000000    0.0000000    0.0000000  
C   -1.1323859    0.0008898   -0.8673530  
C   -0.6382651    0.0019678   -2.1969287  
N    0.7324024    0.0038481   -2.1202242  
C   -1.4770903    0.0027319   -3.3154817  
C   -2.8395469    0.0020944   -3.0876865  
O   -3.7039190    0.0024425   -4.1440359  
C   -3.3517863    0.0013930   -1.7684340  
O   -4.7300491    0.0012365   -1.7073134  
C   -2.5248538    0.0009123   -0.6644826  
H   -1.1067558    0.0036986   -4.3313816  
H   -4.5940024    0.0021827   -3.7685147  
H   -4.9934598    0.0007262   -0.7819928  
H   -2.9462575    0.0005602    0.3339646  
H    2.1619898    0.0009355   -0.5342066  
C    4.5872068   -2.1313003   -2.8760565  
C    3.4257632   -1.6618669   -2.3075954  
C    2.8225616   -0.7845961   -3.2568814  
C    3.6683580   -0.7581070   -4.3952367  
N    4.7314860   -1.5851497   -4.1299508  
C    3.3837523    0.0055789   -5.5312702  
C    2.2240422    0.7559615   -5.5180177  
O    1.8977521    1.5195630   -6.6012814  
C    1.3675647    0.7429390   -4.3914764  
O    0.2523242    1.5428638   -4.5318413  
C    1.6478443   -0.0100100   -3.2702998  
H    3.0590290   -1.9191256   -1.3286585  
H    5.4907282   -1.7742962   -4.7590422  
H    1.0629731    1.9557297   -6.3864166  
H   -0.2722932    1.4770480   -3.7280697  
H    5.3248330   -2.8113800   -2.4857246  
C    5.7595638   -3.0002218   -7.8083575  
C    4.9453467   -2.4443449   -6.8811943  
C    4.8843564   -1.0339821   -7.2328423  
C    5.7438441   -0.9107998   -8.4297932  
N    6.2595616   -2.0601407   -8.7719055  
C    5.9486681    0.3473998   -9.0931689  
C    5.3229858    1.4331135   -8.5841684  
O    5.4245669    2.6692341   -9.1015932  
C    4.4488615    1.3410041   -7.3776924  
O    3.9109145    2.3701039   -6.9692964  
C    4.2546355    0.0390400   -6.7150533  
H    4.4475327   -2.9312577   -6.0601139  
H    6.5822409    0.4083653   -9.9659689  
H    4.8699103    3.2255648   -8.5253935  
H    6.0595688   -4.0323970   -7.8954470  
C    2.4951002    2.0940188    2.9809380  
C    1.9440701    1.6314916    1.8291961  
C    0.8759964    0.7350050    2.2038498  
C    0.8497377    0.7130254    3.6788474  
N    1.8560616    1.5571714    4.0882609  
C   -0.0205033   -0.0168748    4.4215661  
C   -0.9962600   -0.8356168    3.7214979  
O   -1.8224391   -1.5286685    4.3006425  
C   -0.9864710   -0.8277881    2.1595606  
O   -1.8030528   -1.5133726    1.5592035  
C    0.0000000    0.0000000    1.4700000  
H    2.2509283    1.8888011    0.8310761  
H   -0.0229599   -0.0187323    5.5027230  
H    3.3143982    2.7817323    3.1139444  
H    2.0889452    1.7545833    5.0442112  
