64

C    3.3041273    0.0001176   -1.5420427  
C    2.5845372   -0.0004779   -0.3695849  
C    1.2040006   -0.0000007   -0.7283585  
C    1.1422374    0.0006037   -2.1454371  
N    2.4348641    0.0026108   -2.6077464  
C   -0.0655184    0.0008796   -2.8497917  
C   -1.2321767    0.0002321   -2.1101399  
O   -2.4392811    0.0001142   -2.7472521  
C   -1.1911212   -0.0000007   -0.6955257  
O   -2.4371525   -0.0002322   -0.1032865  
C    0.0000000    0.0000000    0.0000000  
H    3.0031534   -0.0000661    0.6222587  
H   -0.1193542    0.0014840   -3.9297469  
H   -3.1132987   -0.0000651   -2.0551789  
H   -2.3200283   -0.0004071    0.8516414  
H    4.3686625    0.0004071   -1.7024291  
C    5.6718698   -2.1292828   -4.7374656  
C    5.4024582   -1.6450690   -5.9966009  
C    4.2795483   -0.7737663   -5.8761622  
C    3.9039369   -0.7655395   -4.5083999  
N    4.7686528   -1.6005165   -3.8453030  
C    2.8310666   -0.0116221   -4.0232749  
C    2.1246916    0.7480616   -4.9354657  
O    1.0681527    1.5033226   -4.5155603  
C    2.4839121    0.7526865   -6.3043179  
O    1.6833250    1.5594237   -7.0863533  
C    3.5420403    0.0089614   -6.7836551  
H    4.7540933   -1.7863153   -2.8587695  
H    0.7213551    1.9477939   -5.3000611  
H    1.9931415    1.5056035   -7.9955952  
H    3.7934487    0.0324028   -7.8375638  
H    6.4359577   -2.8111063   -4.4054340  
C    6.6304595   -3.2284447   -7.5345762  
C    7.2868567   -3.1688017   -8.7420750  
C    7.2060431   -1.8181876   -9.1936398  
C    6.4827974   -1.0936531   -8.2118606  
N    6.1466407   -1.9803299   -7.2191774  
C    6.2117883    0.2730837   -8.3275011  
C    6.6796727    0.9202602   -9.4546324  
O    6.4434660    2.2546432   -9.6178557  
C    7.4028925    0.2145252  -10.4454445  
O    7.8007215    0.9993816  -11.5080245  
C    7.6703836   -1.1338587  -10.3321508  
H    7.7641471   -3.9971198   -9.2371259  
H    5.6609880    0.8310085   -7.5828254  
H    6.8495069    2.5029777  -10.4585260  
H    8.2822225    0.4465207  -12.1310053  
H    8.2266521   -1.6476605  -11.1074258  
H    6.4678864   -4.0628434   -6.8740403  
C    2.4951002    2.0940188    2.9809380  
C    1.9440701    1.6314916    1.8291961  
C    0.8759964    0.7350050    2.2038498  
C    0.8497377    0.7130254    3.6788474  
N    1.8560616    1.5571714    4.0882609  
C   -0.0205033   -0.0168748    4.4215661  
C   -0.9962600   -0.8356168    3.7214979  
O   -1.8224391   -1.5286685    4.3006425  
C   -0.9864710   -0.8277881    2.1595606  
O   -1.8030528   -1.5133726    1.5592035  
C    0.0000000    0.0000000    1.4700000  
H    2.2509283    1.8888011    0.8310761  
H   -0.0229599   -0.0187323    5.5027230  
H    3.3143982    2.7817323    3.1139444  
H    2.0889452    1.7545833    5.0442112  
