60

C   -3.3003562   -0.0019863   -1.4738947  
C   -2.5232848   -0.0014650   -2.6090718  
C   -1.1623235   -0.0003819   -2.1820087  
C   -1.1711899   -0.0005760   -0.7636127  
N   -2.4852317    0.0003935   -0.3662329  
C    0.0000000    0.0000000    0.0000000  
C    1.2020371    0.0004793   -0.6806495  
O    2.3759233    0.0007007    0.0157714  
C    1.2314617    0.0010554   -2.0955526  
O    2.5054344    0.0019110   -2.6250211  
C    0.0764466    0.0007609   -2.8495197  
H   -2.8920006   -0.0007164   -3.6205269  
H   -2.8036222   -0.0100573    0.5858694  
H    3.0835619    0.0013281   -0.6418857  
H    2.4359992    0.0022293   -3.5845950  
H    0.1304040    0.0013996   -3.9319089  
C   -6.5908010   -0.0033253   -4.4182797  
C   -5.3731532   -0.0027736   -3.8171071  
C   -5.6071082   -0.0027888   -2.3922911  
C   -7.0713668   -0.0034283   -2.2113599  
N   -7.6095243   -0.0033309   -3.4775655  
C   -7.6973079   -0.0040281   -1.0072411  
C   -6.8738974   -0.0038186    0.1904780  
O   -7.3427959   -0.0042545    1.3211567  
C   -5.3209694   -0.0028912    0.0224952  
O   -4.6174375   -0.0024009    1.0236459  
C   -4.7630518   -0.0025808   -1.3275345  
H   -4.4198650   -0.0022162   -4.3149569  
H   -8.7727866   -0.0046216   -0.8965353  
H   -6.8296483   -0.0035115   -5.4693944  
C   -9.6490379   -0.7339847   -4.7985093  
C  -10.9897830   -0.5197242   -4.8223829  
C  -11.2870269    0.4072633   -3.7559987  
C  -10.0003206    0.7177430   -3.1042469  
N   -9.0474131   -0.0061189   -3.7831288  
C   -9.8561101    1.5589904   -2.0491589  
C  -11.0477332    2.2013340   -1.5200425  
O  -11.0220706    2.9752439   -0.5720413  
C  -12.4210008    1.8868886   -2.1946274  
O  -13.4311851    2.4215248   -1.7576469  
C  -12.4498150    0.9632628   -3.3259701  
H  -11.6905973   -0.9608645   -5.5085820  
H   -8.9030334    1.7731827   -1.5858266  
H  -13.4045928    0.7509983   -3.7875643  
H   -9.0498910   -1.3625436   -5.4371219  
C    0.0000000    0.0000000    1.4700000  
C    1.0541688    0.0001722    2.3260392  
C    0.5103138    0.0000454    3.6635956  
C   -0.9576371   -0.0002459    3.5155732  
N   -1.2018458    0.0001392    2.1615969  
C   -1.8348311   -0.0008317    4.5510609  
C   -1.2972847   -0.0009736    5.9014604  
O   -2.0050672   -0.0014265    6.9001319  
C    0.2542623   -0.0004184    6.0817573  
O    0.7184670   -0.0002256    7.2139121  
C    1.0974552   -0.0000873    4.8889129  
H    2.0940752    0.0005483    2.0517982  
H   -2.9081052   -0.0011668    4.4207061  
H    2.1707277    0.0000911    5.0223670  
H   -2.1128194   -0.0014912    1.7406791  
