58

C   -4.3121243    0.7376047   -7.5536240  
C   -5.5822576    0.5214316   -7.9826965  
C   -5.5013844   -0.4035607   -9.0884471  
C   -4.0697573   -0.7107850   -9.2696844  
N   -3.4023861    0.0128655   -8.3085206  
C   -3.5771571   -1.5494507  -10.2160933  
C   -4.5198882   -2.1922518  -11.1164261  
O   -4.1750982   -2.9639863  -12.0017784  
C   -6.0407210   -1.8812336  -10.9428125  
O   -6.8438244   -2.4162835  -11.6951462  
C   -6.4504861   -0.9602017   -9.8856250  
H   -6.4740296    0.9600509   -7.5716360  
H   -2.5233061   -1.7612754  -10.3320174  
H   -7.5053496   -0.7503030   -9.7719137  
H   -3.9641308    1.3655529   -6.7495889  
C   -1.0641738    0.0073911   -4.6315339  
C    0.2051247    0.0079407   -5.1010655  
C    0.0692337    0.0101851   -6.5495229  
C   -1.3902935    0.0106361   -6.7869342  
N   -2.0598289    0.0090850   -5.6663500  
C   -1.9455310    0.0127610   -8.1123753  
C   -1.0819577    0.0147513   -9.1533232  
O   -1.4606997    0.0168505  -10.4427384  
C    0.3963086    0.0147286   -8.9462286  
O    1.1228019    0.0164823   -9.9399214  
C    0.9412629    0.0124832   -7.5769427  
H    1.1205717    0.0070363   -4.5344694  
H   -0.6266011    0.0179439  -10.9461564  
H    2.0176805    0.0126570   -7.4694464  
C    1.1319245    0.0015656   -0.8009271  
C    0.7969914    0.0034943   -2.1169404  
C   -0.6453340    0.0035712   -2.1842672  
C   -1.1266833    0.0015434   -0.7896027  
N    0.0000000    0.0000000    0.0000000  
C   -2.4346131    0.0013965   -0.4276296  
C   -3.4350110    0.0031409   -1.4820182  
O   -4.6384610    0.0030975   -1.2583916  
C   -2.9478961    0.0050507   -2.9661073  
O   -3.7809383    0.0062220   -3.8623773  
C   -1.5113824    0.0053091   -3.2312124  
H    1.4821237    0.0045409   -2.9459193  
H   -2.7664564    0.0000233    0.6013449  
H    2.1104315    0.0009392   -0.3488061  
C    2.5528530    2.1414826    2.8079335  
C    2.0663498    1.7338582    4.0032312  
C    0.9804344    0.8229586    3.6752840  
C    0.9495562    0.7966882    2.1971295  
N    1.8690446    1.5676019    1.6831036  
C    0.0000000    0.0000000    1.4700000  
C   -0.8785127   -0.7372425    2.1869543  
O   -1.8187535   -1.5261249    1.6395491  
C   -0.8723269   -0.7321790    3.6796354  
O   -1.7010379   -1.4274584    4.2670412  
C    0.1115397    0.0933559    4.4024240  
H    2.4028853    2.0163452    4.9860947  
H   -2.2861435   -1.9184361    2.3990168  
H    0.0832434    0.0693689    5.4835595  
H    3.3664920    2.8238276    2.6198634  
