58

C    4.5587516    0.0005405   -6.6513177  
C    5.7275347   -0.6745306   -6.8006501  
C    6.2551558   -0.3210393   -8.0973754  
C    5.2910545    0.6220936   -8.6955388  
N    4.2857173    0.7747858   -7.7687862  
C    5.4293539    1.1892677   -9.9206480  
C    6.6061860    0.8478726  -10.7023467  
O    6.8214488    1.3059696  -11.8168454  
C    7.6402187   -0.1490892  -10.0886305  
O    8.6347250   -0.4442458  -10.7375526  
C    7.3818984   -0.6946770   -8.7584218  
H    6.1695267   -1.3438874   -6.0842585  
H    4.7104613    1.8788570  -10.3408509  
H    8.1028368   -1.3841358   -8.3405489  
H    3.4790376    1.3602220   -7.8853191  
C    4.5939379   -2.1037475   -2.7696727  
C    4.8996522   -1.6376004   -4.0079461  
C    3.8355764   -0.7416514   -4.3950537  
C    2.8780295   -0.7238871   -3.2727447  
N    3.3957275   -1.5703488   -2.3196540  
C    1.7334695    0.0049281   -3.2500363  
C    1.4239149    0.8265210   -4.4083521  
O    0.4172712    1.5187838   -4.4841266  
C    2.4237222    0.8227861   -5.6084260  
O    2.1735668    1.5103253   -6.5892280  
C    3.6246412   -0.0037449   -5.5162755  
H    5.7710263   -1.8924546   -4.5844616  
H    5.1430573   -2.7922317   -2.1481040  
H    2.9698478   -1.7683918   -1.4328324  
C    1.1319246    0.0015678   -0.8009268  
C    0.7969914    0.0034958   -2.1169401  
C   -0.6453340    0.0035696   -2.1842669  
C   -1.1266832    0.0015410   -0.7896025  
N    0.0000000    0.0000000    0.0000000  
C   -2.4346129    0.0013913   -0.4276292  
C   -3.4350111    0.0031335   -1.4820181  
O   -4.6384614    0.0030875   -1.2583914  
C   -2.9478961    0.0050442   -2.9661074  
O   -3.7809382    0.0062135   -3.8623773  
C   -1.5113825    0.0053055   -3.2312122  
H   -2.7664565    0.0000174    0.6013448  
H   -1.1823533    0.0068381   -4.2614848  
H    2.1104316    0.0009435   -0.3488059  
C    0.8400945    0.7047457    2.2710304  
C    0.0000000    0.0000000    1.4700000  
C   -0.8844236   -0.7423113    2.3369512  
C   -0.4878984   -0.4098547    3.7186280  
N    0.5629682    0.4714286    3.6095011  
C   -1.0836927   -0.9095027    4.8308716  
C   -2.1891196   -1.8367527    4.6554461  
O   -2.7906899   -2.3413415    5.5944904  
C   -2.6257283   -2.2031529    3.2011665  
O   -3.5549479   -2.9829990    3.0410059  
C   -1.9068976   -1.5999348    2.0816745  
H   -0.7774656   -0.6525820    5.8354244  
H   -2.2155208   -1.8586617    1.0779135  
H    1.6384792    1.3747609    1.9961646  
H    1.0518368    0.8833920    4.3830260  
