58

C   -4.3388783    0.7251099   -6.0538347  
C   -5.6792145    0.5083212   -6.0298472  
C   -5.9749305   -0.4184895   -7.0968102  
C   -4.6877726   -0.7261098   -7.7490256  
N   -3.7360896   -0.0009298   -7.0698328  
C   -4.5421927   -1.5663611   -8.8047192  
C   -5.7327139   -2.2105731   -9.3340450  
O   -5.7057875   -2.9837828  -10.2825822  
C   -7.1064364   -1.8991650   -8.6589772  
O   -8.1157027   -2.4353928   -9.0961270  
C   -7.1367590   -0.9763717   -7.5269937  
H   -6.3807196    0.9476760   -5.3432089  
H   -3.5888076   -1.7784487   -9.2683853  
H   -8.0918414   -0.7662137   -7.0650683  
H   -3.7407846    1.3543521   -5.4149076  
C   -0.2963294   -0.0005341   -4.3948471  
C    0.7407565   -0.0008427   -5.2643483  
C    0.1250898   -0.0009651   -6.5824732  
C   -1.3291522   -0.0008024   -6.3145845  
N   -1.5822800   -0.0004688   -5.0339928  
C   -2.2982584   -0.0008135   -7.3756780  
C   -1.8356090   -0.0005907   -8.6466189  
O   -2.6263952   -0.0005805   -9.7332184  
C   -0.3739301   -0.0003760   -8.9493653  
O   -0.0244449   -0.0003028  -10.1296537  
C    0.6002563   -0.0004129   -7.8435231  
H    1.7935279   -0.0008810   -5.0390757  
H   -2.0105073   -0.0003708  -10.4880914  
H    1.6500152   -0.0001373   -8.1047447  
C    3.1301143   -0.0010313   -1.7028257  
C    2.5367765   -0.0002767   -0.4864669  
C    1.1089900    0.0001027   -0.7656184  
C    1.0177864   -0.0004150   -2.2415133  
N    2.1993571   -0.0011613   -2.7963824  
C   -0.2459220   -0.0002879   -2.9257116  
C   -1.3675327   -0.0000606   -2.1698519  
O   -2.6129319    0.0000866   -2.6748482  
C   -1.3083588    0.0000910   -0.6783229  
O   -2.3693264    0.0004206   -0.0541685  
C    0.0000000    0.0000000    0.0000000  
H    3.0096014   -0.0001008    0.4807517  
H   -3.1967445    0.0002093   -1.8949025  
H    4.1849272   -0.0015113   -1.9271980  
C    2.5128556    2.1077716    2.9199648  
C    1.9592212    1.6432552    4.0696553  
C    0.8915788    0.7479214    3.6910360  
C    0.8684491    0.7287414    2.2159470  
N    1.8754542    1.5738793    1.8102719  
C    0.0000000    0.0000000    1.4700000  
C   -0.9772830   -0.8200135    2.1664417  
O   -1.8021297   -1.5120829    1.5842315  
C   -0.9711318   -0.8147624    3.7284083  
O   -1.7894187   -1.5009653    4.3257297  
C    0.0140216    0.0115358    4.4216297  
H    2.2638494    1.8988021    5.0689105  
H    0.0117648    0.0094386    5.5031631  
H    3.3327358    2.7953732    2.7900019  
H    2.1123206    1.7707734    0.8551938  
