58

C    0.8532103   -0.7025395   -5.2251466  
C    0.0139735    0.0003886   -4.4216231  
C   -0.8744136    0.7410332   -5.2859437  
C   -0.4811493    0.4095797   -6.6687925  
N    0.5718052   -0.4695906   -6.5627882  
C   -1.0811155    0.9081810   -7.7792619  
C   -2.1879133    1.8331660   -7.6005530  
O   -2.7931727    2.3366715   -8.5378062  
C   -2.6211229    2.1984714   -6.1449824  
O   -3.5514597    2.9764119   -5.9820615  
C   -1.8978910    1.5965482   -5.0276304  
H   -2.2041801    1.8545051   -4.0229567  
H    1.6537281   -1.3709767   -4.9526535  
H    1.0593038   -0.8804518   -7.3377627  
C    3.2798084    0.0005862   -1.4499651  
C    2.5571143    0.0005571   -2.5996555  
C    1.1637432    0.0001554   -2.2210362  
C    1.1336965   -0.0000198   -0.7459469  
N    2.4483512   -0.0001424   -0.3402720  
C    0.0000000    0.0000000    0.0000000  
C   -1.2757369   -0.0000185   -0.6964413  
O   -2.3524597   -0.0000641   -0.1142310  
C   -1.2676498   -0.0000869   -2.2584076  
O   -2.3355766   -0.0004097   -2.8557292  
C    0.0181558    0.0001765   -2.9516293  
H    2.9547351    0.0006082   -3.5989108  
H    4.3498545    0.0008619   -1.3200029  
H    2.7563630    0.0012825    0.6148063  
C    0.1828752   -2.8981969   -9.5673196  
C    0.4084480   -2.4842858  -10.8408459  
C    0.1135696   -1.0714433  -10.8827855  
C   -0.3052623   -0.6934579   -9.5195183  
N   -0.2419529   -1.8458347   -8.7705799  
C   -0.6679357    0.5598997   -9.1463324  
C   -0.6443992    1.6063987  -10.1547078  
O   -0.9534219    2.7668439   -9.9177013  
C   -0.2043433    1.2286336  -11.6050355  
O   -0.1809059    2.1012071  -12.4625477  
C    0.1643106   -0.1566244  -11.8861146  
H    0.7430327   -3.0986275  -11.6577013  
H    0.4680355   -0.4099142  -12.8927524  
H    0.2910417   -3.8835224   -9.1438534  
H   -0.4674720   -1.9117638   -7.7949562  
C    0.0000000    0.0000000    1.4700000  
C    1.0662921    0.0000102    2.3034270  
C    0.4961870   -0.0000064    3.6418889  
C   -0.9663858    0.0000850    3.4240247  
N   -1.2632773    0.0000084    2.1528658  
C   -1.8985362    0.0000517    4.5177257  
C   -1.3925775   -0.0004564    5.7720543  
O   -2.1456383   -0.0005410    6.8851312  
C    0.0786232   -0.0009323    6.0245000  
O    0.4683759   -0.0012588    7.1921102  
C    1.0143166   -0.0008442    4.8859032  
H    2.1107198   -0.0000632    2.0421868  
H   -2.9622183    0.0003270    4.3293377  
H   -1.5042274   -0.0009692    7.6184419  
H    2.0724152   -0.0013148    5.1109744  
