58

C    1.2484692   -1.0862737   -9.5068758  
C    0.7736688   -0.0084044   -8.8309793  
C    0.9030374    1.1299888   -9.7097054  
C    1.4963547    0.6233452  -10.9619339  
N    1.6817911   -0.7269208  -10.7740920  
C    1.7775281    1.3909476  -12.0451846  
C    1.4758531    2.8109109  -11.9728526  
O    1.6921449    3.5856679  -12.8954951  
C    0.8474253    3.3691594  -10.6563255  
O    0.5894069    4.5630607  -10.5836198  
C    0.5897644    2.4431794   -9.5563153  
H    2.2126505    0.9994236  -12.9541884  
H    0.1542984    2.8376270   -8.6482929  
H    1.3184745   -2.1128610   -9.1857733  
H    2.0700335   -1.3549773  -11.4536954  
C    1.9999918   -2.1070890   -5.1447766  
C    1.9105667   -1.6426495   -6.4177158  
C    0.7784254   -0.7475272   -6.4606980  
C    0.2115582   -0.7283877   -5.0986826  
N    0.9973786   -1.5733444   -4.3494008  
C   -0.8712826    0.0001710   -4.7267111  
C   -1.5219797    0.8200163   -5.7351666  
O   -2.5037637    1.5119151   -5.4992068  
C   -0.9387700    0.8148045   -7.1841813  
O   -1.4783591    1.5008668   -8.0417488  
C    0.2330300   -0.0112902   -7.4640108  
H    2.5631036   -1.8981143   -7.2335262  
H    2.7138547   -2.7945382   -4.7208625  
H    0.8643846   -1.7702172   -3.3744130  
C    1.0965514    0.0001359   -0.8010305  
C    0.0000000    0.0000000    0.0000000  
C   -1.1546563    0.0001470   -0.8669513  
C   -0.6372014    0.0003519   -2.2486282  
N    0.7342871    0.0007337   -2.1395014  
C   -1.4147739    0.0001352   -3.3608717  
C   -2.8576049   -0.0001048   -3.1854462  
O   -3.6427779   -0.0002494   -4.1244907  
C   -3.4275840   -0.0000725   -1.7311666  
O   -4.6406831    0.0000333   -1.5710060  
C   -2.4891867   -0.0001091   -0.6116744  
H   -2.8919122   -0.0002918    0.3920866  
H    2.1388272    0.0000663   -0.5261648  
H    1.3735872   -0.0006099   -2.9130262  
C    0.8175213    0.6860729    2.3021913  
C    0.0000000    0.0000000    1.4700000  
C   -0.8887526   -0.7456559    2.3478473  
C   -0.4549825   -0.3816753    3.7138435  
N    0.5448156    0.4573574    3.6934124  
C   -1.0945674   -0.9182058    4.8835240  
C   -2.1210866   -1.7789155    4.6970523  
O   -2.8083856   -2.3554314    5.6976972  
C   -2.5824069   -2.1655116    3.3310774  
O   -3.5227682   -2.9541547    3.2362962  
C   -1.9100805   -1.6015804    2.1470656  
H   -0.7567140   -0.6349833    5.8697035  
H   -3.4728268   -2.9124471    5.2533954  
H   -2.2742832   -1.9066565    1.1752040  
H    1.6189533    1.3585343    2.0405121  
