58

C    7.4293902   -0.7011394   -5.0762339  
C    8.7864613   -0.6948923   -5.0273032  
C    9.2110689    0.6593609   -5.2929017  
C    7.9813106    1.4472333   -5.5020500  
N    6.9363822    0.5639631   -5.3576557  
C    7.9569458    2.7756508   -5.7784847  
C    9.2266611    3.4761478   -5.8767868  
O    9.3101487    4.6724970   -6.1218994  
C   10.5415329    2.6615504   -5.6591915  
O   11.6165293    3.2404682   -5.7397958  
C   10.4400977    1.2339898   -5.3665605  
H    9.4179845   -1.5423030   -4.8280860  
H    7.0438288    3.3348343   -5.9282916  
H   11.3551666    0.6772038   -5.2170195  
H    6.7479808   -1.5235502   -4.9305946  
C    3.4106844   -0.7032174   -3.0670123  
C    2.4521483    0.0014840   -3.7217481  
C    3.1158562    0.7444933   -4.7668629  
C    4.5499140    0.4124939   -4.6666318  
N    4.6621248   -0.4692177   -3.6164497  
C    5.5136830    0.9128418   -5.4805768  
C    5.1117788    1.8404161   -6.5249017  
O    5.9049350    2.3456315   -7.3084583  
C    3.5983555    2.2063420   -6.6492183  
O    3.2480952    2.9864551   -7.5244335  
C    2.6531316    1.6023760   -5.7134677  
H    1.6070344    1.8607780   -5.8063812  
H    3.3081788   -1.3736416   -2.2292093  
H    5.5205794   -0.8810217   -3.2994003  
C    0.0000000    0.0000000    0.0000000  
C    1.0662923   -0.0000101   -0.8334270  
C    0.4961873    0.0000065   -2.1718887  
C   -0.9663854   -0.0000848   -1.9540250  
N   -1.2632773   -0.0000083   -0.6828660  
C   -1.8985359   -0.0000514   -3.0477261  
C   -1.3925770    0.0004566   -4.3020547  
O   -2.1456378    0.0005414   -5.4151314  
C    0.0786240    0.0009326   -4.5545000  
O    0.4683767    0.0012591   -5.7221100  
C    1.0143171    0.0008444   -3.4159031  
H    2.1107200    0.0000633   -0.5721865  
H   -2.9622181   -0.0003268   -2.8593381  
H   -1.5042265    0.0009697   -6.1484419  
C    3.2573670    0.0002920    2.9809380  
C    2.5379467    0.0001709    1.8291961  
C    1.1435042   -0.0000331    2.2038498  
C    1.1092607    0.0000083    3.6788474  
N    2.4227561   -0.0001909    4.0882609  
C   -0.0265533    0.0002524    4.4215661  
C   -1.3003036    0.0002640    3.7214979  
O   -2.3786784    0.0004133    4.3006425  
C   -1.2877726   -0.0000311    2.1595606  
O   -2.3539958   -0.0003306    1.5592035  
C    0.0000000    0.0000000    1.4700000  
H    2.9384090    0.0000368    0.8310761  
H   -0.0296291    0.0004086    5.5027230  
H    4.3270393    0.0004765    3.1139444  
H    2.7280493    0.0013407    5.0442112  
