64

C    2.3027755   -2.1230396   -5.9144744  
C    1.6515184   -1.6244168   -7.0188779  
C    0.6310524   -0.7498916   -6.5409088  
C    0.7085809   -0.7546403   -5.1246134  
N    1.7328874   -1.6001003   -4.7773237  
C   -0.1496415   -0.0015615   -4.3176961  
C   -1.1033075    0.7706086   -4.9520874  
O   -1.9667115    1.5256559   -4.2121874  
C   -1.1966333    0.7882862   -6.3641049  
O   -2.1980387    1.6065087   -6.8447736  
C   -0.3504838    0.0453975   -7.1607693  
H    2.0305490   -1.7962856   -3.8387663  
H   -2.5411491    1.9798214   -4.8422822  
H   -2.1929071    1.5610733   -7.8057700  
H   -0.4460584    0.0789894   -8.2397570  
H    3.1277800   -2.8114387   -5.8478920  
C    2.3252643   -3.1945681   -8.8792883  
C    2.5625563   -3.1252743  -10.2325654  
C    2.3420309   -1.7718255  -10.6251795  
C    1.9694345   -1.0555882   -9.4589464  
N    1.9672103   -1.9497154   -8.4172413  
C    1.6757044    0.3112802   -9.4724293  
C    1.7599326    0.9671214  -10.6852589  
O    1.4840233    2.3020375  -10.7551647  
C    2.1296251    0.2697439  -11.8599116  
O    2.1680266    1.0626660  -12.9882487  
C    2.4192729   -1.0787642  -11.8474006  
H    2.8571621   -3.9491414  -10.8598154  
H    1.3909862    0.8629065   -8.5870783  
H    1.6009369    2.5569699  -11.6796145  
H    2.4258484    0.5151233  -13.7361308  
H    2.6994212   -1.5860494  -12.7631827  
H    2.3817041   -4.0337794   -8.2073517  
C    3.3003543    0.0005276   -1.4738987  
C    2.5232814    0.0003497   -2.6090747  
C    1.1623200   -0.0001320   -2.1820103  
C    1.1711883    0.0000582   -0.7636140  
N    2.4852300   -0.0014919   -0.3662360  
C    0.0000000    0.0000000    0.0000000  
C   -1.2020384    0.0000519   -0.6806477  
O   -2.3759249    0.0003493    0.0157743  
C   -1.2314656   -0.0005115   -2.0955510  
O   -2.5054392   -0.0008039   -2.6250180  
C   -0.0764516   -0.0007274   -2.8495195  
H    2.8919955   -0.0005620   -3.6205304  
H    2.8036267    0.0088183    0.5858662  
H   -3.0835638    0.0000347   -0.6418818  
H   -2.4360047   -0.0011529   -3.5845921  
H    4.3715549    0.0004895   -1.3667136  
C    2.5128556    2.1077716    2.9199648  
C    1.9592212    1.6432552    4.0696553  
C    0.8915788    0.7479214    3.6910360  
C    0.8684491    0.7287414    2.2159470  
N    1.8754542    1.5738793    1.8102719  
C    0.0000000    0.0000000    1.4700000  
C   -0.9772830   -0.8200135    2.1664417  
O   -1.8021297   -1.5120829    1.5842315  
C   -0.9711318   -0.8147624    3.7284083  
O   -1.7894187   -1.5009653    4.3257297  
C    0.0140216    0.0115358    4.4216297  
H    2.2638494    1.8988021    5.0689105  
H    0.0117648    0.0094386    5.5031631  
H    3.3327358    2.7953732    2.7900019  
H    2.1123206    1.7707734    0.8551938  
