58

C   -3.2941074    0.0012873   -2.9038244  
C   -4.0168013    0.0014138   -1.7541335  
C   -5.4101724    0.0018621   -2.1327530  
C   -5.4402193    0.0019581   -3.6078421  
N   -4.1255645    0.0019956   -4.0135170  
C   -6.5739159    0.0019522   -4.3537889  
C   -7.8496532    0.0020703   -3.6573473  
O   -8.9263753    0.0021358   -4.2395574  
C   -7.8415650    0.0022235   -2.0953809  
O   -8.9094924    0.0026302   -1.4980594  
C   -6.5557598    0.0019360   -1.4021593  
H   -3.6191804    0.0013980   -0.7548788  
H   -6.5588369    0.0018390   -0.3206263  
H   -3.8175533    0.0005036   -4.9685951  
C    0.0000000    0.0000000    0.0000000  
C    1.0541687   -0.0001723   -0.8560393  
C    0.5103135   -0.0000455   -2.1935956  
C   -0.9576373    0.0002459   -2.0455732  
N   -1.2018461   -0.0001392   -0.6915970  
C   -1.8348312    0.0008316   -3.0810609  
C   -1.2972850    0.0009736   -4.4314604  
O   -2.0050673    0.0014264   -5.4301320  
C    0.2542625    0.0004184   -4.6117573  
O    0.7184672    0.0002257   -5.7439122  
C    1.0974555    0.0000873   -3.4189131  
H    2.0940747   -0.0005483   -0.5817983  
H    2.1707282   -0.0000911   -3.5523672  
H   -2.1128196    0.0014912   -0.2706795  
C   -4.0789163   -2.0923488   -7.3346131  
C   -4.6299242   -1.6297326   -6.1828962  
C   -5.6979547   -0.7332149   -6.5575988  
C   -5.7242126   -0.7113141   -8.0325980  
N   -4.7179295   -1.5555309   -8.4419654  
C   -6.5944186    0.0185876   -8.7753554  
C   -7.5701358    0.8374147   -8.0753324  
O   -8.3962809    1.5304747   -8.6545145  
C   -7.5603471    0.8296705   -6.5133946  
O   -8.3768953    1.5153268   -5.9130748  
C   -6.5739159    0.0018723   -5.8237887  
H   -4.3230785   -1.8870026   -5.1847624  
H   -6.5968747    0.0203865   -9.8565132  
H   -3.2596517   -2.7801091   -7.4675822  
H   -4.4850556   -1.7530061   -9.3979054  
C    0.0000000    0.0000000    1.4700000  
C    1.0662921    0.0000102    2.3034270  
C    0.4961870   -0.0000064    3.6418889  
C   -0.9663858    0.0000850    3.4240247  
N   -1.2632773    0.0000084    2.1528658  
C   -1.8985362    0.0000517    4.5177257  
C   -1.3925775   -0.0004564    5.7720543  
O   -2.1456383   -0.0005410    6.8851312  
C    0.0786232   -0.0009323    6.0245000  
O    0.4683759   -0.0012588    7.1921102  
C    1.0143166   -0.0008442    4.8859032  
H    2.1107198   -0.0000632    2.0421868  
H   -2.9622183    0.0003270    4.3293377  
H   -1.5042274   -0.0009692    7.6184419  
H    2.0724152   -0.0013148    5.1109744  
