60

C    3.3003540    0.0005278   -1.4738999  
C    2.5232804    0.0003503   -2.6090758  
C    1.1623192   -0.0001315   -2.1820108  
C    1.1711879    0.0000585   -0.7636151  
N    2.4852299   -0.0014918   -0.3662372  
C    0.0000000    0.0000000    0.0000000  
C   -1.2020386    0.0000521   -0.6806475  
O   -2.3759253    0.0003494    0.0157750  
C   -1.2314665   -0.0005112   -2.0955511  
O   -2.5054398   -0.0008035   -2.6250175  
C   -0.0764526   -0.0007268   -2.8495196  
H    2.8919941   -0.0005613   -3.6205317  
H    2.8036265    0.0088182    0.5858651  
H   -3.0835642    0.0000347   -0.6418815  
H   -2.4360056   -0.0011526   -3.5845916  
H    4.3715545    0.0004897   -1.3667156  
C    2.3339052   -2.1433058   -5.7798829  
C    1.7884015   -1.7364541   -6.9497019  
C    0.7199589   -0.8255796   -6.5686016  
C    0.7627093   -0.7984767   -5.0907582  
N    1.7068217   -1.5689200   -4.6227212  
C   -0.1496431   -0.0015606   -4.3176960  
C   -1.0629266    0.7351043   -4.9904313  
O   -1.9749220    1.5241144   -4.3973303  
C   -1.1310671    0.7291952   -6.4815657  
O   -1.9881511    1.4239803   -7.0273692  
C   -0.1842244   -0.0965584   -7.2519841  
H    2.0756462   -2.0194332   -7.9479450  
H   -2.4796327    1.9159033   -5.1328032  
H   -0.2663198   -0.0731902   -8.3303836  
C    3.4545839   -3.0730592   -5.5785425  
C    4.1961677   -3.7332629   -6.5049653  
C    5.1699522   -4.5180018   -5.7833249  
C    4.9331814   -4.2590275   -4.3502644  
N    3.8806176   -3.3748171   -4.2939504  
C    5.6482857   -4.8154649   -3.3399639  
C    6.7230051   -5.7303136   -3.6871909  
O    7.4244078   -6.2824725   -2.8496614  
C    6.9915966   -6.0189278   -5.1986028  
O    7.8939655   -6.7872104   -5.5031214  
C    6.1534988   -5.3593242   -6.1967846  
H    4.0749926   -3.6768160   -7.5720848  
H    5.4582249   -4.6122164   -2.2952266  
H    6.3458226   -5.5646537   -7.2410909  
H    3.4818900   -3.0070900   -3.4496511  
C    0.8681109    0.7263879    2.2709268  
C    0.6127770    0.5096195    3.5869401  
C   -0.4920590   -0.4175482    3.6542670  
C   -0.8620974   -0.7254003    2.2596025  
N    0.0000000    0.0000000    1.4700000  
C   -1.8641242   -1.5660088    1.8976294  
C   -2.6293522   -2.2103885    2.9520183  
O   -3.5512764   -2.9839180    2.7283916  
C   -2.2549728   -1.8987399    4.4361073  
O   -2.8923672   -2.4351063    5.3323774  
C   -1.1543735   -0.9755647    4.7012123  
H    1.1382914    0.9492124    4.4159191  
H   -2.1192137   -1.7782617    0.8686553  
H   -0.9013378   -0.7652422    5.7314848  
H    1.6172880    1.3558399    1.8188057  
