58

C    3.2573672   -0.0002920   -1.5109380  
C    2.5379470   -0.0001710   -0.3591959  
C    1.1435044    0.0000331   -0.7338498  
C    1.1092609   -0.0000083   -2.2088475  
N    2.4227564    0.0001909   -2.6182609  
C   -0.0265532   -0.0002524   -2.9515660  
C   -1.3003037   -0.0002640   -2.2514978  
O   -2.3786783   -0.0004133   -2.8306423  
C   -1.2877723    0.0000311   -0.6895608  
O   -2.3539957    0.0003306   -0.0892035  
C    0.0000000    0.0000000    0.0000000  
H    2.9384091   -0.0000368    0.6389235  
H    2.7280494   -0.0013407   -3.5742112  
C    6.5597225   -0.0008210    1.3835031  
C    7.6114516   -0.0009113    0.5244682  
C    7.0637934   -0.0009870   -0.8115355  
C    5.5962696   -0.0009038   -0.6593375  
N    5.3559138   -0.0012037    0.6953281  
C    4.7161333   -0.0005436   -1.6923256  
C    5.2498355   -0.0004422   -3.0442490  
O    4.5392149   -0.0001860   -4.0409028  
C    6.8008638   -0.0007796   -3.2289589  
O    7.2618459   -0.0010043   -4.3624299  
C    7.6474470   -0.0008761   -2.0385184  
H    8.6521337   -0.0011058    0.7957497  
H    8.7203357   -0.0009046   -2.1750253  
H    6.5627891   -0.0007239    2.4614087  
H    4.4461412    0.0003272    1.1188353  
C    2.4782023   -2.1081880   -5.8783641  
C    1.9212516   -1.6438943   -7.0265419  
C    0.8545983   -0.7486155   -6.6450160  
C    0.8356633   -0.7292248   -5.1698698  
N    1.8439055   -1.5742006   -4.7669391  
C   -0.0307352   -0.0004647   -4.4215603  
C   -1.0100801    0.8193479   -5.1153371  
O   -1.8333384    1.5114168   -4.5308820  
C   -1.0083720    0.8138718   -6.6773139  
O   -1.8284256    1.4999045   -7.2724039  
C   -0.0251096   -0.0124254   -7.3732162  
H    2.2230622   -1.8995542   -8.0266229  
H   -0.0304435   -0.0104847   -8.4547392  
H    3.2985198   -2.7956866   -5.7506350  
H    2.0835084   -1.7709325   -3.8125106  
C    2.5128556    2.1077716    2.9199648  
C    1.9592212    1.6432552    4.0696553  
C    0.8915788    0.7479214    3.6910360  
C    0.8684491    0.7287414    2.2159470  
N    1.8754542    1.5738793    1.8102719  
C    0.0000000    0.0000000    1.4700000  
C   -0.9772830   -0.8200135    2.1664417  
O   -1.8021297   -1.5120829    1.5842315  
C   -0.9711318   -0.8147624    3.7284083  
O   -1.7894187   -1.5009653    4.3257297  
C    0.0140216    0.0115358    4.4216297  
H    2.2638494    1.8988021    5.0689105  
H    0.0117648    0.0094386    5.5031631  
H    3.3327358    2.7953732    2.7900019  
H    2.1123206    1.7707734    0.8551938  
