60

C   -4.3359692    2.1064015   -0.0635816  
C   -5.5644950    1.6417187   -0.4083563  
C   -5.3776805    0.7467253   -1.5259085  
C   -3.9292259    0.7279267   -1.8059378  
N   -3.3543293    1.5729380   -0.8848842  
C   -3.3460098   -0.0004261   -2.7913644  
C   -4.2020398   -0.8203938   -3.6324361  
O   -3.7724548   -1.5121261   -4.5463635  
C   -5.7389990   -0.8155424   -3.3539780  
O   -6.4697274   -1.5017105   -4.0557394  
C   -6.2499650    0.0103540   -2.2628040  
H   -6.4953651    1.8969411    0.0659379  
H   -7.3153175    0.0079816   -2.0764123  
H   -4.0651604    2.7938487    0.7212548  
H   -2.3726201    1.7700214   -0.8181559  
C    0.0000000    0.0000000    0.0000000  
C    1.0662918   -0.0000103   -0.8334272  
C    0.4961866    0.0000066   -2.1718888  
C   -0.9663862   -0.0000848   -1.9540246  
N   -1.2632777   -0.0000084   -0.6828658  
C   -1.8985367   -0.0000514   -3.0477256  
C   -1.3925783    0.0004569   -4.3020543  
O   -2.1456389    0.0005417   -5.4151310  
C    0.0786225    0.0009329   -4.5544999  
O    0.4683752    0.0012595   -5.7221105  
C    1.0143159    0.0008446   -3.4159033  
H    2.1107193    0.0000632   -0.5721869  
H   -1.5042282    0.0009699   -6.1484418  
C    3.4364592   -0.6845229   -3.0955672  
C    2.4521470    0.0014842   -3.7217487  
C    3.1256102    0.7478442   -4.7733631  
C    4.5520905    0.3843008   -4.6334542  
N    4.7404165   -0.4551032   -3.6516581  
C    5.5629155    0.9215721   -5.5021652  
C    5.1666476    1.7825727   -6.4670404  
O    6.0021944    2.3597729   -7.3472346  
C    3.7344483    2.1687415   -6.6338913  
O    3.4458151    2.9576843   -7.5336027  
C    2.7164273    1.6040516   -5.7301855  
H    6.5979060    0.6386562   -5.3770138  
H    5.4291783    2.9168363   -7.9044468  
H    1.6899513    1.9088368   -5.8840790  
H    3.3474864   -1.3573887   -2.2575283  
C    0.0000000    0.0000000    1.4700000  
C    1.0521667    0.0011902    2.3562342  
C    0.4917218    0.0011957    3.6679131  
C   -0.9187428   -0.0003148    3.5178682  
N   -1.1833171    0.0009411    2.1707914  
C   -1.7951701   -0.0010350    4.6072090  
C   -1.2375837   -0.0005224    5.8710424  
O   -2.0474215   -0.0015360    6.9697579  
C    0.1673580    0.0013566    6.0411963  
O    0.5673524    0.0020687    7.3615553  
C    1.0325770    0.0023412    4.9669890  
H    2.0953057    0.0030649    2.0900562  
H   -2.0989778   -0.0102372    1.7591824  
H   -2.8710934   -0.0020419    4.4995513  
H   -1.4634884   -0.0006497    7.7393593  
H    1.5290710    0.0033153    7.3880045  
H    2.1042148    0.0039609    5.1284455  
