58

C    3.8161957   -5.5878900   -7.3526046  
C    4.5389979   -5.2088484   -8.4379426  
C    4.3024415   -3.7973708   -8.6292749  
C    3.3759547   -3.3821857   -7.5587465  
N    3.1196375   -4.5139153   -6.8195716  
C    2.9087512   -2.1188234   -7.3933930  
C    3.3475224   -1.1000455   -8.3325982  
O    2.9830354    0.0666973   -8.2680910  
C    4.3284053   -1.5173894   -9.4743064  
O    4.7044617   -0.6683868  -10.2711995  
C    4.7625482   -2.9101146   -9.5497185  
H    5.1661509   -5.8454187   -9.0363329  
H    5.4418972   -3.1908767  -10.3430550  
H    3.7336113   -6.5614896   -6.8974415  
H    2.5205991   -4.5531717   -6.0154201  
C    1.9957412   -2.1407953   -5.0258943  
C    1.9855628   -1.7332340   -6.3163859  
C    0.8551749   -0.8225482   -6.4132069  
C    0.2799734   -0.7963197   -5.0512083  
N    0.9444052   -1.5670716   -4.2336130  
C   -0.8712826    0.0001710   -4.7267111  
C   -1.4226087    0.7372645   -5.7177042  
O   -2.4987599    1.5259551   -5.5567519  
C   -0.8649831    0.7322381   -7.1023301  
O   -1.4179257    1.4273747   -7.9545394  
C    0.3165526   -0.0930926   -7.4101071  
H   -2.6523129    1.9181964   -6.4352285  
H    0.6899766   -0.0690846   -8.4250991  
H    2.6823202   -2.8229905   -4.5502976  
C    1.0965514    0.0001359   -0.8010305  
C    0.0000000    0.0000000    0.0000000  
C   -1.1546563    0.0001470   -0.8669513  
C   -0.6372014    0.0003519   -2.2486282  
N    0.7342871    0.0007337   -2.1395014  
C   -1.4147739    0.0001352   -3.3608717  
C   -2.8576049   -0.0001048   -3.1854462  
O   -3.6427779   -0.0002494   -4.1244907  
C   -3.4275840   -0.0000725   -1.7311666  
O   -4.6406831    0.0000333   -1.5710060  
C   -2.4891867   -0.0001091   -0.6116744  
H   -2.8919122   -0.0002918    0.3920866  
H    2.1388272    0.0000663   -0.5261648  
H    1.3735872   -0.0006099   -2.9130262  
C    0.8681109    0.7263879    2.2709268  
C    0.6127770    0.5096195    3.5869401  
C   -0.4920590   -0.4175482    3.6542670  
C   -0.8620974   -0.7254003    2.2596025  
N    0.0000000    0.0000000    1.4700000  
C   -1.8641242   -1.5660088    1.8976294  
C   -2.6293522   -2.2103885    2.9520183  
O   -3.5512764   -2.9839180    2.7283916  
C   -2.2549728   -1.8987399    4.4361073  
O   -2.8923672   -2.4351063    5.3323774  
C   -1.1543735   -0.9755647    4.7012123  
H    1.1382914    0.9492124    4.4159191  
H   -2.1192137   -1.7782617    0.8686553  
H   -0.9013378   -0.7652422    5.7314848  
H    1.6172880    1.3558399    1.8188057  
