58

C    4.1774648   -0.7039258   -4.3991482  
C    3.1006054    0.0006263   -3.9654951  
C    2.5992399    0.7428152   -5.0980249  
C    3.4785673    0.4104979   -6.2351873  
N    4.4147926   -0.4705963   -5.7452433  
C    3.3361155    0.9100885   -7.4889105  
C    2.2439822    1.8371256   -7.7346383  
O    2.0321271    2.3416476   -8.8295700  
C    1.3005621    2.2033757   -6.5448377  
O    0.3778222    2.9830419   -6.7395970  
C    1.5546721    1.6002371   -5.2388884  
H    3.9920980    0.6532722   -8.3090581  
H    0.8967557    1.8588592   -4.4203622  
H    4.8177812   -1.3738064   -3.8485622  
C    6.1454076   -4.5321886   -5.8150368  
C    5.3992600   -3.4326552   -5.5350977  
C    5.8762225   -2.3713715   -6.3900938  
C    6.9692246   -2.9468741   -7.1968986  
N    7.0825713   -4.2592954   -6.7999198  
C    7.6802364   -2.2621059   -8.1281659  
C    7.3468844   -0.8649821   -8.3505523  
O    7.9290334   -0.1631057   -9.1671139  
C    6.1930350   -0.2348135   -7.5071508  
O    5.9036138    0.9406544   -7.6853967  
C    5.4992131   -1.0738735   -6.5332719  
H    4.6054696   -3.3719228   -4.8120332  
H    8.4781463   -2.7031669   -8.7092997  
H    6.0896439   -5.5188336   -5.3845580  
H    7.7428818   -4.9180259   -7.1702054  
C    3.2798083    0.0005857   -1.4499652  
C    2.5571142    0.0005565   -2.5996556  
C    1.1637432    0.0001548   -2.2210361  
C    1.1336964   -0.0000200   -0.7459473  
N    2.4483512   -0.0001428   -0.3402723  
C    0.0000000    0.0000000    0.0000000  
C   -1.2757368   -0.0000186   -0.6964415  
O   -2.3524598   -0.0000639   -0.1142311  
C   -1.2676497   -0.0000872   -2.2584083  
O   -2.3355766   -0.0004101   -2.8557295  
C    0.0181558    0.0001758   -2.9516296  
H    0.0150788    0.0003319   -4.0331631  
H    4.3498547    0.0008612   -1.3200026  
H    2.7563626    0.0012823    0.6148059  
C    0.8400945    0.7047457    2.2710304  
C    0.0000000    0.0000000    1.4700000  
C   -0.8844236   -0.7423113    2.3369512  
C   -0.4878984   -0.4098547    3.7186280  
N    0.5629682    0.4714286    3.6095011  
C   -1.0836927   -0.9095027    4.8308716  
C   -2.1891196   -1.8367527    4.6554461  
O   -2.7906899   -2.3413415    5.5944904  
C   -2.6257283   -2.2031529    3.2011665  
O   -3.5549479   -2.9829990    3.0410059  
C   -1.9068976   -1.5999348    2.0816745  
H   -0.7774656   -0.6525820    5.8354244  
H   -2.2155208   -1.8586617    1.0779135  
H    1.6384792    1.3747609    1.9961646  
H    1.0518368    0.8833920    4.3830260  
