58

C    3.2798083    0.0005856   -1.4499654  
C    2.5571141    0.0005565   -2.5996560  
C    1.1637428    0.0001547   -2.2210363  
C    1.1336961   -0.0000201   -0.7459473  
N    2.4483511   -0.0001429   -0.3402725  
C    0.0000000    0.0000000    0.0000000  
C   -1.2757382   -0.0000187   -0.6964417  
O   -2.3524603   -0.0000641   -0.1142312  
C   -1.2676502   -0.0000875   -2.2584083  
O   -2.3355768   -0.0004103   -2.8557295  
C    0.0181556    0.0001758   -2.9516298  
H    2.9547345    0.0006074   -3.5989111  
H    0.0150785    0.0003317   -4.0331631  
H    2.7563627    0.0012824    0.6148057  
C    6.4690079    0.0019757   -4.4192242  
C    7.5790604    0.0025232   -3.6450397  
C    7.0826141    0.0021762   -2.2775453  
C    5.6103551    0.0015083   -2.4155207  
N    5.2447503    0.0013072   -3.6686457  
C    4.7390843    0.0009614   -1.2727288  
C    5.3125315    0.0006874   -0.0477826  
O    4.6211394    0.0001824    1.1046137  
C    6.7952870    0.0009745    0.1242535  
O    7.2479823    0.0008235    1.2689314  
C    7.6676530    0.0015792   -1.0635604  
H    8.6077290    0.0030020   -3.9627113  
H    5.3014934    0.0000717    1.8019445  
H    6.4103405    0.0020017   -5.4960397  
C   10.8360541    2.1445248   -3.1507870  
C   11.9418691    1.7367447   -2.4856029  
C   11.4501790    0.8252845   -1.4638492  
C    9.9850142    0.7988936   -1.6617866  
N    9.6191471    1.5702256   -2.6492976  
C    9.1199933    0.0016838   -0.8363884  
C    9.6926785   -0.7359423    0.1420152  
O    9.0066616   -1.5253289    0.9859882  
C   11.1683832   -0.7307695    0.3665834  
O   11.6207659   -1.4264171    1.2757834  
C   12.0344132    0.0953037   -0.4933701  
H   12.9648904    2.0194683   -2.6660700  
H    9.6848337   -1.9178172    1.5649431  
H   13.0981907    0.0713796   -0.2983480  
H   10.7758826    2.8272589   -3.9833890  
C    2.4951002    2.0940188    2.9809380  
C    1.9440701    1.6314916    1.8291961  
C    0.8759964    0.7350050    2.2038498  
C    0.8497377    0.7130254    3.6788474  
N    1.8560616    1.5571714    4.0882609  
C   -0.0205033   -0.0168748    4.4215661  
C   -0.9962600   -0.8356168    3.7214979  
O   -1.8224391   -1.5286685    4.3006425  
C   -0.9864710   -0.8277881    2.1595606  
O   -1.8030528   -1.5133726    1.5592035  
C    0.0000000    0.0000000    1.4700000  
H    2.2509283    1.8888011    0.8310761  
H   -0.0229599   -0.0187323    5.5027230  
H    3.3143982    2.7817323    3.1139444  
H    2.0889452    1.7545833    5.0442112  
