58

C   -0.2024937   -2.9849031  -10.3912591  
C   -0.2570267   -2.3017362   -9.2189189  
C   -0.5208174   -0.9208652   -9.5482290  
C   -0.6162092   -0.8550821  -11.0190662  
N   -0.4135645   -2.1391451  -11.4696304  
C   -0.8580057    0.2791224  -11.7239209  
C   -1.0359674    1.5177715  -10.9845875  
O   -1.2578148    2.5918916  -11.5280483  
C   -0.9388119    1.4715155   -9.4263106  
O   -1.0866050    2.5080976   -8.7931324  
C   -0.6742159    0.1888312   -8.7793463  
H   -0.1270900   -2.7176359   -8.2356804  
H   -0.9242396    0.3056381  -12.8027244  
H   -0.0256564   -4.0350257  -10.5581740  
H   -0.4202033   -2.4191506  -12.4332690  
C    2.0407259   -2.0139650   -6.1785238  
C    1.6287192   -1.6317253   -4.9473771  
C    0.5264171   -0.7135552   -5.1890257  
C    0.4056584   -0.6555640   -6.6616555  
N    1.2906467   -1.4158622   -7.2470885  
C   -0.5850929    0.1568589   -7.3123990  
C   -1.4176232    0.8782449   -6.5276508  
O   -2.3882008    1.6789420   -6.9997770  
C   -1.3210824    0.8405679   -5.0385497  
O   -2.1116406    1.5230226   -4.3870179  
C   -0.2963293   -0.0005341   -4.3948471  
H    2.0239474   -1.9354085   -3.9930991  
H   -2.8082867    2.0545009   -6.2050216  
H    2.8401847   -2.6925111   -6.4303447  
C    3.1301146   -0.0010313   -1.7028256  
C    2.5367765   -0.0002766   -0.4864669  
C    1.1089901    0.0001027   -0.7656184  
C    1.0177865   -0.0004150   -2.2415133  
N    2.1993571   -0.0011612   -2.7963824  
C   -0.2459219   -0.0002879   -2.9257116  
C   -1.3675326   -0.0000606   -2.1698520  
O   -2.6129318    0.0000865   -2.6748483  
C   -1.3083588    0.0000910   -0.6783229  
O   -2.3693264    0.0004206   -0.0541685  
C    0.0000000    0.0000000    0.0000000  
H    3.0096016   -0.0001007    0.4807518  
H   -3.1967444    0.0002093   -1.8949026  
H    4.1849275   -0.0015114   -1.9271979  
C    2.5528530    2.1414826    2.8079335  
C    2.0663498    1.7338582    4.0032312  
C    0.9804344    0.8229586    3.6752840  
C    0.9495562    0.7966882    2.1971295  
N    1.8690446    1.5676019    1.6831036  
C    0.0000000    0.0000000    1.4700000  
C   -0.8785127   -0.7372425    2.1869543  
O   -1.8187535   -1.5261249    1.6395491  
C   -0.8723269   -0.7321790    3.6796354  
O   -1.7010379   -1.4274584    4.2670412  
C    0.1115397    0.0933559    4.4024240  
H    2.4028853    2.0163452    4.9860947  
H   -2.2861435   -1.9184361    2.3990168  
H    0.0832434    0.0693689    5.4835595  
H    3.3664920    2.8238276    2.6198634  
