58

C    5.0833961   -1.0820961   -6.7454068  
C    6.0695270   -1.9559494   -6.4167702  
C    6.8032522   -2.2376850   -7.6280127  
C    6.1591483   -1.4506721   -8.6969056  
N    5.1234102   -0.7727089   -8.0964865  
C    6.5593837   -1.4428558   -9.9936149  
C    7.7005645   -2.2645758  -10.3610621  
O    8.1374335   -2.3254685  -11.5028757  
C    8.3978477   -3.1064139   -9.2453074  
O    9.3593927   -3.8022628   -9.5427752  
C    7.8753545   -3.0324313   -7.8831847  
H    6.2609744   -2.3575074   -5.4376317  
H    6.0730764   -0.8582354  -10.7621431  
H    8.3639213   -3.6182068   -7.1164418  
H    4.4947956   -0.1477071   -8.5668735  
C    3.9135206   -0.7081242   -4.5250692  
C    2.8699641   -0.0020530   -4.0185824  
C    2.2916399    0.7390436   -5.1145536  
C    3.0895145    0.4044299   -6.3096355  
N    4.0568589   -0.4768156   -5.8847345  
C    2.8606214    0.9024534   -7.5511207  
C    1.7547620    1.8301065   -7.7216197  
O    1.4676781    2.3333360   -8.7998803  
C    0.8966363    2.1987795   -6.4696193  
O   -0.0368098    2.9789838   -6.6008451  
C    1.2404684    1.5971819   -5.1836520  
H    3.4577920    0.6439622   -8.4145320  
H    0.6412572    1.8574786   -4.3217268  
H    4.5900518   -1.3778175   -4.0193959  
C    3.2573670   -0.0002921   -1.5109382  
C    2.5379468   -0.0001711   -0.3591962  
C    1.1435043    0.0000330   -0.7338498  
C    1.1092608   -0.0000085   -2.2088474  
N    2.4227562    0.0001906   -2.6182610  
C   -0.0265533   -0.0002525   -2.9515663  
C   -1.3003033   -0.0002641   -2.2514979  
O   -2.3786785   -0.0004132   -2.8306425  
C   -1.2877724    0.0000310   -0.6895608  
O   -2.3539956    0.0003306   -0.0892035  
C    0.0000000    0.0000000    0.0000000  
H    2.9384091   -0.0000370    0.6389240  
H   -0.0296290   -0.0004088   -4.0327231  
H    4.3270394   -0.0004767   -1.6439445  
C    2.5528530    2.1414826    2.8079335  
C    2.0663498    1.7338582    4.0032312  
C    0.9804344    0.8229586    3.6752840  
C    0.9495562    0.7966882    2.1971295  
N    1.8690446    1.5676019    1.6831036  
C    0.0000000    0.0000000    1.4700000  
C   -0.8785127   -0.7372425    2.1869543  
O   -1.8187535   -1.5261249    1.6395491  
C   -0.8723269   -0.7321790    3.6796354  
O   -1.7010379   -1.4274584    4.2670412  
C    0.1115397    0.0933559    4.4024240  
H    2.4028853    2.0163452    4.9860947  
H   -2.2861435   -1.9184361    2.3990168  
H    0.0832434    0.0693689    5.4835595  
H    3.3664920    2.8238276    2.6198634  
