58

C    4.3630977   -2.0949039   -1.3110651  
C    3.1522512   -1.6320805   -1.7156882  
C    3.3924173   -0.7354494   -2.8216758  
C    4.8529069   -0.7137078   -3.0297342  
N    5.3832064   -1.5581154   -2.0817639  
C    5.4827045    0.0162379   -3.9848457  
C    4.6677390    0.8352839   -4.8666223  
O    5.1406430    1.5283991   -5.7578309  
C    3.1189444    0.8277104   -4.6641775  
O    2.4225435    1.5135515   -5.4003216  
C    2.5562217   -0.0001543   -3.6003001  
H    2.1995749   -1.8892844   -1.2880586  
H    6.5552966    0.0179177   -4.1206903  
H    6.3605504   -1.7557299   -1.9686510  
C    3.7869010   -3.6303300    0.6047810  
C    4.6807926   -3.0330188   -0.2248284  
C    5.9917288   -3.4953838    0.1656841  
C    5.7868324   -4.4176622    1.2989136  
N    4.4287257   -4.4555648    1.5157085  
C    6.7838232   -5.0664943    1.9521608  
C    8.1498648   -4.8412801    1.5097314  
O    9.1168259   -5.3789283    2.0333943  
C    8.3901994   -3.8683570    0.3116224  
O    9.5360235   -3.6706829   -0.0695253  
C    7.2351281   -3.2277387   -0.3122925  
H    6.6119643   -5.7389830    2.7810959  
H    7.4100616   -2.5556398   -1.1413915  
H    2.7132860   -3.5369227    0.6274796  
H    3.9737084   -5.0005033    2.2249674  
C    0.0000000    0.0000000    0.0000000  
C    1.0541688   -0.0001719   -0.8560391  
C    0.5103141   -0.0000449   -2.1935955  
C   -0.9576367    0.0002461   -2.0455733  
N   -1.2018459   -0.0001392   -0.6915970  
C   -1.8348306    0.0008319   -3.0810611  
C   -1.2972842    0.0009739   -4.4314605  
O   -2.0050664    0.0014267   -5.4301321  
C    0.2542628    0.0004190   -4.6117571  
O    0.7184677    0.0002263   -5.7439119  
C    1.0974556    0.0000880   -3.4189127  
H    2.0940752   -0.0005479   -0.5817978  
H   -2.9081050    0.0011669   -2.9507065  
H   -2.1128195    0.0014911   -0.2706793  
C    3.2573670    0.0002920    2.9809380  
C    2.5379467    0.0001709    1.8291961  
C    1.1435042   -0.0000331    2.2038498  
C    1.1092607    0.0000083    3.6788474  
N    2.4227561   -0.0001909    4.0882609  
C   -0.0265533    0.0002524    4.4215661  
C   -1.3003036    0.0002640    3.7214979  
O   -2.3786784    0.0004133    4.3006425  
C   -1.2877726   -0.0000311    2.1595606  
O   -2.3539958   -0.0003306    1.5592035  
C    0.0000000    0.0000000    1.4700000  
H    2.9384090    0.0000368    0.8310761  
H   -0.0296291    0.0004086    5.5027230  
H    4.3270393    0.0004765    3.1139444  
H    2.7280493    0.0013407    5.0442112  
