58

C    0.8807950   -0.7246970   -5.2251239  
C    0.6214225   -0.5080880   -6.5403738  
C   -0.4848661    0.4175788   -6.6044201  
C   -0.8513559    0.7247238   -5.2086633  
N    0.0139746    0.0003883   -4.4216235  
C   -1.8534961    1.5639100   -4.8437164  
C   -2.6226005    2.2073956   -5.8958292  
O   -3.5449409    2.9796324   -5.6694659  
C   -2.2520195    1.8964730   -7.3810233  
O   -2.8926925    2.4320968   -8.2753967  
C   -1.1509180    0.9748408   -7.6493942  
H    1.1451765   -0.9468426   -7.3709092  
H   -2.1059468    1.7756655   -3.8139893  
H   -0.9005276    0.7650130   -8.6804138  
H    1.6321148   -1.3531899   -4.7752294  
C    3.2798087    0.0005858   -1.4499643  
C    2.5571149    0.0005569   -2.5996548  
C    1.1637440    0.0001551   -2.2210358  
C    1.1336966   -0.0000198   -0.7459468  
N    2.4483512   -0.0001426   -0.3402714  
C    0.0000000    0.0000000    0.0000000  
C   -1.2757369   -0.0000185   -0.6964416  
O   -2.3524599   -0.0000639   -0.1142315  
C   -1.2676492   -0.0000870   -2.2584080  
O   -2.3355760   -0.0004099   -2.8557298  
C    0.0181565    0.0001762   -2.9516296  
H    2.9547360    0.0006079   -3.5989102  
H    2.7563627    0.0012824    0.6148067  
C    6.5739163    0.0018725   -4.3537884  
C    7.6280851    0.0019477   -3.4977492  
C    7.0842298    0.0017744   -2.1601927  
C    5.6162789    0.0015617   -2.3082154  
N    5.3720702    0.0020319   -3.6621915  
C    4.7390849    0.0009618   -1.2727274  
C    5.2766314    0.0007207    0.0776721  
O    4.5688490    0.0002477    1.0763436  
C    6.8281782    0.0011917    0.2579688  
O    7.2923830    0.0013006    1.3901237  
C    7.6713717    0.0015469   -0.9348754  
H    8.6679915    0.0022887   -3.7719902  
H    8.7446443    0.0016666   -0.8014213  
H    6.5739161    0.0019310   -5.4316983  
H    4.4610966    0.0004681   -4.0831091  
C    0.0000000    0.0000000    1.4700000  
C    1.0541688    0.0001722    2.3260392  
C    0.5103138    0.0000454    3.6635956  
C   -0.9576371   -0.0002459    3.5155732  
N   -1.2018458    0.0001392    2.1615969  
C   -1.8348311   -0.0008317    4.5510609  
C   -1.2972847   -0.0009736    5.9014604  
O   -2.0050672   -0.0014265    6.9001319  
C    0.2542623   -0.0004184    6.0817573  
O    0.7184670   -0.0002256    7.2139121  
C    1.0974552   -0.0000873    4.8889129  
H    2.0940752    0.0005483    2.0517982  
H   -2.9081052   -0.0011668    4.4207061  
H    2.1707277    0.0000911    5.0223670  
H   -2.1128194   -0.0014912    1.7406791  
