58

C    3.9647677   -5.5870509   -7.1845295  
C    4.7321184   -5.2077786   -8.2387588  
C    4.5035614   -3.7963046   -8.4396041  
C    3.5332182   -3.3813733   -7.4085566  
N    3.2464674   -4.5132314   -6.6808481  
C    3.0593703   -2.1180895   -7.2626556  
C    3.5367664   -1.0991346   -8.1826332  
O    3.1697598    0.0675553   -8.1332222  
C    4.5644241   -1.5162088   -9.2825314  
O    4.9732507   -0.6670556  -10.0629535  
C    5.0015093   -2.9088713   -9.3399640  
H    5.3837416   -5.8441938   -8.8105772  
H    5.7133607   -3.1894463  -10.1043386  
H    3.8634129   -6.5607208   -6.7333259  
H    2.6144464   -4.5526664   -5.9023611  
C    2.0485057   -2.1404841   -4.9352597  
C    2.0920573   -1.7327542   -6.2250031  
C    0.9665699   -0.8221932   -6.3687265  
C    0.3351121   -0.7962139   -5.0318754  
N    0.9649966   -1.5669927   -4.1874018  
C   -0.8287665    0.0000939   -4.7555305  
C   -1.3384143    0.7372509   -5.7685427  
O   -2.4204377    1.5257894   -5.6524722  
C   -0.7235769    0.7324747   -7.1287312  
O   -1.2406172    1.4276562   -8.0031528  
C    0.4698622   -0.0926718   -7.3871123  
H   -2.5373018    1.9181274   -6.5365345  
H    0.8852521   -0.0684847   -8.3856596  
H    2.7147576   -2.8226586   -4.4315535  
C    1.0672569   -0.0000698   -0.8321910  
C    0.0000000    0.0000000    0.0000000  
C   -1.1601223   -0.0000736   -0.8778472  
C   -0.5938729   -0.0000768   -2.2438435  
N    0.7113367   -0.0001553   -2.2234123  
C   -1.4286985   -0.0001877   -3.4135239  
C   -2.7683113   -0.0006798   -3.2270524  
O   -3.6653902   -0.0008302   -4.2276970  
C   -3.3702024   -0.0010610   -1.8610774  
O   -4.5974910   -0.0013779   -1.7662963  
C   -2.4926825   -0.0008943   -0.6770658  
H   -4.5324245   -0.0012258   -3.7833954  
H   -2.9677772   -0.0012974    0.2947961  
H    2.1134391   -0.0000547   -0.5705119  
C    2.3971438    2.0127888    3.1728260  
C    1.9431056    1.6308205    1.9564670  
C    0.8496017    0.7127664    2.2356185  
C    0.7794028    0.6545384    3.7115134  
N    1.6840587    1.4146091    4.2663826  
C   -0.1885723   -0.1578550    4.3957118  
C   -1.0476298   -0.8789867    3.6398520  
O   -2.0015663   -1.6796266    4.1448486  
C   -1.0022026   -0.8410666    2.1483229  
O   -1.8147390   -1.5232959    1.5241687  
C    0.0000000    0.0000000    1.4700000  
H    2.3054237    1.9346118    0.9892483  
H   -0.2170646   -0.1815267    5.4753125  
H   -2.4487139   -2.0549881    3.3649027  
H    3.2048689    2.6911772    3.3971983  
