62

C    1.1243355    0.0105987   -0.7919006  
C    0.7473945    0.0238570   -2.1148544  
C   -0.6787509    0.0230821   -2.1414699  
C   -1.1201794    0.0092544   -0.7935549  
N    0.0000000    0.0000000    0.0000000  
C   -2.4730849    0.0050361   -0.4408239  
C   -3.3972045    0.0152643   -1.4675060  
O   -4.7313584    0.0120721   -1.1793468  
C   -2.9763813    0.0287439   -2.8186323  
O   -4.0166687    0.0373435   -3.7247617  
C   -1.6418745    0.0326391   -3.1673482  
H   -2.8160141   -0.0056308    0.5845971  
H   -5.1938933    0.0202831   -2.0274379  
H   -3.6464930    0.0462604   -4.6127340  
H   -1.3497708    0.0428573   -4.2109231  
H    2.1062432    0.0064181   -0.3505407  
C    2.8413489   -0.6900443   -3.3574580  
C    3.4610195   -0.4621977   -4.5441211  
C    2.6379327    0.4710677   -5.2765002  
C    1.4796534    0.7704252   -4.4130394  
N    1.6628762    0.0347866   -3.2649301  
C    0.4697019    1.6134185   -4.7463024  
C    0.5272240    2.2695144   -6.0419741  
O   -0.3338532    3.0460519   -6.4341940  
C    1.7445935    1.9670035   -6.9727284  
O    1.8037296    2.5132628   -8.0660556  
C    2.7713942    1.0402236   -6.5030348  
H   -0.3708369    1.8193134   -4.0982197  
H    3.6111336    0.8362795   -7.1533954  
H    3.1463371   -1.3266531   -2.5428408  
C    5.1586581   -4.5787494   -4.1420207  
C    4.3431696   -3.4729450   -4.0738879  
C    5.0291727   -2.4086152   -4.7305474  
C    6.2686650   -2.9289536   -5.1831309  
N    6.3159653   -4.2485496   -4.8075699  
C    7.2055900   -2.1562055   -5.8758223  
C    6.8852901   -0.8341730   -6.1162740  
O    7.7638644   -0.0348305   -6.7887117  
C    5.6537268   -0.2965926   -5.6723422  
O    5.4824008    1.0353238   -5.9885550  
C    4.7290698   -1.0582727   -4.9886912  
H    3.3736528   -3.4374615   -3.6072278  
H    7.0720244   -4.8802135   -5.0008487  
H    8.1521122   -2.5467880   -6.2233002  
H    7.3505199    0.8363565   -6.8473916  
H    4.6266613    1.3198650   -5.6533688  
H    5.0069564   -5.5765015   -3.7672720  
C    2.4951002    2.0940188    2.9809380  
C    1.9440701    1.6314916    1.8291961  
C    0.8759964    0.7350050    2.2038498  
C    0.8497377    0.7130254    3.6788474  
N    1.8560616    1.5571714    4.0882609  
C   -0.0205033   -0.0168748    4.4215661  
C   -0.9962600   -0.8356168    3.7214979  
O   -1.8224391   -1.5286685    4.3006425  
C   -0.9864710   -0.8277881    2.1595606  
O   -1.8030528   -1.5133726    1.5592035  
C    0.0000000    0.0000000    1.4700000  
H    2.2509283    1.8888011    0.8310761  
H   -0.0229599   -0.0187323    5.5027230  
H    3.3143982    2.7817323    3.1139444  
H    2.0889452    1.7545833    5.0442112  
