58

C    9.3177129    0.0022295    0.5638349  
C    9.8923703    0.0017877   -0.6665481  
C   11.3219203    0.0019210   -0.4635082  
C   11.5345234    0.0024513    0.9964886  
N   10.2802708    0.0030155    1.5619438  
C   12.7519166    0.0023207    1.5962027  
C   13.9315215    0.0018367    0.7470445  
O   15.0720893    0.0017458    1.1913438  
C   13.7299431    0.0015226   -0.8018813  
O   14.7156209    0.0014210   -1.5269323  
C   12.3681450    0.0014224   -1.3304278  
H    9.3739913    0.0015938   -1.6088297  
H   12.8858908    0.0025871    2.6690318  
H   12.2371800    0.0009992   -2.4040059  
H   10.0929829    0.0019055    2.5478289  
C    5.7851527    0.0009360   -1.9873447  
C    4.7795901    0.0008674   -1.0815733  
C    5.4416651    0.0014223    0.2138636  
C    6.8854797    0.0016740   -0.1054853  
N    7.0929836    0.0014715   -1.3942570  
C    7.8916462    0.0022762    0.9205338  
C    7.4744097    0.0030009    2.2070981  
O    8.3032739    0.0036103    3.2649375  
C    6.0244000    0.0031412    2.5615458  
O    5.7170383    0.0036918    3.7534973  
C    5.0115679    0.0024704    1.4909875  
H    7.7145743    0.0040694    4.0412009  
H    3.9717449    0.0027121    1.7893136  
H    5.7099333    0.0006294   -3.0631309  
C    3.3321168    0.0004716   -1.3379341  
C    2.6974177    0.0000118   -2.5332316  
C    1.2800432   -0.0002116   -2.2052842  
C    1.2395033    0.0000644   -0.7271298  
N    2.4394059    0.0005460   -0.2131041  
C    0.0000000    0.0000000    0.0000000  
C   -1.1468704    0.0000635   -0.7169542  
O   -2.3742206    0.0000074   -0.1695488  
C   -1.1388774    0.0001608   -2.2096352  
O   -2.2206238    0.0000906   -2.7970409  
C    0.1454514    0.0001818   -2.9324241  
H    3.1367978   -0.0000649   -3.5160956  
H   -2.9844350    0.0001027   -0.9290164  
H    0.1083567    0.0003684   -4.0135594  
C    0.8400945    0.7047457    2.2710304  
C    0.0000000    0.0000000    1.4700000  
C   -0.8844236   -0.7423113    2.3369512  
C   -0.4878984   -0.4098547    3.7186280  
N    0.5629682    0.4714286    3.6095011  
C   -1.0836927   -0.9095027    4.8308716  
C   -2.1891196   -1.8367527    4.6554461  
O   -2.7906899   -2.3413415    5.5944904  
C   -2.6257283   -2.2031529    3.2011665  
O   -3.5549479   -2.9829990    3.0410059  
C   -1.9068976   -1.5999348    2.0816745  
H   -0.7774656   -0.6525820    5.8354244  
H   -2.2155208   -1.8586617    1.0779135  
H    1.6384792    1.3747609    1.9961646  
H    1.0518368    0.8833920    4.3830260  
