58

C   -3.3846725   -0.0016376   -7.2033945  
C   -4.0403711   -0.0018204   -6.0142207  
C   -5.4531305   -0.0023525   -6.3124597  
C   -5.5675657   -0.0024948   -7.7834101  
N   -4.2782880   -0.0016452   -8.2636741  
C   -6.7421019   -0.0033633   -8.4632388  
C   -7.9758814   -0.0039885   -7.6949141  
O   -9.0841647   -0.0047235   -8.2145349  
C   -7.8783974   -0.0035988   -6.1359710  
O   -8.9103808   -0.0038121   -5.4784985  
C   -6.5550188   -0.0029306   -5.5174882  
H   -3.5862030   -0.0014245   -5.0393645  
H   -6.8039898   -0.0035820   -9.5426283  
H   -6.4961816   -0.0028695   -4.4375521  
H   -4.0254511   -0.0030742   -9.2348160  
C   -0.0307354   -0.0004645   -4.4215603  
C    1.0331812   -0.0004858   -5.2580174  
C    0.4592707   -0.0007209   -6.5948520  
C   -1.0026764   -0.0009309   -6.3728274  
N   -1.2959504   -0.0007012   -5.1008292  
C   -1.9379345   -0.0011514   -7.4638724  
C   -1.4355466   -0.0007724   -8.7196356  
O   -2.1917708   -0.0009260   -9.8305658  
C    0.0349300   -0.0001820   -8.9762653  
O    0.4213595    0.0000158  -10.1449796  
C    0.9738589   -0.0000096   -7.8403354  
H    2.0783477   -0.0002673   -4.9997493  
H   -1.5524487   -0.0005379  -10.5656984  
H    2.0313129    0.0005370   -8.0684157  
C    3.2573669   -0.0002919   -1.5109381  
C    2.5379467   -0.0001709   -0.3591962  
C    1.1435042    0.0000332   -0.7338501  
C    1.1092607   -0.0000081   -2.2088477  
N    2.4227561    0.0001910   -2.6182614  
C   -0.0265534   -0.0002522   -2.9515663  
C   -1.3003036   -0.0002639   -2.2514981  
O   -2.3786785   -0.0004131   -2.8306428  
C   -1.2877726    0.0000312   -0.6895608  
O   -2.3539957    0.0003306   -0.0892035  
C    0.0000000    0.0000000    0.0000000  
H    2.9384091   -0.0000368    0.6389238  
H    4.3270391   -0.0004764   -1.6439447  
H    2.7280492   -0.0013405   -3.5742114  
C    2.3971438    2.0127888    3.1728260  
C    1.9431056    1.6308205    1.9564670  
C    0.8496017    0.7127664    2.2356185  
C    0.7794028    0.6545384    3.7115134  
N    1.6840587    1.4146091    4.2663826  
C   -0.1885723   -0.1578550    4.3957118  
C   -1.0476298   -0.8789867    3.6398520  
O   -2.0015663   -1.6796266    4.1448486  
C   -1.0022026   -0.8410666    2.1483229  
O   -1.8147390   -1.5232959    1.5241687  
C    0.0000000    0.0000000    1.4700000  
H    2.3054237    1.9346118    0.9892483  
H   -0.2170646   -0.1815267    5.4753125  
H   -2.4487139   -2.0549881    3.3649027  
H    3.2048689    2.6911772    3.3971983  
