58

C   -6.6781274    0.0000524   -5.5992978  
C   -5.6239583    0.0007923   -6.4553371  
C   -6.1678138    0.0013812   -7.7928936  
C   -7.6357646    0.0009497   -7.6448710  
N   -7.8799726   -0.0002525   -6.2908949  
C   -8.5129588    0.0016928   -8.6803583  
C   -7.9754128    0.0027788  -10.0307575  
O   -8.6831951    0.0034442  -11.0294284  
C   -6.4238654    0.0030001  -10.2110549  
O   -5.9596609    0.0036048  -11.3432091  
C   -5.5806723    0.0024142   -9.0182102  
H   -4.5840521    0.0007294   -6.1810963  
H   -9.5862330    0.0014878   -8.5500036  
H   -4.5074002    0.0027775   -9.1516647  
H   -8.7909466    0.0007569   -5.8699767  
C   -3.3460096   -0.0004265   -2.7913646  
C   -3.9807085   -0.0008721   -1.5960671  
C   -5.3980828   -0.0010999   -1.9240143  
C   -5.4386233   -0.0006190   -3.4021688  
N   -4.2387205   -0.0003037   -3.9161945  
C   -6.6781272   -0.0007182   -4.1292983  
C   -7.8249972   -0.0016616   -3.4123443  
O   -9.0523465   -0.0018579   -3.9597493  
C   -7.8170032   -0.0025378   -1.9196634  
O   -8.8987494   -0.0032509   -1.3322576  
C   -6.5326743   -0.0023731   -1.1968748  
H   -3.5413283   -0.0011176   -0.6132039  
H   -9.6625606   -0.0026195   -3.2002818  
H   -6.5697686   -0.0031427   -0.1157395  
C    0.0000000    0.0000000    0.0000000  
C    1.0662919   -0.0000103   -0.8334269  
C    0.4961869    0.0000064   -2.1718889  
C   -0.9663859   -0.0000850   -1.9540246  
N   -1.2632774   -0.0000084   -0.6828657  
C   -1.8985363   -0.0000518   -3.0477257  
C   -1.3925778    0.0004564   -4.3020545  
O   -2.1456384    0.0005409   -5.4151311  
C    0.0786230    0.0009323   -4.5544998  
O    0.4683758    0.0012588   -5.7221098  
C    1.0143164    0.0008442   -3.4159030  
H    2.1107195    0.0000633   -0.5721867  
H   -1.5042275    0.0009691   -6.1484418  
H    2.0724152    0.0013148   -3.6409744  
C    3.3321173   -0.0004715    2.8079335  
C    2.6974184   -0.0000116    4.0032312  
C    1.2800439    0.0002118    3.6752840  
C    1.2395035   -0.0000644    2.1971295  
N    2.4394063   -0.0005460    1.6831036  
C    0.0000000    0.0000000    1.4700000  
C   -1.1468701   -0.0000635    2.1869543  
O   -2.3742202   -0.0000073    1.6395491  
C   -1.1388768   -0.0001607    3.6796354  
O   -2.2206231   -0.0000905    4.2670412  
C    0.1454524   -0.0001816    4.4024240  
H    3.1367986    0.0000651    4.9860947  
H   -2.9844344   -0.0001026    2.3990168  
H    0.1083576   -0.0003682    5.4835595  
H    4.3940039   -0.0007619    2.6198634  
