58

C    3.2573683   -0.0002919   -1.5109364  
C    2.5379474   -0.0001708   -0.3591949  
C    1.1435052    0.0000330   -0.7338494  
C    1.1092620   -0.0000083   -2.2088471  
N    2.4227581    0.0001909   -2.6182598  
C   -0.0265516   -0.0002526   -2.9515660  
C   -1.3003024   -0.0002642   -2.2514985  
O   -2.3786769   -0.0004139   -2.8306441  
C   -1.2877722    0.0000310   -0.6895611  
O   -2.3539955    0.0003304   -0.0892047  
C    0.0000000    0.0000000    0.0000000  
H    2.9384089   -0.0000366    0.6389253  
H   -0.0296265   -0.0004089   -4.0327231  
H    4.3270408   -0.0004763   -1.6439421  
C    5.7080875   -2.1452808   -4.5132687  
C    5.6084263   -1.7395372   -5.8005212  
C    4.4745366   -0.8282632   -5.8198364  
C    3.9954417   -0.7997403   -4.4211803  
N    4.7146947   -1.5697627   -3.6506413  
C    2.8699667   -0.0020527   -4.0185812  
C    2.2514706    0.7339938   -4.9699130  
O    1.1895430    1.5236023   -4.7356739  
C    2.7114703    0.7266527   -6.3899511  
O    2.1009891    1.4209391   -7.2026620  
C    3.8682987   -0.0998711   -6.7779341  
H    0.9754942    1.9146999   -5.6019174  
H    4.1702591   -0.0775375   -7.8164675  
H    6.4257032   -2.8272442   -4.0855690  
C    6.9389267   -3.3707342   -7.1893946  
C    6.4542865   -2.1272413   -6.9385488  
C    6.9284080   -1.2689114   -7.9984138  
C    7.7347518   -2.1203911   -8.8937249  
N    7.7017934   -3.3825995   -8.3472515  
C    8.3578383   -1.6818056  -10.0167168  
C    8.2256411   -0.2773591  -10.3668441  
O    8.7489619    0.2140767  -11.3582715  
C    7.3765835    0.6427638   -9.4328840  
O    7.2583986    1.8269953   -9.7172918  
C    6.7525816    0.0546417   -8.2502660  
H    8.9444992   -2.3230357  -10.6598052  
H    6.1661836    0.6984509   -7.6088833  
H    6.8031439   -4.2794157   -6.6257004  
H    8.1595546   -4.1887093   -8.7315552  
C    2.4951002    2.0940188    2.9809380  
C    1.9440701    1.6314916    1.8291961  
C    0.8759964    0.7350050    2.2038498  
C    0.8497377    0.7130254    3.6788474  
N    1.8560616    1.5571714    4.0882609  
C   -0.0205033   -0.0168748    4.4215661  
C   -0.9962600   -0.8356168    3.7214979  
O   -1.8224391   -1.5286685    4.3006425  
C   -0.9864710   -0.8277881    2.1595606  
O   -1.8030528   -1.5133726    1.5592035  
C    0.0000000    0.0000000    1.4700000  
H    2.2509283    1.8888011    0.8310761  
H   -0.0229599   -0.0187323    5.5027230  
H    3.3143982    2.7817323    3.1139444  
H    2.0889452    1.7545833    5.0442112  
