58

C    3.3373825   -3.5845900   -4.3524961  
C    4.4094257   -4.3660136   -4.6426266  
C    4.6714733   -4.2139427   -6.0543775  
C    3.6569630   -3.2731011   -6.5666057  
N    2.8789095   -2.9293009   -5.4852531  
C    3.5658902   -2.8691970   -7.8589949  
C    4.5313691   -3.3964662   -8.8089295  
O    4.5326241   -3.0936107   -9.9949217  
C    5.6144256   -4.3944410   -8.2885061  
O    6.4324069   -4.8452136   -9.0790564  
C    5.6116317   -4.7546382   -6.8728421  
H    4.9543306   -4.9791389   -3.9470907  
H    2.8140799   -2.1780953   -8.2140589  
H    6.3649576   -5.4460566   -6.5204692  
H    2.8435611   -3.4324628   -3.4065113  
C    1.7371424   -2.0043750   -5.5274499  
C    0.9346266   -1.6238673   -4.5062931  
C   -0.0220096   -0.7047842   -5.1034810  
C    0.3601286   -0.6444245   -6.5306850  
N    1.3906159   -1.4042329   -6.7851956  
C   -0.3537166    0.1694992   -7.4756929  
C   -1.4019181    0.8900574   -7.0159061  
O   -2.1569094    1.6919656   -7.7859529  
C   -1.8124076    0.8499979   -5.5813138  
O   -2.7762296    1.5318134   -5.2328958  
C   -1.0641734    0.0073898   -4.6315339  
H    0.9854830   -1.9292388   -3.4751590  
H   -0.0524154    0.1947168   -8.5127516  
H   -2.8200949    2.0664814   -7.1784370  
C    1.1319248    0.0015675   -0.8009270  
C    0.7969916    0.0034959   -2.1169404  
C   -0.6453336    0.0035703   -2.1842672  
C   -1.1266831    0.0015415   -0.7896027  
N    0.0000000    0.0000000    0.0000000  
C   -2.4346129    0.0013924   -0.4276297  
C   -3.4350110    0.0031352   -1.4820184  
O   -4.6384610    0.0030897   -1.2583919  
C   -2.9478958    0.0050460   -2.9661075  
O   -3.7809377    0.0062160   -3.8623775  
C   -1.5113821    0.0053068   -3.2312125  
H    1.4821240    0.0045436   -2.9459192  
H   -2.7664565    0.0000185    0.6013447  
H    2.1104318    0.0009428   -0.3488058  
C    2.3971438    2.0127888    3.1728260  
C    1.9431056    1.6308205    1.9564670  
C    0.8496017    0.7127664    2.2356185  
C    0.7794028    0.6545384    3.7115134  
N    1.6840587    1.4146091    4.2663826  
C   -0.1885723   -0.1578550    4.3957118  
C   -1.0476298   -0.8789867    3.6398520  
O   -2.0015663   -1.6796266    4.1448486  
C   -1.0022026   -0.8410666    2.1483229  
O   -1.8147390   -1.5232959    1.5241687  
C    0.0000000    0.0000000    1.4700000  
H    2.3054237    1.9346118    0.9892483  
H   -0.2170646   -0.1815267    5.4753125  
H   -2.4487139   -2.0549881    3.3649027  
H    3.2048689    2.6911772    3.3971983  
