60

C    3.3003547    0.0005275   -1.4738980  
C    2.5232816    0.0003495   -2.6090742  
C    1.1623206   -0.0001320   -2.1820096  
C    1.1711889    0.0000583   -0.7636136  
N    2.4852300   -0.0014920   -0.3662353  
C    0.0000000    0.0000000    0.0000000  
C   -1.2020382    0.0000519   -0.6806479  
O   -2.3759247    0.0003494    0.0157745  
C   -1.2314650   -0.0005113   -2.0955508  
O   -2.5054383   -0.0008037   -2.6250181  
C   -0.0764510   -0.0007273   -2.8495192  
H    2.8919962   -0.0005621   -3.6205295  
H    2.8036265    0.0088181    0.5858667  
H   -3.0835641    0.0000347   -0.6418820  
H   -2.4360047   -0.0011529   -3.5845921  
C    5.6726965   -0.0003332   -2.3740972  
C    6.9488235   -0.0025409   -1.9098027  
C    6.8722132   -0.0036206   -0.4679410  
C    5.4365533   -0.0018775   -0.1278399  
N    4.7630506    0.0004754   -1.3275394  
C    4.9461563   -0.0026251    1.1375512  
C    5.8957025   -0.0051008    2.2379557  
O    5.5533679   -0.0058843    3.4131609  
C    7.4209164   -0.0067251    1.9010216  
O    8.2297925   -0.0085060    2.8191589  
C    7.8277287   -0.0059964    0.4980406  
H    7.8418986   -0.0031413   -2.5089949  
H    3.8892553   -0.0014456    1.3652984  
H    8.8856414   -0.0073364    0.2732230  
H    5.3202462    0.0009881   -3.3927562  
C    2.2675107   -2.0960614   -5.9498174  
C    1.7744254   -1.6329638   -4.7723274  
C    0.6888627   -0.7368509   -5.0938394  
C    0.5891940   -0.7157122   -6.5657122  
N    1.5740363   -1.5599388   -7.0242501  
C   -0.3170773    0.0136354   -7.2645893  
C   -1.2569144    0.8326276   -6.5172655  
O   -2.1110276    1.5252262   -7.0549445  
C   -1.1693688    0.8256867   -4.9577486  
O   -1.9551691    1.5114887   -4.3178628  
C   -0.1496409   -0.0015614   -4.3176961  
H    2.1306445   -1.8896608   -3.7905799  
H   -0.3733609    0.0148791   -8.3442837  
H    3.0792932   -2.7837270   -6.1230660  
H    1.7590703   -1.7578581   -7.9904993  
C    0.8175213    0.6860729    2.3021913  
C    0.0000000    0.0000000    1.4700000  
C   -0.8887526   -0.7456559    2.3478473  
C   -0.4549825   -0.3816753    3.7138435  
N    0.5448156    0.4573574    3.6934124  
C   -1.0945674   -0.9182058    4.8835240  
C   -2.1210866   -1.7789155    4.6970523  
O   -2.8083856   -2.3554314    5.6976972  
C   -2.5824069   -2.1655116    3.3310774  
O   -3.5227682   -2.9541547    3.2362962  
C   -1.9100805   -1.6015804    2.1470656  
H   -0.7567140   -0.6349833    5.8697035  
H   -3.4728268   -2.9124471    5.2533954  
H   -2.2742832   -1.9066565    1.1752040  
H    1.6189533    1.3585343    2.0405121  
