58

C    2.9742269    0.0012771   -6.9991141  
C    3.4846818    0.0019094   -5.7407379  
C    4.9227984    0.0018180   -5.8697996  
C    5.2103966    0.0011047   -7.3168924  
N    3.9869675    0.0004053   -7.9462649  
C    6.4570925    0.0012145   -7.8530397  
C    7.5913448    0.0018677   -6.9441892  
O    8.7533051    0.0019546   -7.3290895  
C    7.3101707    0.0023770   -5.4077177  
O    8.2571537    0.0026220   -4.6328087  
C    5.9229330    0.0024816   -4.9500892  
H    2.9184066    0.0022030   -4.8264376  
H    6.6462034    0.0008125   -8.9175326  
H    5.7367869    0.0030405   -3.8846914  
H    3.8507613    0.0013758   -8.9404954  
C   -0.8287671    0.0000935   -4.7555305  
C    0.4829789    0.0003530   -5.1068098  
C    0.5323574    0.0005979   -6.5498614  
C   -0.8681890    0.0004882   -7.0138227  
N   -1.6437154   -0.0002183   -5.8774035  
C   -1.2464054    0.0010496   -8.3171481  
C   -0.2045430    0.0015867   -9.3305858  
O   -0.4431238    0.0020512  -10.5311605  
C    1.2854927    0.0014600   -8.8619716  
O    2.1713306    0.0016020   -9.7060991  
C    1.5684487    0.0011145   -7.4288673  
H    1.3204180    0.0001883   -4.4320437  
H   -2.2794297    0.0010872   -8.6361648  
H   -2.6471542    0.0011001   -5.8649191  
C    1.0672566   -0.0000698   -0.8321912  
C    0.0000000    0.0000000    0.0000000  
C   -1.1601226   -0.0000736   -0.8778472  
C   -0.5938732   -0.0000770   -2.2438435  
N    0.7113365   -0.0001555   -2.2234123  
C   -1.4286989   -0.0001880   -3.4135239  
C   -2.7683117   -0.0006800   -3.2270522  
O   -3.6653907   -0.0008306   -4.2276967  
C   -3.3702026   -0.0010611   -1.8610771  
O   -4.5974909   -0.0013781   -1.7662957  
C   -2.4926826   -0.0008944   -0.6770655  
H   -4.5324249   -0.0012263   -3.7833950  
H   -2.9677773   -0.0012975    0.2947963  
H    2.1134390   -0.0000546   -0.5705121  
C    0.8681109    0.7263879    2.2709268  
C    0.6127770    0.5096195    3.5869401  
C   -0.4920590   -0.4175482    3.6542670  
C   -0.8620974   -0.7254003    2.2596025  
N    0.0000000    0.0000000    1.4700000  
C   -1.8641242   -1.5660088    1.8976294  
C   -2.6293522   -2.2103885    2.9520183  
O   -3.5512764   -2.9839180    2.7283916  
C   -2.2549728   -1.8987399    4.4361073  
O   -2.8923672   -2.4351063    5.3323774  
C   -1.1543735   -0.9755647    4.7012123  
H    1.1382914    0.9492124    4.4159191  
H   -2.1192137   -1.7782617    0.8686553  
H   -0.9013378   -0.7652422    5.7314848  
H    1.6172880    1.3558399    1.8188057  
