60

C    3.3041270    0.0001178   -1.5420432  
C    2.5845372   -0.0004779   -0.3695853  
C    1.2040007   -0.0000006   -0.7283591  
C    1.1422373    0.0006039   -2.1454374  
N    2.4348636    0.0026110   -2.6077466  
C   -0.0655186    0.0008800   -2.8497915  
C   -1.2321770    0.0002326   -2.1101397  
O   -2.4392818    0.0001149   -2.7472515  
C   -1.1911209   -0.0000006   -0.6955262  
O   -2.4371522   -0.0002319   -0.1032858  
C    0.0000000    0.0000000    0.0000000  
H    3.0031535   -0.0000661    0.6222580  
H    2.7054625   -0.0071097   -3.5745263  
H   -3.1132993   -0.0000646   -2.0551781  
H   -2.3200286   -0.0004070    0.8516413  
C    5.7183462    0.0008988   -0.7610764  
C    6.9697732    0.0035942   -1.2883311  
C    6.8214686    0.0054665   -2.7245894  
C    5.3706562    0.0036572   -2.9927892  
N    4.7577214    0.0005130   -1.7610465  
C    4.8178652    0.0050248   -4.2321942  
C    5.7114453    0.0082855   -5.3785093  
O    5.3110217    0.0096651   -6.5352118  
C    7.2515428    0.0099939   -5.1179311  
O    8.0137026    0.0124328   -6.0752019  
C    7.7277041    0.0085533   -3.7369455  
H    7.8915733    0.0040190   -0.7343470  
H    3.7509359    0.0037840   -4.4070375  
H    8.7954986    0.0099565   -3.5650785  
H    5.4170503   -0.0010550    0.2738664  
C    2.2991554   -2.1048097   -5.8924429  
C    1.6888956   -1.6397492   -7.0128789  
C    0.6412937   -0.7448181   -6.5810641  
C    0.6916331   -0.7264670   -5.1066422  
N    1.7177148   -1.5716516   -4.7520878  
C   -0.1387086    0.0017020   -4.3179679  
C   -1.1495782    0.8219302   -4.9644225  
O   -1.9445183    1.5135267   -4.3414737  
C   -1.2212027    0.8175536   -6.5247612  
O   -2.0683181    1.5039444   -7.0802108  
C   -0.2716616   -0.0081808   -7.2666415  
H    1.9434327   -1.8946828   -8.0262068  
H   -0.3277644   -0.0054792   -8.3467194  
H    3.1245930   -2.7923373   -5.8038523  
H    2.0018696   -1.7690375   -3.8100996  
C    0.8175213    0.6860729    2.3021913  
C    0.0000000    0.0000000    1.4700000  
C   -0.8887526   -0.7456559    2.3478473  
C   -0.4549825   -0.3816753    3.7138435  
N    0.5448156    0.4573574    3.6934124  
C   -1.0945674   -0.9182058    4.8835240  
C   -2.1210866   -1.7789155    4.6970523  
O   -2.8083856   -2.3554314    5.6976972  
C   -2.5824069   -2.1655116    3.3310774  
O   -3.5227682   -2.9541547    3.2362962  
C   -1.9100805   -1.6015804    2.1470656  
H   -0.7567140   -0.6349833    5.8697035  
H   -3.4728268   -2.9124471    5.2533954  
H   -2.2742832   -1.9066565    1.1752040  
H    1.6189533    1.3585343    2.0405121  
