60

C    3.3041271    0.0001181   -1.5420437  
C    2.5845371   -0.0004776   -0.3695862  
C    1.2040005   -0.0000005   -0.7283593  
C    1.1422370    0.0006041   -2.1454376  
N    2.4348637    0.0026117   -2.6077472  
C   -0.0655185    0.0008803   -2.8497919  
C   -1.2321770    0.0002328   -2.1101399  
O   -2.4392817    0.0001152   -2.7472520  
C   -1.1911210   -0.0000005   -0.6955265  
O   -2.4371527   -0.0002321   -0.1032863  
C    0.0000000    0.0000000    0.0000000  
H    3.0031537   -0.0000659    0.6222573  
H    2.7054627   -0.0071092   -3.5745266  
H   -3.1132989   -0.0000648   -2.0551787  
H   -2.3200280   -0.0004074    0.8516410  
H    4.3686617    0.0004076   -1.7024302  
C    2.2805259   -2.0884661   -5.9525551  
C    1.7869808   -1.6272468   -4.7745209  
C    0.7005260   -0.7318372   -5.0949775  
C    0.6008349   -0.7090642   -6.5668244  
N    1.5865170   -1.5517692   -7.0263555  
C   -0.3061627    0.0202033   -7.2648422  
C   -1.2468145    0.8373785   -6.5165544  
O   -2.1016174    1.5297590   -7.0534175  
C   -1.1592606    0.8286880   -4.9570472  
O   -1.9457428    1.5129533   -4.3163538  
C   -0.1387088    0.0017024   -4.3179686  
H    2.1434560   -1.8847448   -3.7930760  
H   -0.3624485    0.0226623   -8.3445351  
H    1.7717475   -1.7483659   -7.9928371  
C    5.1214341   -4.3605135   -3.3773888  
C    4.1197813   -3.5376799   -3.7662527  
C    4.1251331   -3.6011342   -5.2196778  
C    5.2241319   -4.5344216   -5.5479470  
N    5.8117789   -4.9828657   -4.4720479  
C    5.5582154   -4.8692032   -6.9049275  
C    4.8273624   -4.2979126   -7.8892117  
O    5.0290197   -4.5199863   -9.1991957  
C    3.7117393   -3.3523875   -7.5899998  
O    3.0889438   -2.8697634   -8.5357377  
C    3.3885277   -3.0248887   -6.1899273  
H    3.4588471   -2.9591840   -3.1436899  
H    6.3665139   -5.5541115   -7.1157908  
H    4.3572739   -3.9764024   -9.6491154  
H    5.4419158   -4.5880914   -2.3731608  
C    2.5128556    2.1077716    2.9199648  
C    1.9592212    1.6432552    4.0696553  
C    0.8915788    0.7479214    3.6910360  
C    0.8684491    0.7287414    2.2159470  
N    1.8754542    1.5738793    1.8102719  
C    0.0000000    0.0000000    1.4700000  
C   -0.9772830   -0.8200135    2.1664417  
O   -1.8021297   -1.5120829    1.5842315  
C   -0.9711318   -0.8147624    3.7284083  
O   -1.7894187   -1.5009653    4.3257297  
C    0.0140216    0.0115358    4.4216297  
H    2.2638494    1.8988021    5.0689105  
H    0.0117648    0.0094386    5.5031631  
H    3.3327358    2.7953732    2.7900019  
H    2.1123206    1.7707734    0.8551938  
