58

C    4.7405458   -1.0806248   -4.9792602  
C    5.5335136   -1.9544484   -4.3071667  
C    6.6655378   -2.2359156   -5.1581279  
C    6.4656576   -1.4487778   -6.3898960  
N    5.2807312   -0.7710055   -6.2182416  
C    7.3199571   -1.4407074   -7.4443208  
C    8.5160138   -2.2622667   -7.3605119  
O    9.3466442   -2.3229285   -8.2575469  
C    8.7478063   -3.1042331   -6.0654562  
O    9.7510704   -3.7999488   -5.9835751  
C    7.7556719   -3.0305263   -4.9958360  
H    5.3466556   -2.3561554   -3.3272036  
H    7.1547094   -0.8559991   -8.3385912  
H    7.9236814   -3.6163889   -4.1023816  
H    4.8723878   -0.1459786   -6.8887968  
C    2.8279729   -0.7071295   -3.3541666  
C    1.6707636   -0.0012343   -3.2725974  
C    1.5420221    0.7399978   -4.5050081  
C    2.7275721    0.4056552   -5.3170902  
N    3.4672606   -0.4755786   -4.5626515  
C    2.9773518    0.9038688   -6.5544653  
C    2.0143736    1.8314552   -7.1243701  
O    2.1493672    2.3348422   -8.2319256  
C    0.7517059    2.1998425   -6.2818939  
O   -0.0658610    2.9799880   -6.7511667  
C    0.5920508    1.5980569   -4.9604489  
H    3.8531180    0.6455753   -7.1334536  
H   -0.2850565    1.8581559   -4.3835990  
H    3.2676542   -1.3768498   -2.6330257  
C    1.0965514    0.0001358   -0.8010306  
C    0.0000000    0.0000000    0.0000000  
C   -1.1546565    0.0001470   -0.8669508  
C   -0.6372019    0.0003520   -2.2486278  
N    0.7342867    0.0007338   -2.1395012  
C   -1.4147744    0.0001354   -3.3608712  
C   -2.8576052   -0.0001047   -3.1854454  
O   -3.6427785   -0.0002490   -4.1244896  
C   -3.4275841   -0.0000727   -1.7311660  
O   -4.6406832    0.0000333   -1.5710049  
C   -2.4891868   -0.0001090   -0.6116739  
H   -1.0150456    0.0001617   -4.3654239  
H   -2.8919122   -0.0002919    0.3920871  
H    2.1388270    0.0000663   -0.5261650  
C    0.8175213    0.6860729    2.3021913  
C    0.0000000    0.0000000    1.4700000  
C   -0.8887526   -0.7456559    2.3478473  
C   -0.4549825   -0.3816753    3.7138435  
N    0.5448156    0.4573574    3.6934124  
C   -1.0945674   -0.9182058    4.8835240  
C   -2.1210866   -1.7789155    4.6970523  
O   -2.8083856   -2.3554314    5.6976972  
C   -2.5824069   -2.1655116    3.3310774  
O   -3.5227682   -2.9541547    3.2362962  
C   -1.9100805   -1.6015804    2.1470656  
H   -0.7567140   -0.6349833    5.8697035  
H   -3.4728268   -2.9124471    5.2533954  
H   -2.2742832   -1.9066565    1.1752040  
H    1.6189533    1.3585343    2.0405121  
