58

C   -6.3456172    1.0733388   -0.9608646  
C   -6.1529800    1.9468480    0.0608730  
C   -7.4517685    2.2260140    0.6266023  
C   -8.4238258    1.4378685   -0.1548846  
N   -7.6894296    0.7617690   -1.1016904  
C   -9.7623299    1.4276395    0.0687428  
C  -10.2801514    2.2477732    1.1512293  
O  -11.4701476    2.3064674    1.4318759  
C   -9.2688391    3.0907721    1.9917084  
O   -9.6931258    3.7853035    2.9054204  
C   -7.8490560    3.0194132    1.6555912  
H   -5.2088232    2.3497941    0.3815216  
H  -10.4581055    0.8422250   -0.5161470  
H   -7.1553532    3.6059781    2.2424830  
H   -8.0706748    0.1365719   -1.7878596  
C   -3.9884053    0.7039232   -1.8242583  
C   -3.3460097   -0.0004262   -2.7913647  
C   -4.3537576   -0.7427567   -3.5112429  
C   -5.6451796   -0.4107432   -2.8797467  
N   -5.3546447    0.4703280   -1.8637778  
C   -6.8441771   -0.9105386   -3.2725756  
C   -6.8640249   -1.8374915   -4.3919058  
O   -7.8934838   -2.3421825   -4.8206287  
C   -5.5080965   -2.2034208   -5.0755418  
O   -5.5122767   -2.9830138   -6.0186632  
C   -4.2805263   -1.6000814   -4.5627984  
H   -7.7799856   -0.6539442   -2.7957828  
H   -3.3459149   -1.8584818   -5.0418129  
H   -3.5786587    1.3738259   -1.0858632  
C    0.0000000    0.0000000    0.0000000  
C    1.0662919   -0.0000103   -0.8334272  
C    0.4961868    0.0000066   -2.1718889  
C   -0.9663860   -0.0000849   -1.9540248  
N   -1.2632775   -0.0000084   -0.6828659  
C   -1.8985364   -0.0000515   -3.0477258  
C   -1.3925778    0.0004567   -4.3020543  
O   -2.1456385    0.0005412   -5.4151314  
C    0.0786229    0.0009326   -4.5544999  
O    0.4683756    0.0012594   -5.7221104  
C    1.0143162    0.0008443   -3.4159034  
H    2.1107195    0.0000631   -0.5721869  
H   -1.5042277    0.0009692   -6.1484420  
H    2.0724151    0.0013151   -3.6409746  
C    1.0965515   -0.0001358    2.2710304  
C    0.0000000    0.0000000    1.4700000  
C   -1.1546562   -0.0001469    2.3369512  
C   -0.6372014   -0.0003519    3.7186280  
N    0.7342871   -0.0007337    3.6095011  
C   -1.4147739   -0.0001353    4.8308716  
C   -2.8576048    0.0001048    4.6554461  
O   -3.6427778    0.0002493    5.5944904  
C   -3.4275839    0.0000726    3.2011665  
O   -4.6406829   -0.0000333    3.0410059  
C   -2.4891866    0.0001091    2.0816745  
H   -1.0150448   -0.0001615    5.8354244  
H   -2.8919121    0.0002919    1.0779135  
H    2.1388271   -0.0000662    1.9961646  
H    1.3735872    0.0006099    4.3830260  
