62

C    4.1072303   -0.7191023   -4.4475472  
C    3.0267433   -0.0008947   -3.9901699  
C    2.5087344    0.7258922   -5.1028455  
C    3.3206451    0.4084345   -6.2217506  
N    4.2827389   -0.4698428   -5.7885972  
C    3.1000325    0.9464857   -7.4932141  
C    2.0403143    1.8207030   -7.6378508  
O    1.7797466    2.3748859   -8.8576868  
C    1.2191161    2.1500706   -6.5333297  
O    0.2053884    3.0346610   -6.8386143  
C    1.4363344    1.6198580   -5.2786520  
H    3.7152882    0.7086621   -8.3500122  
H    1.0098898    2.9463183   -8.7391490  
H   -0.3015567    3.2041275   -6.0386819  
H    0.7906448    1.8909176   -4.4515547  
H    4.7674524   -1.3883357   -3.9229595  
C    3.3003543    0.0005277   -1.4738984  
C    2.5232813    0.0003500   -2.6090746  
C    1.1623201   -0.0001317   -2.1820101  
C    1.1711884    0.0000583   -0.7636139  
N    2.4852298   -0.0014919   -0.3662355  
C    0.0000000    0.0000000    0.0000000  
C   -1.2020383    0.0000520   -0.6806478  
O   -2.3759254    0.0003497    0.0157747  
C   -1.2314658   -0.0005111   -2.0955512  
O   -2.5054392   -0.0008038   -2.6250184  
C   -0.0764517   -0.0007270   -2.8495193  
H    2.8036267    0.0088183    0.5858660  
H   -3.0835638    0.0000347   -0.6418817  
H   -2.4360049   -0.0011522   -3.5845925  
H   -0.1304094   -0.0013419   -3.9319087  
H    4.3715550    0.0004896   -1.3667135  
C    5.7574668   -2.3853967   -6.5594370  
C    6.7358152   -2.6282875   -7.4693345  
C    6.9628043   -1.3938408   -8.1830941  
C    6.0298313   -0.4047623   -7.6103145  
N    5.3276212   -1.0690335   -6.6312670  
C    5.9348306    0.8870331   -8.0152138  
C    6.8097112    1.3329414   -9.0867932  
O    6.8001471    2.4769647   -9.5220183  
C    7.8054497    0.3023377   -9.7082150  
O    8.5467642    0.6661296  -10.6111935  
C    7.8157095   -1.0624409   -9.1875167  
H    7.2407156   -3.5653289   -7.6230983  
H    5.2436824    1.5964222   -7.5816334  
H    8.5082389   -1.7698550   -9.6230512  
H    5.3141723   -3.0573522   -5.8426003  
C    0.8400945    0.7047457    2.2710304  
C    0.0000000    0.0000000    1.4700000  
C   -0.8844236   -0.7423113    2.3369512  
C   -0.4878984   -0.4098547    3.7186280  
N    0.5629682    0.4714286    3.6095011  
C   -1.0836927   -0.9095027    4.8308716  
C   -2.1891196   -1.8367527    4.6554461  
O   -2.7906899   -2.3413415    5.5944904  
C   -2.6257283   -2.2031529    3.2011665  
O   -3.5549479   -2.9829990    3.0410059  
C   -1.9068976   -1.5999348    2.0816745  
H   -0.7774656   -0.6525820    5.8354244  
H   -2.2155208   -1.8586617    1.0779135  
H    1.6384792    1.3747609    1.9961646  
H    1.0518368    0.8833920    4.3830260  
