60

C   -1.1240191    0.0287078   -0.7919006  
C   -0.7477717    0.0022815   -2.1148546  
C    0.6775293   -0.0467938   -2.1414702  
C    1.1191717   -0.0484043   -0.7935548  
N    0.0000000    0.0000000    0.0000000  
C    2.4713975   -0.0914782   -0.4408242  
C    3.3945951   -0.1340024   -1.4675060  
O    4.7280458   -0.1774467   -1.1793469  
C    2.9735574   -0.1327643   -2.8186324  
O    4.0129089   -0.1777213   -3.7247622  
C    1.6397302   -0.0900106   -3.1673482  
H    2.8144897   -0.0928045    0.5845967  
H    5.1900110   -0.2018204   -2.0274378  
H    3.6426479   -0.1736939   -4.6127343  
H    1.3474476   -0.0900125   -4.2109234  
H   -2.1051805    0.0672077   -0.3505413  
C   -1.6630760    0.0233583   -3.2649302  
C   -3.0155714    0.0701687   -3.2529364  
C   -3.4033023    0.0707097   -4.6551364  
C   -2.1243006    0.0198749   -5.3955107  
N   -1.1007183   -0.0081311   -4.5858911  
C   -2.0766066    0.0050568   -6.8316834  
C   -3.2531650    0.0390702   -7.4979333  
O   -3.3575382    0.0303320   -8.8377360  
C   -4.5604568    0.0902987   -6.7792369  
O   -5.5921711    0.1194522   -7.4500110  
C   -4.5829642    0.1046435   -5.3057340  
H   -3.6693772    0.1004856   -2.3981289  
H   -4.3155664    0.0613821   -9.0120070  
H   -5.5502749    0.1419830   -4.8228825  
C    0.3071562   -0.8061713   -7.1446498  
C    1.3487448   -0.6327561   -7.9985206  
C    0.9127843    0.3005617   -9.0102967  
C   -0.4781354    0.6592682   -8.6734537  
N   -0.7854287   -0.0455535   -7.5325389  
C   -1.2451120    1.5200191   -9.3893867  
C   -0.6618244    2.1339613  -10.5706506  
O   -1.2713838    2.9222561  -11.2815164  
C    0.8095810    1.7683463  -10.9462782  
O    1.3112438    2.2787397  -11.9387976  
C    1.5356509    0.8276081  -10.0967570  
H    2.3124216   -1.1049184   -7.9277853  
H   -2.2632862    1.7696545   -9.1249759  
H    2.5540521    0.5798739  -10.3636103  
H    0.2457293   -1.4257988   -6.2647756  
C    0.8400945    0.7047457    2.2710304  
C    0.0000000    0.0000000    1.4700000  
C   -0.8844236   -0.7423113    2.3369512  
C   -0.4878984   -0.4098547    3.7186280  
N    0.5629682    0.4714286    3.6095011  
C   -1.0836927   -0.9095027    4.8308716  
C   -2.1891196   -1.8367527    4.6554461  
O   -2.7906899   -2.3413415    5.5944904  
C   -2.6257283   -2.2031529    3.2011665  
O   -3.5549479   -2.9829990    3.0410059  
C   -1.9068976   -1.5999348    2.0816745  
H   -0.7774656   -0.6525820    5.8354244  
H   -2.2155208   -1.8586617    1.0779135  
H    1.6384792    1.3747609    1.9961646  
H    1.0518368    0.8833920    4.3830260  
