58

C   10.9955727    2.1109295   -2.1798381  
C   12.0051123    1.6469528   -1.3990502  
C   11.4130263    0.7515075   -0.4334171  
C    9.9654128    0.7316740   -0.7176945  
N    9.7777736    1.5765786   -1.7871886  
C    9.0554111    0.0026475   -0.0233452  
C    9.5336275   -0.8170051    1.0775698  
O    8.7928351   -1.5092889    1.7633325  
C   11.0626906   -0.8110610    1.3965320  
O   11.4769799   -1.4969553    2.3212878  
C   11.9453611    0.0154927    0.5770481  
H   13.0457725    1.9029270   -1.4891461  
H   13.0027578    0.0138757    0.8042772  
H   11.0387456    2.7984298   -3.0089149  
H    8.8927943    1.7730362   -2.2176114  
C    7.0021977    0.0016964   -3.8667569  
C    5.7010038    0.0007394   -3.4946381  
C    5.7268785    0.0007367   -2.0400488  
C    7.1642508    0.0016711   -1.6928540  
N    7.9166770    0.0023173   -2.7595516  
C    7.6175797    0.0019951   -0.3291902  
C    6.6776994    0.0018010    0.6434145  
O    6.9577654    0.0020529    1.9577977  
C    5.2193467    0.0012353    0.3250321  
O    4.4197297    0.0009616    1.2608917  
C    4.7795901    0.0008674   -1.0815733  
H    4.8310653    0.0002032   -4.1288957  
H    6.0879580    0.0018433    2.3966452  
H    7.4070859    0.0020142   -4.8662762  
C    3.3321168    0.0004716   -1.3379341  
C    2.6974177    0.0000118   -2.5332316  
C    1.2800432   -0.0002116   -2.2052842  
C    1.2395033    0.0000644   -0.7271298  
N    2.4394059    0.0005460   -0.2131041  
C    0.0000000    0.0000000    0.0000000  
C   -1.1468704    0.0000635   -0.7169542  
O   -2.3742206    0.0000074   -0.1695488  
C   -1.1388774    0.0001608   -2.2096352  
O   -2.2206238    0.0000906   -2.7970409  
C    0.1454514    0.0001818   -2.9324241  
H    3.1367978   -0.0000649   -3.5160956  
H   -2.9844350    0.0001027   -0.9290164  
H    0.1083567    0.0003684   -4.0135594  
C    0.8175213    0.6860729    2.3021913  
C    0.0000000    0.0000000    1.4700000  
C   -0.8887526   -0.7456559    2.3478473  
C   -0.4549825   -0.3816753    3.7138435  
N    0.5448156    0.4573574    3.6934124  
C   -1.0945674   -0.9182058    4.8835240  
C   -2.1210866   -1.7789155    4.6970523  
O   -2.8083856   -2.3554314    5.6976972  
C   -2.5824069   -2.1655116    3.3310774  
O   -3.5227682   -2.9541547    3.2362962  
C   -1.9100805   -1.6015804    2.1470656  
H   -0.7567140   -0.6349833    5.8697035  
H   -3.4728268   -2.9124471    5.2533954  
H   -2.2742832   -1.9066565    1.1752040  
H    1.6189533    1.3585343    2.0405121  
