62

C   -1.7667978    2.7920742   -1.5420440  
C   -1.3815337    2.1843068   -0.3695856  
C   -0.6437715    1.0174357   -0.7283591  
C   -0.6112572    0.9649193   -2.1454373  
N   -1.3041138    2.0561740   -2.6077472  
C    0.0342904   -0.0558365   -2.8497916  
C    0.6586430   -1.0413694   -2.1101392  
O    1.3041753   -2.0613650   -2.7472509  
C    0.6368872   -1.0065512   -0.6955255  
O    1.3033290   -2.0593803   -0.1032852  
C    0.0000000    0.0000000    0.0000000  
H   -1.6057143    2.5378363    0.6222576  
H    0.0625658   -0.1016540   -3.9297466  
H    1.6647201   -2.6308444   -2.0551776  
H    1.2408506   -1.9603110    0.8516423  
H   -2.3362436    3.6914998   -1.7024306  
C   -1.2418396    5.9509929   -4.8023240  
C   -1.1846371    4.9823897   -3.8271303  
C   -1.4310110    3.7318303   -4.4674439  
C   -1.6330488    4.0022979   -5.8451066  
N   -1.5132752    5.3594298   -6.0138209  
C   -1.9015279    2.9991957   -6.7813188  
C   -1.9669475    1.6993459   -6.3184059  
O   -2.2258070    0.6811664   -7.1897924  
C   -1.7685654    1.4094806   -4.9474790  
O   -1.8657652    0.0673054   -4.6434024  
C   -1.5039332    2.3985931   -4.0232755  
H   -0.9904410    5.1559563   -2.7825464  
H   -1.5965202    5.8450884   -6.8885708  
H   -2.0566084    3.1987947   -7.8326568  
H   -2.2278043   -0.1314499   -6.6673791  
H   -1.7190636   -0.0419606   -3.6988690  
C   -0.7962282    8.1386718   -3.5962504  
C   -1.0644264    7.4068383   -4.7026268  
C   -1.1406927    8.3765953   -5.7844094  
C   -0.8868562    9.6804473   -5.1347007  
N   -0.6841630    9.5472812   -3.8520581  
C   -0.8767521   10.9110800   -5.8766759  
C   -1.1092625   10.8422508   -7.2072909  
O   -1.1293020   11.9108570   -8.0219803  
C   -1.3683199    9.5414626   -7.8921261  
O   -1.5722866    9.5537413   -9.1059896  
C   -1.3734997    8.2929487   -7.1091110  
H   -0.6886628   11.8496432   -5.3760451  
H   -1.3187700   11.5458048   -8.9051521  
H   -1.5650474    7.3715061   -7.6424802  
H   -0.6634430    7.7890007   -2.5847805  
C    2.4951002    2.0940188    2.9809380  
C    1.9440701    1.6314916    1.8291961  
C    0.8759964    0.7350050    2.2038498  
C    0.8497377    0.7130254    3.6788474  
N    1.8560616    1.5571714    4.0882609  
C   -0.0205033   -0.0168748    4.4215661  
C   -0.9962600   -0.8356168    3.7214979  
O   -1.8224391   -1.5286685    4.3006425  
C   -0.9864710   -0.8277881    2.1595606  
O   -1.8030528   -1.5133726    1.5592035  
C    0.0000000    0.0000000    1.4700000  
H    2.2509283    1.8888011    0.8310761  
H   -0.0229599   -0.0187323    5.5027230  
H    3.3143982    2.7817323    3.1139444  
H    2.0889452    1.7545833    5.0442112  
