62

C    1.1188647    0.0008222   -0.8003809  
C    0.0000000    0.0000000    0.0000000  
C   -1.1323858    0.0008897   -0.8673529  
C   -0.6382654    0.0019677   -2.1969285  
N    0.7324023    0.0038481   -2.1202242  
C   -1.4770906    0.0027315   -3.3154813  
C   -2.8395469    0.0020940   -3.0876862  
O   -3.7039191    0.0024420   -4.1440354  
C   -3.3517865    0.0013925   -1.7684334  
O   -4.7300487    0.0012361   -1.7073134  
C   -2.5248542    0.0009120   -0.6644822  
H   -1.1067563    0.0036985   -4.3313815  
H   -4.5940025    0.0021823   -3.7685139  
H   -4.9934597    0.0007257   -0.7819921  
H   -2.9462573    0.0005599    0.3339647  
H    2.1619897    0.0009356   -0.5342067  
C    4.5154630   -2.1146754   -2.8156717  
C    4.7985782   -1.6646934   -4.0652465  
C    3.7280663   -0.7729176   -4.4441600  
C    2.7913715   -0.7399860   -3.3047266  
N    3.3260549   -1.5745769   -2.3505458  
C    1.6478442   -0.0100100   -3.2703000  
C    1.3174732    0.7969139   -4.4331690  
O    0.3100026    1.4889655   -4.4992703  
C    2.2949961    0.7769789   -5.6513050  
O    2.0272072    1.4520882   -6.6360779  
C    3.4969332   -0.0492778   -5.5706860  
H    5.6590353   -1.9276269   -4.6543934  
H    5.0755446   -2.7955783   -2.1955354  
H    2.9164740   -1.7608863   -1.4535624  
C    5.7769269   -3.3174752   -7.4888604  
C    6.3756566   -2.5616992   -8.4700801  
C    5.9240158   -1.2199494   -8.2959321  
C    5.0443866   -1.2179972   -7.1831991  
N    4.9759728   -2.5077783   -6.7180097  
C    4.4099732   -0.0603058   -6.7226998  
C    4.6684826    1.1169145   -7.3976094  
O    4.0757089    2.2768200   -6.9898682  
C    5.5428448    1.1351429   -8.5102536  
O    5.6973552    2.3841904   -9.0753650  
C    6.1688443   -0.0066166   -8.9652648  
H    7.0535790   -2.9321162   -9.2198838  
H    4.4360809   -2.8119503   -5.9280866  
H    4.3872287    2.9678585   -7.5887724  
H    6.3025826    2.3086336   -9.8194040  
H    6.8332837    0.0382252   -9.8202426  
H    5.8567322   -4.3703039   -7.2787601  
C    2.4951002    2.0940188    2.9809380  
C    1.9440701    1.6314916    1.8291961  
C    0.8759964    0.7350050    2.2038498  
C    0.8497377    0.7130254    3.6788474  
N    1.8560616    1.5571714    4.0882609  
C   -0.0205033   -0.0168748    4.4215661  
C   -0.9962600   -0.8356168    3.7214979  
O   -1.8224391   -1.5286685    4.3006425  
C   -0.9864710   -0.8277881    2.1595606  
O   -1.8030528   -1.5133726    1.5592035  
C    0.0000000    0.0000000    1.4700000  
H    2.2509283    1.8888011    0.8310761  
H   -0.0229599   -0.0187323    5.5027230  
H    3.3143982    2.7817323    3.1139444  
H    2.0889452    1.7545833    5.0442112  
