60

C    1.1243417    0.0099285   -0.7919008  
C    0.7474085    0.0234122   -2.1148546  
C   -0.6787371    0.0234880   -2.1414700  
C   -1.1201742    0.0099232   -0.7935543  
N    0.0000000    0.0000000    0.0000000  
C   -2.4730814    0.0065120   -0.4408243  
C   -3.3971951    0.0172921   -1.4675059  
O   -4.7313513    0.0148958   -1.1793466  
C   -2.9763637    0.0305207   -2.8186324  
O   -4.0166460    0.0397417   -3.7247621  
C   -1.6418544    0.0336202   -3.1673481  
H   -2.8160167   -0.0039505    0.5845968  
H   -5.1938810    0.0233831   -2.0274377  
H   -3.6464650    0.0484379   -4.6127340  
H   -1.3497450    0.0436645   -4.2109235  
H    2.1062467    0.0051619   -0.3505410  
C    4.4931722   -2.1129673   -2.7414610  
C    4.8570005   -1.6940920   -3.9758643  
C    3.8032757   -0.7792425   -4.3872202  
C    2.8585541   -0.7632354   -3.2497545  
N    3.2577223   -1.5430862   -2.2820318  
C    1.6628965    0.0337961   -3.2649303  
C    1.4221626    0.7811727   -4.3662069  
O    0.3457209    1.5716142   -4.5162630  
C    2.3566147    0.7866175   -5.5302213  
O    2.0741593    1.4908286   -6.4995131  
C    3.5764089   -0.0394893   -5.4905459  
H    5.7323726   -1.9715782   -4.5378254  
H    0.4530749    1.9719869   -5.3979257  
H    4.2275842   -0.0077020   -6.3537902  
C    6.3737612   -3.6790250   -2.1324836  
C    5.2011249   -3.0512929   -1.8587108  
C    4.7899492   -3.4823139   -0.5434196  
C    5.8266078   -4.4193068   -0.0699505  
N    6.7580936   -4.4954216   -1.0796190  
C    5.8043575   -5.0466240    1.1332466  
C    4.6845618   -4.7814149    2.0210848  
O    4.5734078   -5.2974247    3.1254755  
C    3.5751244   -3.7926874    1.5400722  
O    2.6273709   -3.5618550    2.2788141  
C    3.7094255   -3.1776102    0.2219315  
H    6.5749987   -5.7302684    1.4613509  
H    2.9370942   -2.4940340   -0.1035713  
H    6.9893980   -3.6140801   -3.0149025  
H    7.5900861   -5.0559653   -1.0545856  
C    2.5128556    2.1077716    2.9199648  
C    1.9592212    1.6432552    4.0696553  
C    0.8915788    0.7479214    3.6910360  
C    0.8684491    0.7287414    2.2159470  
N    1.8754542    1.5738793    1.8102719  
C    0.0000000    0.0000000    1.4700000  
C   -0.9772830   -0.8200135    2.1664417  
O   -1.8021297   -1.5120829    1.5842315  
C   -0.9711318   -0.8147624    3.7284083  
O   -1.7894187   -1.5009653    4.3257297  
C    0.0140216    0.0115358    4.4216297  
H    2.2638494    1.8988021    5.0689105  
H    0.0117648    0.0094386    5.5031631  
H    3.3327358    2.7953732    2.7900019  
H    2.1123206    1.7707734    0.8551938  
