58

C    2.2512046   -1.8345386   -7.7940132  
C    3.3236349   -2.6483260   -7.9721080  
C    3.6792778   -2.5762975   -9.3696653  
C    2.7192680   -1.6471557   -9.9956589  
N    1.8801995   -1.2330211   -8.9870221  
C    2.7200147   -1.3113548  -11.3105506  
C    3.7338694   -1.9048174  -12.1663765  
O    3.8178122   -1.6657843  -13.3639211  
C    4.7605787   -2.8917227  -11.5247439  
O    5.6185435   -3.3978088  -12.2354025  
C    4.6591142   -3.1757190  -10.0954425  
H    3.8099462   -3.2325502   -7.2113216  
H    2.0068852   -0.6276043  -11.7496880  
H    5.3739226   -3.8599547   -9.6588711  
H    1.1172314   -0.5909767   -9.0997442  
C    1.7720688   -2.0859335   -5.3149821  
C    0.8968264   -1.6247192   -4.3847633  
C   -0.0065337   -0.7270827   -5.0652227  
C    0.4171842   -0.7029980   -6.4782596  
N    1.5002594   -1.5471469   -6.5634081  
C   -0.1857664    0.0284587   -7.4494065  
C   -1.3281505    0.8467740   -7.0781196  
O   -1.9388952    1.5411249   -7.8800977  
C   -1.7940047    0.8367265   -5.5872531  
O   -2.7544405    1.5219332   -5.2627299  
C   -1.0641734    0.0073898   -4.6315339  
H    0.8854566   -1.8836207   -3.3409936  
H    0.1408072    0.0318496   -8.4800604  
H    2.5929126   -2.7739331   -5.1934839  
C    1.1319248    0.0015675   -0.8009270  
C    0.7969916    0.0034959   -2.1169404  
C   -0.6453336    0.0035703   -2.1842672  
C   -1.1266831    0.0015415   -0.7896027  
N    0.0000000    0.0000000    0.0000000  
C   -2.4346129    0.0013924   -0.4276297  
C   -3.4350110    0.0031352   -1.4820184  
O   -4.6384610    0.0030897   -1.2583919  
C   -2.9478958    0.0050460   -2.9661075  
O   -3.7809377    0.0062160   -3.8623775  
C   -1.5113821    0.0053068   -3.2312125  
H    1.4821240    0.0045436   -2.9459192  
H   -2.7664565    0.0000185    0.6013447  
H    2.1104318    0.0009428   -0.3488058  
C    0.0000000    0.0000000    1.4700000  
C    1.0541688    0.0001722    2.3260392  
C    0.5103138    0.0000454    3.6635956  
C   -0.9576371   -0.0002459    3.5155732  
N   -1.2018458    0.0001392    2.1615969  
C   -1.8348311   -0.0008317    4.5510609  
C   -1.2972847   -0.0009736    5.9014604  
O   -2.0050672   -0.0014265    6.9001319  
C    0.2542623   -0.0004184    6.0817573  
O    0.7184670   -0.0002256    7.2139121  
C    1.0974552   -0.0000873    4.8889129  
H    2.0940752    0.0005483    2.0517982  
H   -2.9081052   -0.0011668    4.4207061  
H    2.1707277    0.0000911    5.0223670  
H   -2.1128194   -0.0014912    1.7406791  
