60

C   -3.3040484    0.0228424   -1.5420434  
C   -2.5844716    0.0184377   -0.3695858  
C   -1.2039716    0.0083672   -0.7283592  
C   -1.1422143    0.0073335   -2.1454376  
N   -2.4348231    0.0143087   -2.6077468  
C    0.0655103   -0.0013352   -2.8497921  
C    1.2321455   -0.0087950   -2.1101400  
O    2.4392213   -0.0170653   -2.7472521  
C    1.1910917   -0.0082763   -0.6955266  
O    2.4370954   -0.0167037   -0.1032865  
C    0.0000000    0.0000000    0.0000000  
H   -3.0030804    0.0209348    0.6222580  
H   -2.7053480    0.0259096   -3.5745264  
H    0.1193420   -0.0023140   -3.9297475  
H    3.1132241   -0.0215695   -2.0551786  
H    2.3199756   -0.0157147    0.8516408  
C   -5.7394854    0.0404727   -0.8296821  
C   -4.7576105    0.0325481   -1.7610466  
C   -5.4528177    0.0358522   -3.0390044  
C   -6.8878936    0.0461267   -2.6825828  
N   -7.0621272    0.0489567   -1.3888968  
C   -7.9201295    0.0521145   -3.6823526  
C   -7.5361775    0.0484128   -4.9792341  
O   -8.3919938    0.0531863   -6.0153790  
C   -6.0958101    0.0384441   -5.3709027  
O   -5.8192575    0.0354211   -6.5703732  
C   -5.0557638    0.0324004   -4.3267801  
H   -7.8234955    0.0487311   -6.8065441  
H   -4.0239920    0.0253361   -4.6517832  
H   -5.6365821    0.0410432    0.2438089  
C   -9.8787914    0.7713665   -2.2659047  
C   -9.3365037    0.0620203   -3.2890502  
C  -10.4134622   -0.6736096   -3.9086019  
C  -11.6364022   -0.3322188   -3.1571631  
N  -11.2441529    0.5473319   -2.1746049  
C  -12.8708456   -0.8238064   -3.4331994  
C  -13.0038307   -1.7511893   -4.5444202  
O  -14.0729724   -2.2488795   -4.8723571  
C  -11.7218892   -2.1269752   -5.3538750  
O  -11.8214442   -2.9070188   -6.2913613  
C  -10.4468454   -1.5319830   -4.9613211  
H  -13.7550881   -0.5604070   -2.8695987  
H   -9.5640188   -1.7971809   -5.5270171  
H   -9.3958257    1.4387719   -1.5707759  
H  -11.8558843    0.9640437   -1.4969740  
C    0.0000000    0.0000000    1.4700000  
C    1.0541688    0.0001722    2.3260392  
C    0.5103138    0.0000454    3.6635956  
C   -0.9576371   -0.0002459    3.5155732  
N   -1.2018458    0.0001392    2.1615969  
C   -1.8348311   -0.0008317    4.5510609  
C   -1.2972847   -0.0009736    5.9014604  
O   -2.0050672   -0.0014265    6.9001319  
C    0.2542623   -0.0004184    6.0817573  
O    0.7184670   -0.0002256    7.2139121  
C    1.0974552   -0.0000873    4.8889129  
H    2.0940752    0.0005483    2.0517982  
H   -2.9081052   -0.0011668    4.4207061  
H    2.1707277    0.0000911    5.0223670  
H   -2.1128194   -0.0014912    1.7406791  
