58

C   -7.6673854    0.0591953   -1.9517683  
C   -8.4086069    0.7163789   -1.0229115  
C   -9.7852073    0.3374088   -1.2378287  
C   -9.7852182   -0.6011817   -2.3761777  
N   -8.4710007   -0.7271858   -2.7632766  
C  -10.8963664   -1.1875666   -2.8892145  
C  -12.1778236   -0.8731205   -2.2796826  
O  -13.2356937   -1.3499009   -2.6694144  
C  -12.2014132    0.1185753   -1.0731224  
O  -13.2744520    0.3911231   -0.5520031  
C  -10.9380549    0.6864817   -0.6091591  
H   -8.0338185    1.3899131   -0.2729127  
H  -10.8744815   -1.8734027   -3.7247138  
H  -10.9629865    1.3721270    0.2268988  
H   -8.1455200   -1.3033848   -3.5176667  
C   -4.2186866    2.1401319   -0.0437262  
C   -5.4804249    1.7323143   -0.3144293  
C   -5.3466901    0.8217463   -1.4411417  
C   -3.8965667    0.7958597   -1.7293372  
N   -3.2302259    1.5666944   -0.9133753  
C   -3.3460097   -0.0004262   -2.7913647  
C   -4.2050302   -0.7376508   -3.5315799  
O   -3.8298204   -1.5261789   -4.5530898  
C   -5.6737592   -0.7329691   -3.2651709  
O   -6.3965397   -1.4282090   -3.9789288  
C   -6.2140638    0.0921566   -2.1701080  
H   -6.3895961    2.0144736    0.1884319  
H   -4.6590779   -1.9185769   -4.8809753  
H   -3.8917480    2.8223391    0.7248296  
C    0.0000000    0.0000000    0.0000000  
C    1.0662919   -0.0000103   -0.8334272  
C    0.4961868    0.0000066   -2.1718889  
C   -0.9663860   -0.0000849   -1.9540248  
N   -1.2632775   -0.0000084   -0.6828659  
C   -1.8985364   -0.0000515   -3.0477258  
C   -1.3925778    0.0004567   -4.3020543  
O   -2.1456385    0.0005412   -5.4151314  
C    0.0786229    0.0009326   -4.5544999  
O    0.4683756    0.0012594   -5.7221104  
C    1.0143162    0.0008443   -3.4159034  
H    2.1107195    0.0000631   -0.5721869  
H   -1.5042277    0.0009692   -6.1484420  
H    2.0724151    0.0013151   -3.6409746  
C    3.2573670    0.0002920    2.9809380  
C    2.5379467    0.0001709    1.8291961  
C    1.1435042   -0.0000331    2.2038498  
C    1.1092607    0.0000083    3.6788474  
N    2.4227561   -0.0001909    4.0882609  
C   -0.0265533    0.0002524    4.4215661  
C   -1.3003036    0.0002640    3.7214979  
O   -2.3786784    0.0004133    4.3006425  
C   -1.2877726   -0.0000311    2.1595606  
O   -2.3539958   -0.0003306    1.5592035  
C    0.0000000    0.0000000    1.4700000  
H    2.9384090    0.0000368    0.8310761  
H   -0.0296291    0.0004086    5.5027230  
H    4.3270393    0.0004765    3.1139444  
H    2.7280493    0.0013407    5.0442112  
