58

C   -0.7023863    0.5341390   -9.1324357  
C    0.2898740   -0.3089195   -9.5181126  
C    0.2783467   -0.3402280  -10.9616240  
C   -0.8097493    0.5601753  -11.3883686  
N   -1.3648981    1.0580215  -10.2321469  
C   -1.1436047    0.8039844  -12.6809642  
C   -0.3804671    0.1347598  -13.7212983  
O   -0.6039708    0.2887058  -14.9148835  
C    0.7761401   -0.8233575  -13.2922577  
O    1.4253926   -1.3926059  -14.1592569  
C    1.0416628   -1.0057810  -11.8674517  
H    0.9539646   -0.8475492   -8.8658295  
H   -1.9452982    1.4681966  -12.9725468  
H    1.8443269   -1.6706841  -11.5787347  
H   -2.1317535    1.7041373  -10.1932318  
C    0.8834462   -0.6856111   -5.2614101  
C    0.0950446    0.0004351   -4.4015596  
C   -0.8231766    0.7463697   -5.2482895  
C   -0.4365571    0.3825625   -6.6284179  
N    0.5632288   -0.4566167   -6.6424233  
C   -1.1157953    0.9193863   -7.7753883  
C   -2.1351883    1.7802105   -7.5536821  
O   -2.8563105    2.3569973   -8.5300741  
C   -2.5493391    2.1666369   -6.1726267  
O   -3.4857796    2.9553979   -6.0455227  
C   -1.8368913    1.6024053   -5.0124602  
H   -3.5050423    2.9140314   -8.0631553  
H   -2.1675084    1.9073659   -4.0286300  
H    1.6932801   -1.3582324   -5.0274793  
C    3.3321173    0.0004713   -1.3379338  
C    2.6974181    0.0000116   -2.5332314  
C    1.2800438   -0.0002119   -2.2052841  
C    1.2395034    0.0000643   -0.7271299  
N    2.4394062    0.0005460   -0.2131038  
C    0.0000000    0.0000000    0.0000000  
C   -1.1468702    0.0000634   -0.7169543  
O   -2.3742203    0.0000074   -0.1695487  
C   -1.1388770    0.0001607   -2.2096355  
O   -2.2206234    0.0000905   -2.7970411  
C    0.1454522    0.0001815   -2.9324241  
H    3.1367984   -0.0000653   -3.5160950  
H   -2.9844346    0.0001026   -0.9290167  
H    4.3940038    0.0007618   -1.1498640  
C    0.8175213    0.6860729    2.3021913  
C    0.0000000    0.0000000    1.4700000  
C   -0.8887526   -0.7456559    2.3478473  
C   -0.4549825   -0.3816753    3.7138435  
N    0.5448156    0.4573574    3.6934124  
C   -1.0945674   -0.9182058    4.8835240  
C   -2.1210866   -1.7789155    4.6970523  
O   -2.8083856   -2.3554314    5.6976972  
C   -2.5824069   -2.1655116    3.3310774  
O   -3.5227682   -2.9541547    3.2362962  
C   -1.9100805   -1.6015804    2.1470656  
H   -0.7567140   -0.6349833    5.8697035  
H   -3.4728268   -2.9124471    5.2533954  
H   -2.2742832   -1.9066565    1.1752040  
H    1.6189533    1.3585343    2.0405121  
