58

C    3.2798087    0.0005848   -1.4499654  
C    2.5571146    0.0005558   -2.5996556  
C    1.1637437    0.0001542   -2.2210367  
C    1.1336967   -0.0000204   -0.7459475  
N    2.4483516   -0.0001432   -0.3402725  
C    0.0000000    0.0000000    0.0000000  
C   -1.2757367   -0.0000191   -0.6964423  
O   -2.3524593   -0.0000640   -0.1142321  
C   -1.2676494   -0.0000877   -2.2584086  
O   -2.3355759   -0.0004105   -2.8557301  
C    0.0181563    0.0001752   -2.9516303  
H    2.9547356    0.0006065   -3.5989110  
H    4.3498551    0.0008604   -1.3200026  
H    2.7563628    0.0012820    0.6148059  
C    2.4107292   -2.0068255   -6.1315649  
C    1.9593059   -1.6260421   -4.9138619  
C    0.8629756   -0.7103798   -5.1897639  
C    0.7884491   -0.6520953   -6.6654440  
N    1.6932089   -1.4100741   -7.2229985  
C   -0.1832710    0.1582441   -7.3467641  
C   -1.0417745    0.8773559   -6.5883552  
O   -1.9989204    1.6759470   -7.0905160  
C   -0.9920202    0.8393223   -5.0969669  
O   -1.8042913    1.5196548   -4.4704018  
C    0.0139740    0.0003870   -4.4216245  
H    2.3250484   -1.9291670   -3.9477234  
H   -0.2148871    0.1820077   -8.4262757  
H   -2.4446797    2.0502022   -6.3092447  
C    5.0584922   -4.2120872   -3.4644184  
C    5.8511696   -4.8777526   -4.3362730  
C    5.3745474   -4.4833088   -5.6529906  
C    4.2598161   -3.5503506   -5.3817959  
N    4.0699170   -3.3873915   -4.1006353  
C    3.5129285   -2.9290541   -6.4406797  
C    3.8639598   -3.2259724   -7.7126667  
O    3.2538106   -2.7190416   -8.7974618  
C    4.9845274   -4.1634203   -8.0187365  
O    5.2489331   -4.3878452   -9.1998138  
C    5.7354254   -4.7880006   -6.9151163  
H    6.6595473   -5.5529763   -4.1133965  
H    3.7240444   -3.1141189   -9.5537333  
H    6.5401408   -5.4611824   -7.1787258  
H    5.0904170   -4.2353769   -2.3867301  
C    2.4951002    2.0940188    2.9809380  
C    1.9440701    1.6314916    1.8291961  
C    0.8759964    0.7350050    2.2038498  
C    0.8497377    0.7130254    3.6788474  
N    1.8560616    1.5571714    4.0882609  
C   -0.0205033   -0.0168748    4.4215661  
C   -0.9962600   -0.8356168    3.7214979  
O   -1.8224391   -1.5286685    4.3006425  
C   -0.9864710   -0.8277881    2.1595606  
O   -1.8030528   -1.5133726    1.5592035  
C    0.0000000    0.0000000    1.4700000  
H    2.2509283    1.8888011    0.8310761  
H   -0.0229599   -0.0187323    5.5027230  
H    3.3143982    2.7817323    3.1139444  
H    2.0889452    1.7545833    5.0442112  
