64

C    1.1188644    0.0008222   -0.8003806  
C    0.0000000    0.0000000    0.0000000  
C   -1.1323860    0.0008898   -0.8673529  
C   -0.6382658    0.0019678   -2.1969281  
N    0.7324021    0.0038481   -2.1202240  
C   -1.4770909    0.0027314   -3.3154811  
C   -2.8395471    0.0020942   -3.0876861  
O   -3.7039190    0.0024420   -4.1440351  
C   -3.3517864    0.0013927   -1.7684337  
O   -4.7300491    0.0012363   -1.7073130  
C   -2.5248541    0.0009122   -0.6644822  
H   -1.1067562    0.0036985   -4.3313812  
H   -4.5940031    0.0021824   -3.7685135  
H   -4.9934598    0.0007258   -0.7819921  
H   -2.9462584    0.0005601    0.3339659  
H    2.1619896    0.0009357   -0.5342067  
C    4.5426439   -2.1280475   -2.8244668  
C    4.7840763   -1.6433670   -4.0890863  
C    3.7027659   -0.7718628   -4.4144294  
C    2.8248675   -0.7639998   -3.3003562  
N    3.3636323   -1.5993775   -2.3535226  
C    1.6478440   -0.0100101   -3.2702997  
C    1.3518127    0.7501216   -4.3850836  
O    0.2151955    1.5054726   -4.4087632  
C    2.2150343    0.7551142   -5.5065290  
O    1.7815979    1.5622770   -6.5380160  
C    3.3762260    0.0113180   -5.5369817  
H    5.6343327   -1.8887237   -4.7021579  
H    2.9665976   -1.7854937   -1.4503584  
H    0.2007697    1.9502732   -5.2662069  
H    2.4205826    1.5086856   -7.2552539  
H    5.1174439   -2.8101427   -2.2217148  
C    4.8977337   -1.0390301   -7.2656433  
C    4.2462774    0.0435059   -6.7214121  
C    4.5811180    1.1761651   -7.5211399  
C    5.4471129    0.7195911   -8.5475510  
N    5.6201369   -0.6295645   -8.3619190  
C    5.9769941    1.5690613   -9.5234678  
C    5.6260277    2.9036988   -9.4622919  
O    6.1147207    3.7768534  -10.3906200  
C    4.7635725    3.3783843   -8.4455998  
O    4.5091340    4.7323013   -8.5198523  
C    4.2406747    2.5409792   -7.4823464  
H    6.1765153   -1.2288795   -8.9443661  
H    6.6376543    1.2273206  -10.3082888  
H    5.7513803    4.6438275  -10.1678984  
H    3.9193695    4.9709666   -7.7981735  
H    3.5827477    2.9334307   -6.7158007  
H    4.9053786   -2.0705719   -6.9577108  
C    0.8681109    0.7263879    2.2709268  
C    0.6127770    0.5096195    3.5869401  
C   -0.4920590   -0.4175482    3.6542670  
C   -0.8620974   -0.7254003    2.2596025  
N    0.0000000    0.0000000    1.4700000  
C   -1.8641242   -1.5660088    1.8976294  
C   -2.6293522   -2.2103885    2.9520183  
O   -3.5512764   -2.9839180    2.7283916  
C   -2.2549728   -1.8987399    4.4361073  
O   -2.8923672   -2.4351063    5.3323774  
C   -1.1543735   -0.9755647    4.7012123  
H    1.1382914    0.9492124    4.4159191  
H   -2.1192137   -1.7782617    0.8686553  
H   -0.9013378   -0.7652422    5.7314848  
H    1.6172880    1.3558399    1.8188057  
