58

C    8.2759261   -0.7034012    0.6901359  
C    8.7184379   -0.0010002   -0.3845224  
C    9.8803902    0.7400140    0.0462937  
C   10.0799956    0.4093518    1.4702359  
N    9.0742211   -0.4697596    1.7995854  
C   11.0777367    0.9084874    2.2429454  
C   12.0176093    1.8332539    1.6314040  
O   12.9501408    2.3371997    2.2435507  
C   11.8251231    2.1977245    0.1247805  
O   12.6100105    2.9754743   -0.4008797  
C   10.7118744    1.5952763   -0.6043188  
H   11.2064552    0.6529095    3.2855481  
H   10.5856697    1.8526561   -1.6471764  
H    7.4336701   -1.3718973    0.7650175  
H    8.9418205   -0.8801478    2.7057307  
C    4.5679461   -0.0016854   -2.0086701  
C    5.6049853   -0.0016935   -1.1391130  
C    6.7955416   -0.0024722   -1.9752193  
C    6.2781458   -0.0029787   -3.3604575  
N    4.9730339   -0.0024401   -3.3863778  
C    7.1539718   -0.0037587   -4.4997622  
C    8.4861199   -0.0036316   -4.2658482  
O    9.4181587   -0.0043060   -5.2340138  
C    9.0391358   -0.0027531   -2.8793658  
O   10.2622858   -0.0028100   -2.7410729  
C    8.1201342   -0.0020069   -1.7272552  
H    5.5667631   -0.0011381   -0.0631881  
H    6.7483989   -0.0043224   -5.5009717  
H   10.2688728   -0.0039801   -4.7592100  
C    3.1301149   -0.0010311   -1.7028252  
C    2.5367768   -0.0002767   -0.4864665  
C    1.1089904    0.0001028   -0.7656183  
C    1.0177872   -0.0004148   -2.2415132  
N    2.1993578   -0.0011611   -2.7963820  
C   -0.2459209   -0.0002877   -2.9257118  
C   -1.3675319   -0.0000605   -2.1698524  
O   -2.6129313    0.0000867   -2.6748490  
C   -1.3083584    0.0000910   -0.6783232  
O   -2.3693261    0.0004206   -0.0541692  
C    0.0000000    0.0000000    0.0000000  
H    3.0096017   -0.0001007    0.4807525  
H   -0.2829630   -0.0004687   -4.0053125  
H   -3.1967441    0.0002094   -1.8949034  
C    0.8400945    0.7047457    2.2710304  
C    0.0000000    0.0000000    1.4700000  
C   -0.8844236   -0.7423113    2.3369512  
C   -0.4878984   -0.4098547    3.7186280  
N    0.5629682    0.4714286    3.6095011  
C   -1.0836927   -0.9095027    4.8308716  
C   -2.1891196   -1.8367527    4.6554461  
O   -2.7906899   -2.3413415    5.5944904  
C   -2.6257283   -2.2031529    3.2011665  
O   -3.5549479   -2.9829990    3.0410059  
C   -1.9068976   -1.5999348    2.0816745  
H   -0.7774656   -0.6525820    5.8354244  
H   -2.2155208   -1.8586617    1.0779135  
H    1.6384792    1.3747609    1.9961646  
H    1.0518368    0.8833920    4.3830260  
