58

C   -3.9533337    0.7044900   -6.0872444  
C   -3.3447152    0.0009687   -7.0765452  
C   -4.3768050   -0.7403001   -7.7622176  
C   -5.6457010   -0.4085665   -7.0864627  
N   -5.3202032    0.4713453   -6.0801347  
C   -6.8576314   -0.9075883   -7.4384668  
C   -6.9161611   -1.8333536   -8.5574262  
O   -7.9598853   -2.3372840   -8.9511213  
C   -5.5845952   -2.1989675   -9.2875371  
O   -5.6213751   -2.9775638  -10.2307745  
C   -4.3399629   -1.5965370   -8.8165606  
H   -7.7764536   -0.6512168   -6.9295968  
H   -3.4224135   -1.8547119   -9.3276115  
H   -3.5182832    1.3734905   -5.3626351  
H   -5.9750331    0.8825517   -5.4404827  
C    0.0950448    0.0004350   -4.4015596  
C    1.1321307    0.0004159   -5.2710609  
C    0.5164640    0.0007452   -6.5891858  
C   -0.9377780    0.0008253   -6.3212970  
N   -1.1909058    0.0007250   -5.0407053  
C   -1.9068841    0.0011806   -7.3823905  
C   -1.4442349    0.0018328   -8.6533312  
O   -2.2350210    0.0022170   -9.7399306  
C    0.0174441    0.0021418   -8.9560775  
O    0.3669293    0.0026143  -10.1363659  
C    0.9916305    0.0017233   -7.8502354  
H    2.1849022    0.0002949   -5.0457884  
H   -1.6191332    0.0026797  -10.4948035  
H    2.0413894    0.0020816   -8.1114570  
C    3.3321173    0.0004714   -1.3379336  
C    2.6974184    0.0000115   -2.5332313  
C    1.2800437   -0.0002119   -2.2052840  
C    1.2395034    0.0000643   -0.7271298  
N    2.4394063    0.0005459   -0.2131037  
C    0.0000000    0.0000000    0.0000000  
C   -1.1468702    0.0000634   -0.7169544  
O   -2.3742202    0.0000072   -0.1695489  
C   -1.1388770    0.0001606   -2.2096356  
O   -2.2206231    0.0000903   -2.7970412  
C    0.1454523    0.0001814   -2.9324241  
H    3.1367986   -0.0000653   -3.5160949  
H   -2.9844345    0.0001025   -0.9290168  
H    4.3940040    0.0007618   -1.1498638  
C    0.0000000    0.0000000    1.4700000  
C    1.0662921    0.0000102    2.3034270  
C    0.4961870   -0.0000064    3.6418889  
C   -0.9663858    0.0000850    3.4240247  
N   -1.2632773    0.0000084    2.1528658  
C   -1.8985362    0.0000517    4.5177257  
C   -1.3925775   -0.0004564    5.7720543  
O   -2.1456383   -0.0005410    6.8851312  
C    0.0786232   -0.0009323    6.0245000  
O    0.4683759   -0.0012588    7.1921102  
C    1.0143166   -0.0008442    4.8859032  
H    2.1107198   -0.0000632    2.0421868  
H   -2.9622183    0.0003270    4.3293377  
H   -1.5042274   -0.0009692    7.6184419  
H    2.0724152   -0.0013148    5.1109744  
