60

C   -3.3041260    0.0033774   -1.5420424  
C   -2.5845355    0.0032119   -0.3695849  
C   -1.2040001    0.0012743   -0.7283588  
C   -1.1422383    0.0006046   -2.1454367  
N   -2.4348661   -0.0000353   -2.6077461  
C    0.0655164   -0.0009491   -2.8497919  
C    1.2321751   -0.0015358   -2.1101403  
O    2.4392791   -0.0026949   -2.7472524  
C    1.1911196   -0.0012592   -0.6955267  
O    2.4371513   -0.0023461   -0.1032866  
C    0.0000000    0.0000000    0.0000000  
H   -3.0031518    0.0032428    0.6222587  
H   -2.7054547    0.0099717   -3.5745256  
H    0.1193526   -0.0016107   -3.9297469  
H    3.1132966   -0.0032284   -2.0551792  
H    2.3200274   -0.0020471    0.8516405  
C   -6.7370815    0.0079519    1.2348673  
C   -5.4910136    0.0065016    0.6950639  
C   -5.6537408    0.0057471   -0.7396327  
C   -7.1071751    0.0069142   -0.9932415  
N   -7.7077059    0.0078259    0.2446002  
C   -7.6723898    0.0070501   -2.2270312  
C   -6.7903701    0.0057489   -3.3822686  
O   -7.2023940    0.0056975   -4.5348911  
C   -5.2477315    0.0042475   -3.1371777  
O   -4.4952278    0.0028380   -4.1020597  
C   -4.7577205    0.0045199   -1.7610453  
H   -4.5636942    0.0058333    1.2397584  
H   -8.7410224    0.0080446   -2.3911450  
H   -8.6984691    0.0102847    0.4040666  
C   -6.2940683    0.0092242    3.7175560  
C   -7.1337728    0.0092248    2.6503299  
C   -8.4795453    0.0104167    3.1735234  
C   -8.3541446    0.0111446    4.6435794  
N   -7.0040899    0.0099699    4.9086091  
C   -9.4030169    0.0127203    5.5047237  
C  -10.7449785    0.0135433    4.9464460  
O  -11.7544295    0.0149008    5.6387656  
C  -10.9013618    0.0125421    3.3923067  
O  -12.0262345    0.0129153    2.9107229  
C   -9.6956752    0.0111312    2.5675831  
H   -9.2892044    0.0133605    6.5798777  
H   -9.8125860    0.0106499    1.4923827  
H   -5.2162862    0.0085250    3.7341545  
H   -6.5972492    0.0116577    5.8259560  
C    0.8400945    0.7047457    2.2710304  
C    0.0000000    0.0000000    1.4700000  
C   -0.8844236   -0.7423113    2.3369512  
C   -0.4878984   -0.4098547    3.7186280  
N    0.5629682    0.4714286    3.6095011  
C   -1.0836927   -0.9095027    4.8308716  
C   -2.1891196   -1.8367527    4.6554461  
O   -2.7906899   -2.3413415    5.5944904  
C   -2.6257283   -2.2031529    3.2011665  
O   -3.5549479   -2.9829990    3.0410059  
C   -1.9068976   -1.5999348    2.0816745  
H   -0.7774656   -0.6525820    5.8354244  
H   -2.2155208   -1.8586617    1.0779135  
H    1.6384792    1.3747609    1.9961646  
H    1.0518368    0.8833920    4.3830260  
