58

C    3.2798084    0.0005860   -1.4499649  
C    2.5571141    0.0005569   -2.5996553  
C    1.1637434    0.0001550   -2.2210363  
C    1.1336962   -0.0000199   -0.7459473  
N    2.4483513   -0.0001427   -0.3402723  
C    0.0000000    0.0000000    0.0000000  
C   -1.2757367   -0.0000186   -0.6964414  
O   -2.3524598   -0.0000639   -0.1142315  
C   -1.2676494   -0.0000872   -2.2584084  
O   -2.3355762   -0.0004101   -2.8557298  
C    0.0181556    0.0001762   -2.9516295  
H    0.0150785    0.0003321   -4.0331632  
H    4.3498546    0.0008615   -1.3200022  
H    2.7563626    0.0012825    0.6148059  
C    5.9615633   -2.0068621   -4.6598587  
C    5.0892053   -1.6259401   -3.6978460  
C    4.1745232   -0.7102535   -4.3622063  
C    4.6548505   -0.6521083   -5.7595210  
N    5.7020996   -1.4101828   -5.9400261  
C    4.0067726    0.1582102   -6.7537375  
C    2.9276596    0.8774354   -6.3695954  
O    2.2263949    1.6760224   -7.1921086  
C    2.4184944    0.8395435   -4.9669281  
O    1.4313799    1.5199740   -4.6879304  
C    3.1006052    0.0006267   -3.9654951  
H    5.0688668   -1.9289886   -2.6649741  
H    1.5218038    2.0503734   -6.6330326  
H    6.7963915   -2.6834810   -4.5691842  
C    4.5138532    0.1904083   -8.1331335  
C    5.5746611   -0.4746836   -8.6468632  
C    5.6229121   -0.0799991  -10.0462902  
C    4.4869839    0.8524563  -10.2099298  
N    3.8332215    1.0149368   -9.0918142  
C    4.1882429    1.4738111  -11.4707854  
C    4.9881732    1.1774288  -12.5203599  
O    4.8260304    1.6844768  -13.7543182  
C    6.1425167    0.2404967  -12.3869077  
O    6.8281471    0.0165468  -13.3843937  
C    6.4283074   -0.3841540  -11.0830446  
H    6.2420535   -1.1496765   -8.1388791  
H    3.3516661    2.1511398  -11.5617487  
H    5.5444219    1.2898159  -14.2809196  
H    7.2736057   -1.0569513  -11.0278630  
C    2.5128556    2.1077716    2.9199648  
C    1.9592212    1.6432552    4.0696553  
C    0.8915788    0.7479214    3.6910360  
C    0.8684491    0.7287414    2.2159470  
N    1.8754542    1.5738793    1.8102719  
C    0.0000000    0.0000000    1.4700000  
C   -0.9772830   -0.8200135    2.1664417  
O   -1.8021297   -1.5120829    1.5842315  
C   -0.9711318   -0.8147624    3.7284083  
O   -1.7894187   -1.5009653    4.3257297  
C    0.0140216    0.0115358    4.4216297  
H    2.2638494    1.8988021    5.0689105  
H    0.0117648    0.0094386    5.5031631  
H    3.3327358    2.7953732    2.7900019  
H    2.1123206    1.7707734    0.8551938  
