58

C    4.3050459   -2.1060740   -1.2837810  
C    5.3776645   -1.6422076   -1.9754406  
C    4.8702536   -0.7476998   -2.9889620  
C    3.4035843   -0.7282959   -2.8299158  
N    3.1252155   -1.5725290   -1.7798346  
C    2.5562222   -0.0001542   -3.6002998  
C    3.1268018    0.8189313   -4.6567435  
O    2.4473032    1.5104103   -5.4040310  
C    4.6775909    0.8134279   -4.8433703  
O    5.1694184    1.4988513   -5.7296888  
C    5.4870244   -0.0121649   -3.9505853  
H    6.4068566   -1.8976656   -1.7962253  
H    6.5600149   -0.0102480   -4.0862800  
H    4.2772020   -2.7929719   -0.4535483  
H    2.2066514   -1.7690685   -1.4267622  
C    0.0000000    0.0000000    0.0000000  
C    1.0541691   -0.0001719   -0.8560389  
C    0.5103143   -0.0000448   -2.1935953  
C   -0.9576364    0.0002464   -2.0455731  
N   -1.2018458   -0.0001389   -0.6915972  
C   -1.8348303    0.0008322   -3.0810611  
C   -1.2972837    0.0009745   -4.4314603  
O   -2.0050658    0.0014276   -5.4301322  
C    0.2542633    0.0004194   -4.6117570  
O    0.7184681    0.0002269   -5.7439118  
C    1.0974560    0.0000881   -3.4189126  
H    2.0940754   -0.0005481   -0.5817976  
H   -2.1128195    0.0014913   -0.2706792  
C   -4.3137498    2.1424310   -0.2077338  
C   -5.5591243    1.7353210   -0.5466765  
C   -5.3648104    0.8246404   -1.6644432  
C   -3.9011710    0.7979210   -1.8733226  
N   -3.2797686    1.5684038   -1.0223203  
C   -3.2941065    0.0012879   -2.9038247  
C   -4.1120049   -0.7354729   -3.6896746  
O   -3.6822277   -1.5242473   -4.6892582  
C   -5.5930492   -0.7299485   -3.5035618  
O   -6.2763252   -1.4248011   -4.2555822  
C   -6.1916575    0.0955198   -2.4395154  
H   -6.4941450    2.0180131   -0.0940210  
H   -4.4926426   -1.9161849   -5.0617706  
H   -7.2683262    0.0718762   -2.3372599  
H   -4.0287176    2.8244773    0.5774687  
C    1.1319247   -0.0015655    2.2709268  
C    0.7969915   -0.0034943    3.5869401  
C   -0.6453339   -0.0035710    3.6542670  
C   -1.1266833   -0.0015433    2.2596025  
N    0.0000000    0.0000000    1.4700000  
C   -2.4346130   -0.0013964    1.8976294  
C   -3.4350110   -0.0031408    2.9520183  
O   -4.6384611   -0.0030974    2.7283916  
C   -2.9478959   -0.0050506    4.4361073  
O   -3.7809380   -0.0062218    5.3323774  
C   -1.5113823   -0.0053090    4.7012123  
H    1.4821238   -0.0045407    4.4159191  
H   -2.7664565   -0.0000232    0.8686553  
H   -1.1823530   -0.0068408    5.7314848  
H    2.1104316   -0.0009391    1.8188057  
