58

C    2.9087513   -2.1188238   -7.3933924  
C    3.9726783   -2.9614892   -7.3481271  
C    4.5411805   -2.9934147   -8.6750122  
C    3.7153421   -2.0938018   -9.5029482  
N    2.7428381   -1.5957779   -8.6668264  
C    3.9279530   -1.8507264  -10.8210581  
C    5.0445504   -2.5199634  -11.4674873  
O    5.3185593   -2.3666474  -12.6505816  
C    5.9322448   -3.4772507  -10.6099305  
O    6.8749550   -4.0465018  -11.1433265  
C    5.6039834   -3.6589228   -9.1981613  
H    4.3195241   -3.4994709   -6.4839011  
H    3.3103265   -1.1870871  -11.4101512  
H    6.2236495   -4.3232539   -8.6113040  
H    2.0245533   -0.9500754   -8.9391919  
C    1.9957412   -2.1407956   -5.0258932  
C    1.9855629   -1.7332343   -6.3163859  
C    0.8551750   -0.8225486   -6.4132063  
C    0.2799734   -0.7963198   -5.0512078  
N    0.9444051   -1.5670717   -4.2336130  
C   -0.8712826    0.0001710   -4.7267111  
C   -1.4226084    0.7372642   -5.7177040  
O   -2.4987598    1.5259551   -5.5567523  
C   -0.8649829    0.7322382   -7.1023305  
O   -1.4179251    1.4273746   -7.9545397  
C    0.3165529   -0.0930928   -7.4101070  
H   -2.6523123    1.9181962   -6.4352288  
H    0.6899768   -0.0690849   -8.4250990  
H    2.6823199   -2.8229906   -4.5502972  
C    1.0965514    0.0001359   -0.8010305  
C    0.0000000    0.0000000    0.0000000  
C   -1.1546563    0.0001470   -0.8669513  
C   -0.6372014    0.0003519   -2.2486282  
N    0.7342871    0.0007337   -2.1395014  
C   -1.4147739    0.0001352   -3.3608717  
C   -2.8576049   -0.0001048   -3.1854462  
O   -3.6427779   -0.0002494   -4.1244907  
C   -3.4275840   -0.0000725   -1.7311666  
O   -4.6406831    0.0000333   -1.5710060  
C   -2.4891867   -0.0001091   -0.6116744  
H   -2.8919122   -0.0002918    0.3920866  
H    2.1388272    0.0000663   -0.5261648  
H    1.3735872   -0.0006099   -2.9130262  
C    0.8681109    0.7263879    2.2709268  
C    0.6127770    0.5096195    3.5869401  
C   -0.4920590   -0.4175482    3.6542670  
C   -0.8620974   -0.7254003    2.2596025  
N    0.0000000    0.0000000    1.4700000  
C   -1.8641242   -1.5660088    1.8976294  
C   -2.6293522   -2.2103885    2.9520183  
O   -3.5512764   -2.9839180    2.7283916  
C   -2.2549728   -1.8987399    4.4361073  
O   -2.8923672   -2.4351063    5.3323774  
C   -1.1543735   -0.9755647    4.7012123  
H    1.1382914    0.9492124    4.4159191  
H   -2.1192137   -1.7782617    0.8686553  
H   -0.9013378   -0.7652422    5.7314848  
H    1.6172880    1.3558399    1.8188057  
