62

C    1.1188644    0.0008222   -0.8003806  
C    0.0000000    0.0000000    0.0000000  
C   -1.1323860    0.0008898   -0.8673529  
C   -0.6382658    0.0019678   -2.1969281  
N    0.7324021    0.0038481   -2.1202240  
C   -1.4770909    0.0027314   -3.3154811  
C   -2.8395471    0.0020942   -3.0876861  
O   -3.7039190    0.0024420   -4.1440351  
C   -3.3517864    0.0013927   -1.7684337  
O   -4.7300491    0.0012363   -1.7073130  
C   -2.5248541    0.0009122   -0.6644822  
H   -1.1067562    0.0036985   -4.3313812  
H   -4.5940031    0.0021824   -3.7685135  
H   -4.9934598    0.0007258   -0.7819921  
H   -2.9462584    0.0005601    0.3339659  
H    2.1619896    0.0009357   -0.5342067  
C    4.5426439   -2.1280475   -2.8244668  
C    4.7840763   -1.6433670   -4.0890863  
C    3.7027659   -0.7718628   -4.4144294  
C    2.8248675   -0.7639998   -3.3003562  
N    3.3636323   -1.5993775   -2.3535226  
C    1.6478440   -0.0100101   -3.2702997  
C    1.3518127    0.7501216   -4.3850836  
O    0.2151955    1.5054726   -4.4087632  
C    2.2150343    0.7551142   -5.5065290  
O    1.7815979    1.5622770   -6.5380160  
C    3.3762260    0.0113180   -5.5369817  
H    5.6343327   -1.8887237   -4.7021579  
H    2.9665976   -1.7854937   -1.4503584  
H    0.2007697    1.9502732   -5.2662069  
H    2.4205826    1.5086856   -7.2552539  
H    5.1174439   -2.8101427   -2.2217148  
C    5.6558759   -3.1265209   -7.6473359  
C    4.8604245   -2.4442924   -6.7836827  
C    4.8616323   -1.0648585   -7.2102923  
C    5.7291889   -0.9988961   -8.4018395  
N    6.1795553   -2.2814913   -8.6139920  
C    5.9888231    0.1342000   -9.1021167  
C    5.3728657    1.3713824   -8.6521053  
O    5.5448504    2.4444324   -9.2153857  
C    4.4506159    1.3249126   -7.3923033  
O    3.9267651    2.3602673   -7.0038674  
C    4.2462774    0.0435059   -6.7214121  
H    4.3331536   -2.8599092   -5.9435271  
H    6.6281194    0.1608700   -9.9736099  
H    5.9037511   -4.1754802   -7.6588339  
H    6.7924640   -2.5610389   -9.3577958  
C    2.4951002    2.0940188    2.9809380  
C    1.9440701    1.6314916    1.8291961  
C    0.8759964    0.7350050    2.2038498  
C    0.8497377    0.7130254    3.6788474  
N    1.8560616    1.5571714    4.0882609  
C   -0.0205033   -0.0168748    4.4215661  
C   -0.9962600   -0.8356168    3.7214979  
O   -1.8224391   -1.5286685    4.3006425  
C   -0.9864710   -0.8277881    2.1595606  
O   -1.8030528   -1.5133726    1.5592035  
C    0.0000000    0.0000000    1.4700000  
H    2.2509283    1.8888011    0.8310761  
H   -0.0229599   -0.0187323    5.5027230  
H    3.3143982    2.7817323    3.1139444  
H    2.0889452    1.7545833    5.0442112  
