60

C    6.8354439   -0.0024597   -4.0255212  
C    5.5758876   -0.0020017   -3.5179843  
C    5.7016162   -0.0003813   -2.0795735  
C    7.1480384    0.0000996   -1.7886225  
N    7.7802453   -0.0016127   -3.0105885  
C    7.6812953    0.0019477   -0.5406887  
C    6.7698191    0.0033452    0.5914530  
O    7.1520250    0.0049834    1.7543012  
C    5.2340018    0.0026140    0.3067200  
O    4.4569006    0.0034707    1.2519041  
C    4.7795897    0.0008677   -1.0815734  
H    4.6629023   -0.0028997   -4.0863761  
H    8.7453476    0.0023989   -0.3491115  
H    7.1529577   -0.0035616   -5.0556057  
H    8.7747883   -0.0002010   -3.1444920  
C    3.3321166    0.0004717   -1.3379342  
C    2.6974176    0.0000121   -2.5332317  
C    1.2800432   -0.0002115   -2.2052842  
C    1.2395033    0.0000645   -0.7271297  
N    2.4394059    0.0005461   -0.2131042  
C    0.0000000    0.0000000    0.0000000  
C   -1.1468704    0.0000636   -0.7169540  
O   -2.3742206    0.0000073   -0.1695488  
C   -1.1388774    0.0001610   -2.2096351  
O   -2.2206238    0.0000908   -2.7970408  
C    0.1454514    0.0001820   -2.9324241  
H    3.1367977   -0.0000646   -3.5160953  
H   -2.9844351    0.0001027   -0.9290163  
C    2.5365541   -2.0936791   -5.9975184  
C    2.0254109   -1.6312718   -4.8274815  
C    0.9452516   -0.7345680   -5.1651393  
C    0.8684328   -0.7123300   -6.6383652  
N    1.8600003   -1.5565491   -7.0821878  
C   -0.0266561    0.0178227   -7.3506836  
C   -0.9777112    0.8365834   -6.6174311  
O   -1.8231606    1.5298532   -7.1677886  
C   -0.9143692    0.8284838   -5.0567494  
O   -1.7097820    1.5140814   -4.4286288  
C    0.0950440    0.0004357   -4.4015596  
H    2.3662767   -1.8887974   -3.8405140  
H   -0.0661846    0.0198671   -8.4311208  
H    3.3507071   -2.7814868   -6.1586564  
H    2.0599372   -1.7538295   -8.0455942  
C    2.5311839    2.1237619    3.0120429  
C    1.9795631    1.6616747    1.8395852  
C    0.9223175    0.7739173    2.1983588  
C    0.8753926    0.7337535    3.6154372  
N    1.8668922    1.5631002    4.0777464  
C   -0.0496243   -0.0427881    4.3197917  
C   -0.9437528   -0.7922060    3.5801400  
O   -1.8685244   -1.5680278    4.2172520  
C   -0.9124520   -0.7656372    2.1655264  
O   -1.8671164   -1.5663939    1.5732860  
C    0.0000000    0.0000000    1.4700000  
H    2.3005065    1.9304404    0.8477417  
H    2.0679347    1.7444845    5.0445261  
H   -0.0904770   -0.0778569    5.3997470  
H   -2.3849669   -2.0011402    3.5251786  
H   -1.7775064   -1.4909735    0.6183591  
H    3.3468514    2.8078103    3.1724291  
