58

C    0.4616934    0.7038111   -7.3035432  
C    1.4751621   -0.0000331   -7.8706057  
C    0.9080062   -0.7413764   -8.9722318  
C   -0.5292578   -0.4093347   -9.0007054  
N   -0.7353397    0.4708087   -7.9635133  
C   -1.4160259   -0.9083246   -9.8986792  
C   -0.9219475   -1.8343784  -10.9040882  
O   -1.6415213   -2.3383050  -11.7564798  
C    0.5965248   -2.2003214  -10.8925252  
O    1.0239793   -2.9791621  -11.7339232  
C    1.4538819   -1.5978945   -9.8747468  
H   -2.4662894   -0.6517248   -9.9022317  
H    2.5040964   -1.8562978   -9.8737189  
H    0.4885357    1.3729578   -6.4589060  
H   -1.6188017    0.8822507   -7.7242265  
C    3.2973507   -0.0000930   -3.8752373  
C    4.6090968    0.0000004   -4.2265165  
C    4.6584750   -0.0001366   -5.6695683  
C    3.2579285   -0.0002894   -6.1335298  
N    2.4824025   -0.0006537   -4.9971105  
C    2.8797120   -0.0000493   -7.4368546  
C    3.9215751    0.0001631   -8.4502930  
O    3.6829943    0.0003255   -9.6508680  
C    5.4116105    0.0000756   -7.9816786  
O    6.2974484   -0.0000538   -8.8258060  
C    5.6945666    0.0000909   -6.5485740  
H    5.4465358   -0.0000338   -3.5517507  
H    6.7288538    0.0002355   -6.2323876  
H    1.4789637    0.0007244   -4.9846260  
C    3.3321175    0.0004715   -1.3379331  
C    2.6974186    0.0000117   -2.5332308  
C    1.2800441   -0.0002117   -2.2052838  
C    1.2395036    0.0000644   -0.7271292  
N    2.4394065    0.0005460   -0.2131033  
C    0.0000000    0.0000000    0.0000000  
C   -1.1468701    0.0000635   -0.7169542  
O   -2.3742199    0.0000073   -0.1695491  
C   -1.1388766    0.0001607   -2.2096354  
O   -2.2206227    0.0000905   -2.7970412  
C    0.1454526    0.0001817   -2.9324239  
H   -2.9844344    0.0001026   -0.9290168  
H    0.1083579    0.0003683   -4.0135594  
H    4.3940038    0.0007619   -1.1498630  
C    2.5128556    2.1077716    2.9199648  
C    1.9592212    1.6432552    4.0696553  
C    0.8915788    0.7479214    3.6910360  
C    0.8684491    0.7287414    2.2159470  
N    1.8754542    1.5738793    1.8102719  
C    0.0000000    0.0000000    1.4700000  
C   -0.9772830   -0.8200135    2.1664417  
O   -1.8021297   -1.5120829    1.5842315  
C   -0.9711318   -0.8147624    3.7284083  
O   -1.7894187   -1.5009653    4.3257297  
C    0.0140216    0.0115358    4.4216297  
H    2.2638494    1.8988021    5.0689105  
H    0.0117648    0.0094386    5.5031631  
H    3.3327358    2.7953732    2.7900019  
H    2.1123206    1.7707734    0.8551938  
