62

C   -3.3003534   -0.0019571   -1.4738997  
C   -2.5232800   -0.0014426   -2.6090754  
C   -1.1623191   -0.0003716   -2.1820105  
C   -1.1711883   -0.0005657   -0.7636148  
N   -2.4852303    0.0004155   -0.3662366  
C    0.0000000    0.0000000    0.0000000  
C    1.2020383    0.0004686   -0.6806474  
O    2.3759246    0.0006796    0.0157751  
C    1.2314657    0.0010445   -2.0955506  
O    2.5054393    0.0018888   -2.6250173  
C    0.0764524    0.0007603   -2.8495195  
H   -2.8919944   -0.0006907   -3.6205308  
H   -2.8036227   -0.0100325    0.5858653  
H    3.0835639    0.0013008   -0.6418809  
H    2.4360053    0.0022078   -3.5845915  
H    0.1304103    0.0013985   -3.9319085  
C   -6.5907937   -0.0032669   -4.4182898  
C   -5.3731470   -0.0027260   -3.8171153  
C   -5.6071039   -0.0027392   -2.3922996  
C   -7.0713629   -0.0033658   -2.2113705  
N   -7.6095186   -0.0032635   -3.4775771  
C   -7.6973056   -0.0039599   -1.0072526  
C   -6.8738973   -0.0037578    0.1904672  
O   -7.3427974   -0.0041896    1.3211458  
C   -5.3209686   -0.0028441    0.0224871  
O   -4.6174380   -0.0023600    1.0236391  
C   -4.7630494   -0.0025387   -1.3275417  
H   -4.4198578   -0.0021770   -4.3149638  
H   -8.7727842   -0.0045440   -0.8965487  
H   -8.5911142   -0.0051581   -3.6861757  
C   -4.0362162   -0.0029659   -8.0875940  
C   -4.4781226   -0.0035133   -6.7848332  
C   -5.9038395   -0.0033889   -6.8287858  
C   -6.2780668   -0.0030395   -8.1969531  
N   -5.1200126   -0.0008383   -8.9341929  
C   -7.6118715   -0.0031389   -8.6161815  
C   -8.5856355   -0.0039062   -7.6364055  
O   -9.9039061   -0.0043878   -7.9902068  
C   -8.2321474   -0.0038890   -6.2660538  
O   -9.3159750   -0.0042823   -5.4124372  
C   -6.9165194   -0.0035180   -5.8517483  
H   -3.8501380   -0.0028436   -5.9104029  
H   -5.0703587   -0.0106671   -9.9368989  
H   -7.9036689   -0.0027300   -9.6573615  
H  -10.4078172   -0.0045913   -7.1659876  
H   -8.9901673   -0.0042696   -4.5072007  
H   -3.0336823   -0.0024791   -8.4798751  
C    0.0000000    0.0000000    1.4700000  
C    1.0541688    0.0001722    2.3260392  
C    0.5103138    0.0000454    3.6635956  
C   -0.9576371   -0.0002459    3.5155732  
N   -1.2018458    0.0001392    2.1615969  
C   -1.8348311   -0.0008317    4.5510609  
C   -1.2972847   -0.0009736    5.9014604  
O   -2.0050672   -0.0014265    6.9001319  
C    0.2542623   -0.0004184    6.0817573  
O    0.7184670   -0.0002256    7.2139121  
C    1.0974552   -0.0000873    4.8889129  
H    2.0940752    0.0005483    2.0517982  
H   -2.9081052   -0.0011668    4.4207061  
H    2.1707277    0.0000911    5.0223670  
H   -2.1128194   -0.0014912    1.7406791  
