58

C   -6.7218109    2.1175765    0.3721797  
C   -6.8925975    2.9601219    1.4233811  
C   -8.3069794    2.9917130    1.7121095  
C   -8.9508122    2.0920349    0.7359695  
N   -7.9353566    1.5942962   -0.0476104  
C  -10.2846427    1.8486703    0.6778954  
C  -11.1434641    2.5176425    1.6409326  
O  -12.3574860    2.3640566    1.6702734  
C  -10.4831299    3.4749934    2.6836417  
O  -11.1960981    4.0440234    3.4992039  
C   -9.0341942    3.6569876    2.6473658  
H   -6.1163780    3.4982340    1.9377074  
H  -10.7366708    1.1849882   -0.0460565  
H   -8.5847670    4.3213607    3.3728635  
H   -8.0568576    0.9486264   -0.8061589  
C   -4.2186860    2.1401322   -0.0437259  
C   -5.4804245    1.7323143   -0.3144294  
C   -5.3466892    0.8217466   -1.4411418  
C   -3.8965662    0.7958598   -1.7293371  
N   -3.2302256    1.5666944   -0.9133754  
C   -3.3460097   -0.0004262   -2.7913647  
C   -4.2050299   -0.7376506   -3.5315798  
O   -3.8298208   -1.5261789   -4.5530897  
C   -5.6737591   -0.7329690   -3.2651707  
O   -6.3965397   -1.4282085   -3.9789286  
C   -6.2140638    0.0921571   -2.1701078  
H   -4.6590779   -1.9185769   -4.8809753  
H   -7.2835615    0.0679009   -2.0094319  
H   -3.8917471    2.8223391    0.7248295  
C    0.0000000    0.0000000    0.0000000  
C    1.0662919   -0.0000103   -0.8334272  
C    0.4961868    0.0000066   -2.1718889  
C   -0.9663860   -0.0000849   -1.9540248  
N   -1.2632775   -0.0000084   -0.6828659  
C   -1.8985364   -0.0000515   -3.0477258  
C   -1.3925778    0.0004567   -4.3020543  
O   -2.1456385    0.0005412   -5.4151314  
C    0.0786229    0.0009326   -4.5544999  
O    0.4683756    0.0012594   -5.7221104  
C    1.0143162    0.0008443   -3.4159034  
H    2.1107195    0.0000631   -0.5721869  
H   -1.5042277    0.0009692   -6.1484420  
H    2.0724151    0.0013151   -3.6409746  
C    3.2573670    0.0002920    2.9809380  
C    2.5379467    0.0001709    1.8291961  
C    1.1435042   -0.0000331    2.2038498  
C    1.1092607    0.0000083    3.6788474  
N    2.4227561   -0.0001909    4.0882609  
C   -0.0265533    0.0002524    4.4215661  
C   -1.3003036    0.0002640    3.7214979  
O   -2.3786784    0.0004133    4.3006425  
C   -1.2877726   -0.0000311    2.1595606  
O   -2.3539958   -0.0003306    1.5592035  
C    0.0000000    0.0000000    1.4700000  
H    2.9384090    0.0000368    0.8310761  
H   -0.0296291    0.0004086    5.5027230  
H    4.3270393    0.0004765    3.1139444  
H    2.7280493    0.0013407    5.0442112  
