58

C    6.7550130    0.0027415   -6.5169157  
C    7.4214054    0.0038678   -5.3337016  
C    8.8314182    0.0044384   -5.6446651  
C    8.9325877    0.0035751   -7.1165877  
N    7.6390334    0.0021658   -7.5852075  
C   10.1009477    0.0041745   -7.8069783  
C   11.3416035    0.0055507   -7.0498066  
O   12.4451569    0.0061167   -7.5794002  
C   11.2581765    0.0062308   -5.4900491  
O   12.2960465    0.0070824   -4.8419075  
C    9.9404285    0.0057629   -4.8596610  
H    6.9760442    0.0040723   -4.3547904  
H   10.1531023    0.0036516   -8.8868808  
H    9.8913294    0.0064445   -3.7792385  
H    7.3774516    0.0028736   -8.5540326  
C    3.1006060    0.0006268   -3.9654947  
C    4.3994796    0.0008536   -4.3456353  
C    4.3646299    0.0008284   -5.8000373  
C    2.9251426    0.0004561   -6.1383563  
N    2.1793122    0.0004172   -5.0670359  
C    2.4634072    0.0003690   -7.4991968  
C    3.3972679    0.0010304   -8.4775822  
O    3.1090960    0.0010285   -9.7902116  
C    4.8575579    0.0017905   -8.1682053  
O    5.6513847    0.0022448   -9.1089813  
C    5.3059853    0.0018213   -6.7643398  
H    5.2733153    0.0011079   -3.7167578  
H    1.4054437   -0.0001122   -7.7174239  
H    3.9761796    0.0016104  -10.2344188  
C    3.2798085    0.0005859   -1.4499648  
C    2.5571146    0.0005569   -2.5996553  
C    1.1637437    0.0001551   -2.2210359  
C    1.1336966   -0.0000198   -0.7459471  
N    2.4483513   -0.0001427   -0.3402720  
C    0.0000000    0.0000000    0.0000000  
C   -1.2757366   -0.0000185   -0.6964416  
O   -2.3524595   -0.0000640   -0.1142313  
C   -1.2676493   -0.0000870   -2.2584084  
O   -2.3355759   -0.0004098   -2.8557296  
C    0.0181563    0.0001763   -2.9516295  
H    0.0150795    0.0003323   -4.0331630  
H    4.3498549    0.0008614   -1.3200020  
H    2.7563627    0.0012824    0.6148062  
C    2.4951002    2.0940188    2.9809380  
C    1.9440701    1.6314916    1.8291961  
C    0.8759964    0.7350050    2.2038498  
C    0.8497377    0.7130254    3.6788474  
N    1.8560616    1.5571714    4.0882609  
C   -0.0205033   -0.0168748    4.4215661  
C   -0.9962600   -0.8356168    3.7214979  
O   -1.8224391   -1.5286685    4.3006425  
C   -0.9864710   -0.8277881    2.1595606  
O   -1.8030528   -1.5133726    1.5592035  
C    0.0000000    0.0000000    1.4700000  
H    2.2509283    1.8888011    0.8310761  
H   -0.0229599   -0.0187323    5.5027230  
H    3.3143982    2.7817323    3.1139444  
H    2.0889452    1.7545833    5.0442112  
