58

C   -4.7161315    0.0019806   -1.6923275  
C   -5.6957059    0.0027954   -0.7518443  
C   -6.9559325    0.0031796   -1.4565888  
C   -6.6279059    0.0024877   -2.8950562  
N   -5.2541433    0.0021768   -2.9703270  
C   -7.5472407    0.0021949   -3.8933189  
C   -8.9536499    0.0028134   -3.5265108  
O   -9.8573540    0.0026741   -4.3521136  
C   -9.3240192    0.0038032   -2.0090688  
O  -10.5048011    0.0046365   -1.6881119  
C   -8.2443350    0.0037592   -1.0251305  
H   -5.5518779    0.0032758    0.3139539  
H   -8.5092033    0.0042424    0.0234721  
H   -4.7240348    0.0001421   -3.8224002  
C   -3.2573657    0.0012846   -1.5109392  
C   -2.5379457    0.0009443   -0.3591970  
C   -1.1435032    0.0003153   -0.7338501  
C   -1.1092595    0.0003463   -2.2088478  
N   -2.4227545    0.0005474   -2.6182617  
C    0.0265547    0.0002444   -2.9515659  
C    1.3003050   -0.0001322   -2.2514972  
O    2.3786795   -0.0003114   -2.8306412  
C    1.2877728   -0.0004235   -0.6895599  
O    2.3539962   -0.0010479   -0.0892025  
C    0.0000000    0.0000000    0.0000000  
H   -2.9384089    0.0009321    0.6389230  
H    0.0296320    0.0003996   -4.0327227  
H   -2.7280465    0.0021721   -3.5742123  
C   -7.1912937    0.0013269   -5.3195731  
C   -5.9612139    0.0004934   -5.8948797  
C   -6.1650070   -0.0000892   -7.3243216  
C   -7.6251154    0.0005065   -7.5361552  
N   -8.1899103    0.0009570   -6.2816049  
C   -8.2254715    0.0006105   -8.7532322  
C   -7.3769352   -0.0001244   -9.9332837  
O   -7.8218349   -0.0001566  -11.0736189  
C   -5.8279034   -0.0010154   -9.7325217  
O   -5.1033721   -0.0019453  -10.7185813  
C   -5.2986393   -0.0007668   -8.3710035  
H   -5.0186590    0.0001255   -5.3769957  
H   -9.2983696    0.0011812   -8.8866412  
H   -4.2249914   -0.0011827   -8.2406030  
H   -9.1756952    0.0029706   -6.0937979  
C    2.5528530    2.1414826    2.8079335  
C    2.0663498    1.7338582    4.0032312  
C    0.9804344    0.8229586    3.6752840  
C    0.9495562    0.7966882    2.1971295  
N    1.8690446    1.5676019    1.6831036  
C    0.0000000    0.0000000    1.4700000  
C   -0.8785127   -0.7372425    2.1869543  
O   -1.8187535   -1.5261249    1.6395491  
C   -0.8723269   -0.7321790    3.6796354  
O   -1.7010379   -1.4274584    4.2670412  
C    0.1115397    0.0933559    4.4024240  
H    2.4028853    2.0163452    4.9860947  
H   -2.2861435   -1.9184361    2.3990168  
H    0.0832434    0.0693689    5.4835595  
H    3.3664920    2.8238276    2.6198634  
