62

C    1.1188640    0.0008225   -0.8003806  
C    0.0000000    0.0000000    0.0000000  
C   -1.1323864    0.0008894   -0.8673523  
C   -0.6382662    0.0019674   -2.1969278  
N    0.7324012    0.0038482   -2.1202238  
C   -1.4770921    0.0027310   -3.3154804  
C   -2.8395484    0.0020931   -3.0876848  
O   -3.7039203    0.0024407   -4.1440338  
C   -3.3517872    0.0013915   -1.7684323  
O   -4.7300495    0.0012347   -1.7073113  
C   -2.5248544    0.0009114   -0.6644813  
H   -1.1067576    0.0036981   -4.3313808  
H   -4.5940038    0.0021809   -3.7685116  
H   -4.9934601    0.0007245   -0.7819905  
H   -2.9462578    0.0005591    0.3339665  
H    2.1619890    0.0009362   -0.5342066  
C    4.5412311   -2.0990423   -2.8732840  
C    3.3927951   -1.6299043   -2.3209431  
C    2.7903275   -0.7451813   -3.2900321  
C    3.6883334   -0.7373091   -4.4606360  
N    4.7307585   -1.5775589   -4.1440610  
C    3.4698847   -0.0211176   -5.5924726  
C    2.2703741    0.7967039   -5.6623077  
O    1.9845385    1.4779286   -6.6382851  
C    1.3053385    0.8036751   -4.4341122  
O    0.2924793    1.4886258   -4.4812227  
C    1.6478429   -0.0100097   -3.2702997  
H    3.0113377   -1.8754395   -1.3458453  
H    4.1412524   -0.0294712   -6.4398842  
H    5.2651730   -2.7816953   -2.4588174  
C    5.8697547   -1.8773089   -5.0236850  
C    6.9572469   -2.6943656   -4.8181455  
C    7.7597524   -2.6233715   -5.9952371  
C    7.1061461   -1.7398015   -6.8919138  
N    5.9608235   -1.3063027   -6.2714859  
C    7.6161933   -1.4320824   -8.1568053  
C    8.8079127   -2.0269259   -8.5230603  
O    9.3507761   -1.7611072   -9.7468471  
C    9.4748066   -2.9115448   -7.6424246  
O   10.6501004   -3.4228952   -8.1528655  
C    8.9720763   -3.2157847   -6.3945358  
H    7.1480294   -3.2715075   -3.9296059  
H    5.2981975   -0.6607705   -6.6616093  
H    7.1228070   -0.7595803   -8.8449285  
H   10.1694149   -2.2713706   -9.7990705  
H   11.0368722   -4.0100517   -7.4961627  
H    9.5052033   -3.8971410   -5.7418430  
C    0.0000000    0.0000000    1.4700000  
C    1.0541688    0.0001722    2.3260392  
C    0.5103138    0.0000454    3.6635956  
C   -0.9576371   -0.0002459    3.5155732  
N   -1.2018458    0.0001392    2.1615969  
C   -1.8348311   -0.0008317    4.5510609  
C   -1.2972847   -0.0009736    5.9014604  
O   -2.0050672   -0.0014265    6.9001319  
C    0.2542623   -0.0004184    6.0817573  
O    0.7184670   -0.0002256    7.2139121  
C    1.0974552   -0.0000873    4.8889129  
H    2.0940752    0.0005483    2.0517982  
H   -2.9081052   -0.0011668    4.4207061  
H    2.1707277    0.0000911    5.0223670  
H   -2.1128194   -0.0014912    1.7406791  
