60

C    3.3041279    0.0001173   -1.5420428  
C    2.5845377   -0.0004782   -0.3695853  
C    1.2040010   -0.0000010   -0.7283587  
C    1.1422381    0.0006033   -2.1454372  
N    2.4348648    0.0026105   -2.6077464  
C   -0.0655169    0.0008790   -2.8497923  
C   -1.2321763    0.0002319   -2.1101406  
O   -2.4392806    0.0001140   -2.7472532  
C   -1.1911206   -0.0000009   -0.6955270  
O   -2.4371521   -0.0002323   -0.1032874  
C    0.0000000    0.0000000    0.0000000  
H    3.0031537   -0.0000658    0.6222585  
H   -0.1193540    0.0014836   -3.9297475  
H   -3.1132985   -0.0000652   -2.0551794  
H   -2.3200278   -0.0004074    0.8516403  
H    4.3686629    0.0004068   -1.7024288  
C    5.6587039   -2.1482573   -4.5997623  
C    5.5107214   -1.7555988   -5.8864245  
C    4.3729234   -0.8490966   -5.8734390  
C    3.9446812   -0.8087295   -4.4586731  
N    4.6947126   -1.5682541   -3.7072977  
C    2.8310674   -0.0116226   -4.0232751  
C    2.1753258    0.7125517   -4.9586407  
O    1.1191542    1.5001776   -4.6937098  
C    2.5836187    0.6930786   -6.3942860  
O    1.9410889    1.3768916   -7.1910144  
C    3.7292197   -0.1325936   -6.8159356  
H    6.1008504   -2.0452555   -6.7390216  
H    0.8721725    1.8818754   -5.5553703  
H    3.9932675   -0.1192719   -7.8649025  
C    9.0579713   -4.5112761   -6.2506903  
C    7.9938236   -3.6789697   -6.1704742  
C    7.6209271   -3.6813814   -4.7642582  
C    8.5919994   -4.5935463   -4.1227302  
N    9.4369152   -5.0830078   -4.9890648  
C    8.5602520   -4.8690653   -2.7127060  
C    7.6022053   -4.2606754   -1.9769465  
O    7.4554308   -4.4262816   -0.6514007  
C    6.6080626   -3.3345733   -2.5951511  
O    5.7637061   -2.8160104   -1.8648259  
C    6.6614042   -3.0681555   -4.0436333  
H    7.5204335   -3.1309856   -6.9671487  
H    9.2821609   -5.5400429   -2.2704984  
H    6.6931095   -3.8677388   -0.4146535  
H    9.6272988   -4.7788034   -7.1266297  
C    2.5128556    2.1077716    2.9199648  
C    1.9592212    1.6432552    4.0696553  
C    0.8915788    0.7479214    3.6910360  
C    0.8684491    0.7287414    2.2159470  
N    1.8754542    1.5738793    1.8102719  
C    0.0000000    0.0000000    1.4700000  
C   -0.9772830   -0.8200135    2.1664417  
O   -1.8021297   -1.5120829    1.5842315  
C   -0.9711318   -0.8147624    3.7284083  
O   -1.7894187   -1.5009653    4.3257297  
C    0.0140216    0.0115358    4.4216297  
H    2.2638494    1.8988021    5.0689105  
H    0.0117648    0.0094386    5.5031631  
H    3.3327358    2.7953732    2.7900019  
H    2.1123206    1.7707734    0.8551938  
