60

C    0.0000000    0.0000000    0.0000000  
C   -1.0521664   -0.0013232   -0.8862345  
C   -0.4917225    0.0000211   -2.1979133  
C    0.9187418    0.0018797   -2.0478681  
N    1.1833123    0.0037676   -0.7007907  
C    1.7951686    0.0032530   -3.1372085  
C    1.2375830    0.0024337   -4.4010421  
O    2.0474213    0.0033545   -5.4997575  
C   -0.1673588    0.0009568   -4.5711962  
O   -0.5673538    0.0007135   -5.8915550  
C   -1.0325785   -0.0001253   -3.4969894  
H   -2.0953064   -0.0019400   -0.6200569  
H    2.0989964   -0.0052234   -0.2891820  
H    2.8710909    0.0048160   -3.0295506  
H    1.4634882    0.0028460   -6.2693590  
H   -1.5290726   -0.0003372   -5.9180050  
C   -2.4861726   -0.0014005   -3.7159928  
C   -3.4691557   -0.0025891   -2.7857662  
C   -4.7077449   -0.0035123   -3.5489158  
C   -4.2744152   -0.0025793   -4.9627081  
N   -2.9732124   -0.0014208   -5.0669066  
C   -5.2170366   -0.0031454   -6.0473972  
C   -6.5327450   -0.0049675   -5.7339580  
O   -7.5212076   -0.0056816   -6.6444428  
C   -7.0015547   -0.0063189   -4.3167858  
O   -8.2141993   -0.0078322   -4.1053356  
C   -6.0150664   -0.0056606   -3.2219044  
H   -3.3664317   -0.0029019   -1.7140744  
H   -4.8722825   -0.0022321   -7.0711419  
H   -8.3418922   -0.0070321   -6.1194404  
C   -4.6149780    2.1357201    0.3053805  
C   -5.4899621    1.7262948    1.2531955  
C   -6.3900496    0.8145270    0.5639778  
C   -5.8994133    0.7897771   -0.8307435  
N   -4.8590195    1.5622588   -0.9883587  
C   -6.5317078   -0.0072070   -1.8456852  
C   -7.6051083   -0.7461851   -1.4836667  
O   -8.2918580   -1.5355420   -2.3270711  
C   -8.1239368   -0.7426849   -0.0840363  
O   -9.1052415   -1.4395080    0.1742267  
C   -7.4580361    0.0831887    0.9389172  
H   -5.5207307    2.0081239    2.2918009  
H   -8.9957943   -1.9291742   -1.7805549  
H   -7.8644657    0.0580328    1.9411211  
H   -3.7881148    2.8191718    0.4156722  
C    3.2798086   -0.0005857    2.9199648  
C    2.5571146   -0.0005566    4.0696553  
C    1.1637436   -0.0001548    3.6910360  
C    1.1336965    0.0000200    2.2159470  
N    2.4483514    0.0001428    1.8102719  
C    0.0000000    0.0000000    1.4700000  
C   -1.2757367    0.0000186    2.1664417  
O   -2.3524596    0.0000640    1.5842315  
C   -1.2676493    0.0000873    3.7284083  
O   -2.3355761    0.0004100    4.3257297  
C    0.0181563   -0.0001760    4.4216297  
H    2.9547357   -0.0006076    5.0689105  
H    0.0150794   -0.0003319    5.5031631  
H    4.3498549   -0.0008612    2.7900019  
H    2.7563627   -0.0012824    0.8551938  
