62

C    2.8328491   -0.6823044   -3.3633882  
C    1.6628815    0.0345983   -3.2649297  
C    1.5242912    0.7738313   -4.4769226  
C    2.6492360    0.4649617   -5.2837838  
N    3.4245380   -0.4204016   -4.5769204  
C    2.8431021    1.0161408   -6.5539830  
C    1.8837143    1.8949006   -7.0182411  
O    2.0233097    2.4618221   -8.2519853  
C    0.7545198    2.2158484   -6.2278435  
O   -0.1103054    3.1064221   -6.8297560  
C    0.5627562    1.6726824   -4.9745582  
H    3.6983950    0.7849126   -7.1738300  
H    1.2554401    3.0343597   -8.3778525  
H   -0.8448250    3.2695318   -6.2301888  
H   -0.3119894    1.9375279   -4.3921880  
H    3.2928057   -1.3586318   -2.6634023  
C    1.1243370    0.0104708   -0.7919001  
C    0.7473984    0.0237727   -2.1148544  
C   -0.6787472    0.0231603   -2.1414704  
C   -1.1201781    0.0093826   -0.7935552  
N    0.0000000    0.0000000    0.0000000  
C   -2.4730837    0.0053186   -0.4408252  
C   -3.3972020    0.0156525   -1.4675073  
O   -4.7313574    0.0126130   -1.1793487  
C   -2.9763764    0.0290844   -2.8186338  
O   -4.0166627    0.0378030   -3.7247643  
C   -1.6418692    0.0328277   -3.1673487  
H   -2.8160145   -0.0053094    0.5845953  
H   -5.1938903    0.0208767   -2.0274402  
H   -3.6464859    0.0466784   -4.6127360  
H   -1.3497638    0.0430128   -4.2109241  
H    2.1062445    0.0061782   -0.3505403  
C    5.0520280   -4.4833369   -4.2203092  
C    6.2284004   -4.3126136   -4.8768733  
C    6.2747134   -2.9348516   -5.3063645  
C    5.0199095   -2.3124272   -4.8428499  
N    4.3229220   -3.3042062   -4.1921024  
C    4.6829000   -1.0144005   -5.0508309  
C    5.6183778   -0.1743619   -5.7800438  
O    5.4063489    1.0074017   -6.0183291  
C    6.9532836   -0.8126492   -6.2804627  
O    7.7485059   -0.1153148   -6.8957742  
C    7.2048277   -2.2230136   -5.9950671  
H    6.9780571   -5.0659174   -5.0416812  
H    8.1315385   -2.6572964   -6.3448237  
H    4.6562941   -5.3713976   -3.7548709  
H    3.4240568   -3.1886807   -3.7611239  
C    2.3971438    2.0127888    3.1728260  
C    1.9431056    1.6308205    1.9564670  
C    0.8496017    0.7127664    2.2356185  
C    0.7794028    0.6545384    3.7115134  
N    1.6840587    1.4146091    4.2663826  
C   -0.1885723   -0.1578550    4.3957118  
C   -1.0476298   -0.8789867    3.6398520  
O   -2.0015663   -1.6796266    4.1448486  
C   -1.0022026   -0.8410666    2.1483229  
O   -1.8147390   -1.5232959    1.5241687  
C    0.0000000    0.0000000    1.4700000  
H    2.3054237    1.9346118    0.9892483  
H   -0.2170646   -0.1815267    5.4753125  
H   -2.4487139   -2.0549881    3.3649027  
H    3.2048689    2.6911772    3.3971983  
