58

C    2.2512046   -1.8345386   -7.7940132  
C    3.3236349   -2.6483260   -7.9721080  
C    3.6792778   -2.5762975   -9.3696653  
C    2.7192680   -1.6471557   -9.9956589  
N    1.8801995   -1.2330211   -8.9870221  
C    2.7200147   -1.3113548  -11.3105506  
C    3.7338694   -1.9048174  -12.1663765  
O    3.8178122   -1.6657843  -13.3639211  
C    4.7605787   -2.8917227  -11.5247439  
O    5.6185435   -3.3978088  -12.2354025  
C    4.6591142   -3.1757190  -10.0954425  
H    3.8099462   -3.2325502   -7.2113216  
H    2.0068852   -0.6276043  -11.7496880  
H    5.3739226   -3.8599547   -9.6588711  
H    1.1172314   -0.5909767   -9.0997442  
C    1.7720688   -2.0859335   -5.3149821  
C    0.8968264   -1.6247192   -4.3847633  
C   -0.0065337   -0.7270827   -5.0652227  
C    0.4171842   -0.7029980   -6.4782596  
N    1.5002594   -1.5471469   -6.5634081  
C   -0.1857664    0.0284587   -7.4494065  
C   -1.3281505    0.8467740   -7.0781196  
O   -1.9388952    1.5411249   -7.8800977  
C   -1.7940047    0.8367265   -5.5872531  
O   -2.7544405    1.5219332   -5.2627299  
C   -1.0641734    0.0073898   -4.6315339  
H    0.8854566   -1.8836207   -3.3409936  
H    0.1408072    0.0318496   -8.4800604  
H    2.5929126   -2.7739331   -5.1934839  
C    1.1319248    0.0015675   -0.8009270  
C    0.7969916    0.0034959   -2.1169404  
C   -0.6453336    0.0035703   -2.1842672  
C   -1.1266831    0.0015415   -0.7896027  
N    0.0000000    0.0000000    0.0000000  
C   -2.4346129    0.0013924   -0.4276297  
C   -3.4350110    0.0031352   -1.4820184  
O   -4.6384610    0.0030897   -1.2583919  
C   -2.9478958    0.0050460   -2.9661075  
O   -3.7809377    0.0062160   -3.8623775  
C   -1.5113821    0.0053068   -3.2312125  
H    1.4821240    0.0045436   -2.9459192  
H   -2.7664565    0.0000185    0.6013447  
H    2.1104318    0.0009428   -0.3488058  
C    0.8400945    0.7047457    2.2710304  
C    0.0000000    0.0000000    1.4700000  
C   -0.8844236   -0.7423113    2.3369512  
C   -0.4878984   -0.4098547    3.7186280  
N    0.5629682    0.4714286    3.6095011  
C   -1.0836927   -0.9095027    4.8308716  
C   -2.1891196   -1.8367527    4.6554461  
O   -2.7906899   -2.3413415    5.5944904  
C   -2.6257283   -2.2031529    3.2011665  
O   -3.5549479   -2.9829990    3.0410059  
C   -1.9068976   -1.5999348    2.0816745  
H   -0.7774656   -0.6525820    5.8354244  
H   -2.2155208   -1.8586617    1.0779135  
H    1.6384792    1.3747609    1.9961646  
H    1.0518368    0.8833920    4.3830260  
