62

C    3.3003554    0.0005279   -1.4738974  
C    2.5232827    0.0003500   -2.6090737  
C    1.1623213   -0.0001318   -2.1820100  
C    1.1711891    0.0000584   -0.7636139  
N    2.4852307   -0.0014918   -0.3662351  
C    0.0000000    0.0000000    0.0000000  
C   -1.2020377    0.0000521   -0.6806487  
O   -2.3759251    0.0003494    0.0157735  
C   -1.2314643   -0.0005113   -2.0955516  
O   -2.5054380   -0.0008037   -2.6250188  
C   -0.0764500   -0.0007272   -2.8495198  
H    2.8036267    0.0088182    0.5858675  
H   -3.0835632    0.0000344   -0.6418834  
H   -2.4360031   -0.0011528   -3.5845932  
H   -0.1304077   -0.0013419   -3.9319084  
H    4.3715557    0.0004898   -1.3667115  
C    4.1182206   -0.7098242   -4.4345219  
C    4.3063937   -0.4605390   -5.7742663  
C    3.2826558    0.4475822   -6.1766057  
C    2.4931738    0.7193452   -5.0299633  
N    3.0267454   -0.0008948   -3.9901688  
C    1.3904701    1.5784648   -5.0572790  
C    1.0792537    2.1743287   -6.2640385  
O    0.0128535    3.0222365   -6.3468383  
C    1.8547108    1.9154240   -7.4192234  
O    1.4171373    2.5841568   -8.5437985  
C    2.9425281    1.0677821   -7.3930712  
H    0.7846364    1.7896272   -4.1868892  
H   -0.0265946    3.3225741   -7.2641747  
H    1.9945715    2.3544012   -9.2782274  
H    3.5175178    0.8886452   -8.2940571  
H    4.6753598   -1.3383447   -3.7610852  
C    5.3695493   -1.0364347   -6.6102949  
C    6.3571262   -1.9016394   -6.2636118  
C    7.1344252   -2.1522710   -7.4543360  
C    6.5143148   -1.3564321   -8.5308553  
N    5.4494612   -0.7035758   -7.9540057  
C    6.9568783   -1.3208722   -9.8132664  
C    8.1215572   -2.1199123  -10.1561825  
O    8.5966447   -2.1551582  -11.2837242  
C    8.7940795   -2.9706044   -9.0319751  
O    9.7750757   -3.6475491   -9.3088401  
C    8.2259745   -2.9272362   -7.6868996  
H    6.5221359   -2.3170288   -5.2854312  
H    6.4875598   -0.7302405  -10.5877366  
H    8.6976274   -3.5189606   -6.9141578  
H    4.8275130   -0.0796670   -8.4345941  
C    2.5128556    2.1077716    2.9199648  
C    1.9592212    1.6432552    4.0696553  
C    0.8915788    0.7479214    3.6910360  
C    0.8684491    0.7287414    2.2159470  
N    1.8754542    1.5738793    1.8102719  
C    0.0000000    0.0000000    1.4700000  
C   -0.9772830   -0.8200135    2.1664417  
O   -1.8021297   -1.5120829    1.5842315  
C   -0.9711318   -0.8147624    3.7284083  
O   -1.7894187   -1.5009653    4.3257297  
C    0.0140216    0.0115358    4.4216297  
H    2.2638494    1.8988021    5.0689105  
H    0.0117648    0.0094386    5.5031631  
H    3.3327358    2.7953732    2.7900019  
H    2.1123206    1.7707734    0.8551938  
