60

C   -3.3003507   -0.0046233   -1.4738999  
C   -2.5232777   -0.0034810   -2.6090754  
C   -1.1623179   -0.0013105   -2.1820103  
C   -1.1711875   -0.0015117   -0.7636142  
N   -2.4852294   -0.0015923   -0.3662368  
C    0.0000000    0.0000000    0.0000000  
C    1.2020372    0.0014398   -0.6806473  
O    2.3759236    0.0025991    0.0157760  
C    1.2314650    0.0020395   -2.0955499  
O    2.5054370    0.0039130   -2.6250164  
C    0.0764527    0.0008222   -2.8495192  
H   -2.8919920   -0.0030269   -3.6205312  
H   -2.8036133   -0.0122975    0.5858650  
H    3.0835619    0.0037920   -0.6418800  
H    2.4360041    0.0041759   -3.5845909  
H    0.1304093    0.0015041   -3.9319081  
C   -4.7630454   -0.0063865   -1.3275424  
C   -5.6984925   -0.0085222   -2.3055572  
C   -6.9735426   -0.0095091   -1.6050234  
C   -6.6111439   -0.0077949   -0.1714096  
N   -5.3167438   -0.0058802   -0.0025540  
C   -7.6066031   -0.0080893    0.8650009  
C   -8.9050738   -0.0096198    0.4864412  
O   -9.9376437   -0.0100753    1.3465810  
C   -9.3027411   -0.0110001   -0.9523152  
O  -10.5033536   -0.0124856   -1.2238806  
C   -8.2629618   -0.0107105   -1.9967212  
H   -5.5425360   -0.0092382   -3.3708048  
H   -7.3132489   -0.0070155    1.9046411  
H  -10.7311708   -0.0112039    0.7813678  
C   -8.7104409   -0.0119559   -3.3969575  
C   -7.9484545   -0.0120420   -4.5154187  
C   -8.8989411   -0.0134964   -5.6168147  
C  -10.2257827   -0.0142677   -4.9640713  
N  -10.1216347   -0.0132896   -3.6628635  
C  -11.4466257   -0.0157120   -5.7221122  
C  -11.3465070   -0.0159675   -7.0709314  
O  -12.4026573   -0.0172711   -7.9019461  
C  -10.0219735   -0.0148359   -7.7592417  
O  -10.0061477   -0.0152683   -8.9900828  
C   -8.7840894   -0.0134063   -6.9595137  
H   -6.8740702   -0.0111299   -4.5845090  
H  -12.4024810   -0.0164564   -5.2188721  
H  -12.0149125   -0.0170851   -8.7957059  
H   -7.8447205   -0.0125010   -7.4959970  
C    0.8400945    0.7047457    2.2710304  
C    0.0000000    0.0000000    1.4700000  
C   -0.8844236   -0.7423113    2.3369512  
C   -0.4878984   -0.4098547    3.7186280  
N    0.5629682    0.4714286    3.6095011  
C   -1.0836927   -0.9095027    4.8308716  
C   -2.1891196   -1.8367527    4.6554461  
O   -2.7906899   -2.3413415    5.5944904  
C   -2.6257283   -2.2031529    3.2011665  
O   -3.5549479   -2.9829990    3.0410059  
C   -1.9068976   -1.5999348    2.0816745  
H   -0.7774656   -0.6525820    5.8354244  
H   -2.2155208   -1.8586617    1.0779135  
H    1.6384792    1.3747609    1.9961646  
H    1.0518368    0.8833920    4.3830260  
