60

C   -3.3041232    0.0042829   -1.5420452  
C   -2.5845340    0.0039202   -0.3695870  
C   -1.2039992    0.0016043   -0.7283597  
C   -1.1422357    0.0009174   -2.1454381  
N   -2.4348635    0.0006318   -2.6077479  
C    0.0655195   -0.0009673   -2.8497916  
C    1.2321773   -0.0018738   -2.1101388  
O    2.4392807   -0.0033637   -2.7472500  
C    1.1911203   -0.0015857   -0.6955256  
O    2.4371508   -0.0030140   -0.1032845  
C    0.0000000    0.0000000    0.0000000  
H   -3.0031509    0.0040659    0.6222562  
H   -2.7054484    0.0107130   -3.5745279  
H    0.1193552   -0.0016437   -3.9297472  
H    3.1132975   -0.0040819   -2.0551762  
H    2.3200262   -0.0026829    0.8516425  
C   -4.7577174    0.0058236   -1.7610493  
C   -5.7612528    0.0086530   -0.8461813  
C   -7.0028575    0.0090202   -1.5832383  
C   -6.6377917    0.0061232   -3.0127520  
N   -5.2625437    0.0046814   -3.0525169  
C   -7.5310382    0.0051584   -4.0344236  
C   -8.9464506    0.0073294   -3.7040626  
O   -9.8285309    0.0067417   -4.5527289  
C   -9.3558838    0.0106636   -2.1966943  
O  -10.5445603    0.0128181   -1.9063422  
C   -8.3019718    0.0111520   -1.1852005  
H   -5.6449977    0.0104776    0.2229749  
H   -7.2422423    0.0028950   -5.0762976  
H   -4.7106083    0.0010891   -3.8906112  
C   -8.6986626    0.0140199    0.2302598  
C   -7.8968374    0.0149723    1.3205140  
C   -8.8069851    0.0179325    2.4554685  
C  -10.1565036    0.0185367    1.8509984  
N  -10.0993482    0.0161705    0.5468832  
C  -11.3492140    0.0212348    2.6525717  
C  -11.2005175    0.0228494    3.9969012  
O  -12.2260125    0.0254192    4.8654607  
C   -9.8520247    0.0219226    4.6369986  
O   -9.7918207    0.0236241    5.8664669  
C   -8.6437865    0.0191894    3.7931516  
H   -6.8206607    0.0137195    1.3508152  
H  -12.3225952    0.0218246    2.1841282  
H  -11.8062883    0.0260103    5.7446558  
H   -7.6856813    0.0184794    4.2954107  
C    2.4951002    2.0940188    2.9809380  
C    1.9440701    1.6314916    1.8291961  
C    0.8759964    0.7350050    2.2038498  
C    0.8497377    0.7130254    3.6788474  
N    1.8560616    1.5571714    4.0882609  
C   -0.0205033   -0.0168748    4.4215661  
C   -0.9962600   -0.8356168    3.7214979  
O   -1.8224391   -1.5286685    4.3006425  
C   -0.9864710   -0.8277881    2.1595606  
O   -1.8030528   -1.5133726    1.5592035  
C    0.0000000    0.0000000    1.4700000  
H    2.2509283    1.8888011    0.8310761  
H   -0.0229599   -0.0187323    5.5027230  
H    3.3143982    2.7817323    3.1139444  
H    2.0889452    1.7545833    5.0442112  
