62

C    0.0000000    0.0000000    0.0000000  
C    1.0521663   -0.0011902   -0.8862345  
C    0.4917215   -0.0011956   -2.1979133  
C   -0.9187430    0.0003149   -2.0478683  
N   -1.1833172   -0.0009411   -0.7007910  
C   -1.7951704    0.0010351   -3.1372088  
C   -1.2375840    0.0005226   -4.4010423  
O   -2.0474221    0.0015361   -5.4997580  
C    0.1673576   -0.0013565   -4.5711965  
O    0.5673516   -0.0020685   -5.8915550  
C    1.0325767   -0.0023411   -3.4969892  
H    2.0953056   -0.0030649   -0.6200563  
H   -2.0989778    0.0102372   -0.2891821  
H   -1.4634890    0.0006499   -6.2693592  
H    1.5290706   -0.0033151   -5.9180044  
C   -4.4707106    2.1246523   -0.3281852  
C   -5.6599901    1.6263872   -0.8075739  
C   -5.3396940    0.7516100   -1.8877478  
C   -3.9276529    0.7558436   -2.0220871  
N   -3.4313381    1.6012525   -1.0610603  
C   -3.2578654    0.0024039   -2.9908502  
C   -4.0275271   -0.7696041   -3.8392616  
O   -3.4247832   -1.5249880   -4.8031639  
C   -5.4376975   -0.7867694   -3.7211790  
O   -6.0624813   -1.6048901   -4.6396928  
C   -6.0991477   -0.0435244   -2.7658798  
H   -6.6381349    1.8650159   -0.4264133  
H   -2.4588395    1.7971149   -0.9065735  
H   -4.1335869   -1.9789647   -5.2772599  
H   -7.0119725   -1.5591008   -4.4914531  
H   -7.1803458   -0.0767266   -2.6996340  
H   -4.2817180    2.8130885    0.4776041  
C    4.2912213   -2.1143571   -1.4466324  
C    5.3462817   -1.6515853   -2.1654959  
C    4.8141453   -0.7557365   -3.1650567  
C    3.3521023   -0.7343530   -2.9681718  
N    3.0997377   -1.5788366   -1.9117397  
C    2.4861696   -0.0045381   -3.7159924  
C    3.0304467    0.8143880   -4.7863464  
O    2.3328655    1.5072883   -5.5154351  
C    4.5758889    0.8068028   -5.0129671  
O    5.0456429    1.4920740   -5.9112963  
C    5.4069280   -0.0204845   -4.1418633  
H    6.3793922   -1.9086111   -2.0130694  
H    6.4760571   -0.0200039   -4.3052243  
H    4.2838449   -2.8017254   -0.6163551  
H    2.1903186   -1.7742921   -1.5351745  
C    3.2573670    0.0002920    2.9809380  
C    2.5379467    0.0001709    1.8291961  
C    1.1435042   -0.0000331    2.2038498  
C    1.1092607    0.0000083    3.6788474  
N    2.4227561   -0.0001909    4.0882609  
C   -0.0265533    0.0002524    4.4215661  
C   -1.3003036    0.0002640    3.7214979  
O   -2.3786784    0.0004133    4.3006425  
C   -1.2877726   -0.0000311    2.1595606  
O   -2.3539958   -0.0003306    1.5592035  
C    0.0000000    0.0000000    1.4700000  
H    2.9384090    0.0000368    0.8310761  
H   -0.0296291    0.0004086    5.5027230  
H    4.3270393    0.0004765    3.1139444  
H    2.7280493    0.0013407    5.0442112  
