58

C    0.0139748    0.0003878   -4.4216235  
C    1.0657037    0.0015282   -5.2806580  
C    0.5180458    0.0012343   -6.6166619  
C   -0.9494773   -0.0001516   -6.4644640  
N   -1.1898325   -0.0010074   -5.1097987  
C   -1.8296137   -0.0004060   -7.4974522  
C   -1.2959116    0.0005369   -8.8493760  
O   -2.0065322    0.0003354   -9.8460291  
C    0.2551156    0.0017579   -9.0340851  
O    0.7160975    0.0022519  -10.1675564  
C    1.1016985    0.0022060   -7.8436446  
H    2.1063852    0.0022855   -5.0093767  
H    2.1745861    0.0032575   -7.9801514  
H   -2.0996064   -0.0004653   -4.6862912  
C    3.2798088    0.0005857   -1.4499641  
C    2.5571148    0.0005566   -2.5996549  
C    1.1637440    0.0001548   -2.2210358  
C    1.1336968   -0.0000200   -0.7459466  
N    2.4483517   -0.0001427   -0.3402711  
C    0.0000000    0.0000000    0.0000000  
C   -1.2757365   -0.0000186   -0.6964413  
O   -2.3524595   -0.0000640   -0.1142314  
C   -1.2676489   -0.0000873   -2.2584079  
O   -2.3355757   -0.0004102   -2.8557297  
C    0.0181568    0.0001759   -2.9516294  
H    2.9547360    0.0006075   -3.5989095  
H    4.3498554    0.0008612   -1.3200012  
H    2.7563630    0.0012824    0.6148072  
C   -3.9801784    0.7022069   -6.3832658  
C   -3.2883794   -0.0016221   -7.3160649  
C   -4.2572551   -0.7443829   -8.0870526  
C   -5.5797044   -0.4131893   -7.5229350  
N   -5.3424323    0.4678664   -6.4932105  
C   -6.7565732   -0.9135771   -7.9771345  
C   -6.7181637   -1.8403476   -9.0961324  
O   -7.7238658   -2.3455311   -9.5774368  
C   -5.3285854   -2.2054126   -9.7089990  
O   -5.2836973   -2.9848452  -10.6511940  
C   -4.1294235   -1.6014860   -9.1335570  
H   -7.7158638   -0.6575800   -7.5491892  
H   -3.1712127   -1.8592891   -9.5637816  
H   -3.6094231    1.3722078   -5.6246297  
H   -6.0500458    0.8790420   -5.9124648  
C    0.8175213    0.6860729    2.3021913  
C    0.0000000    0.0000000    1.4700000  
C   -0.8887526   -0.7456559    2.3478473  
C   -0.4549825   -0.3816753    3.7138435  
N    0.5448156    0.4573574    3.6934124  
C   -1.0945674   -0.9182058    4.8835240  
C   -2.1210866   -1.7789155    4.6970523  
O   -2.8083856   -2.3554314    5.6976972  
C   -2.5824069   -2.1655116    3.3310774  
O   -3.5227682   -2.9541547    3.2362962  
C   -1.9100805   -1.6015804    2.1470656  
H   -0.7567140   -0.6349833    5.8697035  
H   -3.4728268   -2.9124471    5.2533954  
H   -2.2742832   -1.9066565    1.1752040  
H    1.6189533    1.3585343    2.0405121  
