60

C    3.3003552    0.0005275   -1.4738984  
C    2.5232817    0.0003496   -2.6090743  
C    1.1623204   -0.0001320   -2.1820099  
C    1.1711887    0.0000582   -0.7636134  
N    2.4852302   -0.0014920   -0.3662351  
C    0.0000000    0.0000000    0.0000000  
C   -1.2020380    0.0000519   -0.6806477  
O   -2.3759248    0.0003492    0.0157745  
C   -1.2314653   -0.0005115   -2.0955505  
O   -2.5054383   -0.0008042   -2.6250185  
C   -0.0764510   -0.0007275   -2.8495192  
H    2.8919961   -0.0005621   -3.6205295  
H    2.8036264    0.0088182    0.5858666  
H   -3.0835635    0.0000346   -0.6418821  
H   -2.4360041   -0.0011531   -3.5845924  
H    4.3715554    0.0004893   -1.3667125  
C    0.6257873   -0.6877067   -5.1891866  
C   -0.1496407   -0.0015617   -4.3176957  
C   -1.0813833    0.7431613   -5.1506086  
C   -0.7159746    0.3786179   -6.5363099  
N    0.2840344   -0.4599142   -6.5652282  
C   -1.4132804    0.9141716   -7.6729860  
C   -2.4296869    1.7744849   -7.4361031  
O   -3.1662524    2.3500967   -8.4015995  
C   -2.8226241    2.1616302   -6.0490633  
O   -3.7575075    2.9498673   -5.9080077  
C   -2.0918898    1.5987000   -4.8996890  
H   -3.8080358    2.9070395   -7.9250691  
H   -2.4074104    1.9041492   -3.9110649  
H    1.4396013   -1.3596275   -4.9673697  
C   -1.0207131    0.5282220   -9.0360096  
C   -0.0339915   -0.3144608   -9.4364351  
C   -0.0678868   -0.3468132  -10.8795709  
C   -1.1630727    0.5525685  -11.2900238  
N   -1.7005527    1.0508794  -10.1256823  
C   -1.5171005    0.7952304  -12.5774564  
C   -0.7697442    0.1257606  -13.6290291  
O   -1.0118378    0.2787029  -14.8191135  
C    0.3940189   -0.8312886  -13.2173035  
O    1.0301252   -1.4007322  -14.0938663  
C    0.6817315   -1.0125144  -11.7966592  
H    0.6404969   -0.8521858   -8.7941495  
H   -2.3236633    1.4587057  -12.8570392  
H    1.4892217   -1.6766828  -11.5199568  
H   -2.4671437    1.6965189  -10.0753341  
C    2.5128556    2.1077716    2.9199648  
C    1.9592212    1.6432552    4.0696553  
C    0.8915788    0.7479214    3.6910360  
C    0.8684491    0.7287414    2.2159470  
N    1.8754542    1.5738793    1.8102719  
C    0.0000000    0.0000000    1.4700000  
C   -0.9772830   -0.8200135    2.1664417  
O   -1.8021297   -1.5120829    1.5842315  
C   -0.9711318   -0.8147624    3.7284083  
O   -1.7894187   -1.5009653    4.3257297  
C    0.0140216    0.0115358    4.4216297  
H    2.2638494    1.8988021    5.0689105  
H    0.0117648    0.0094386    5.5031631  
H    3.3327358    2.7953732    2.7900019  
H    2.1123206    1.7707734    0.8551938  
