58

C    0.0139745    0.0003876   -4.4216234  
C    1.0657033    0.0015278   -5.2806576  
C    0.5180455    0.0012339   -6.6166615  
C   -0.9494779   -0.0001520   -6.4644638  
N   -1.1898330   -0.0010077   -5.1097987  
C   -1.8296141   -0.0004065   -7.4974520  
C   -1.2959123    0.0005364   -8.8493758  
O   -2.0065331    0.0003348   -9.8460287  
C    0.2551151    0.0017573   -9.0340854  
O    0.7160971    0.0022513  -10.1675562  
C    1.1016980    0.0022055   -7.8436445  
H    2.1063852    0.0022852   -5.0093767  
H   -2.9025128   -0.0013008   -7.3640443  
H   -2.0996068   -0.0004656   -4.6862904  
C    3.2798091    0.0005855   -1.4499643  
C    2.5571147    0.0005563   -2.5996547  
C    1.1637437    0.0001546   -2.2210360  
C    1.1336965   -0.0000200   -0.7459467  
N    2.4483515   -0.0001428   -0.3402712  
C    0.0000000    0.0000000    0.0000000  
C   -1.2757365   -0.0000187   -0.6964408  
O   -2.3524594   -0.0000640   -0.1142307  
C   -1.2676492   -0.0000875   -2.2584076  
O   -2.3355758   -0.0004103   -2.8557296  
C    0.0181565    0.0001757   -2.9516294  
H    2.9547358    0.0006072   -3.5989101  
H    4.3498554    0.0008610   -1.3200012  
H    2.7563628    0.0012824    0.6148069  
C    4.3174523   -2.1032207   -5.7200994  
C    5.3876343   -1.6374779   -6.4142671  
C    4.8764487   -0.7423025   -7.4252994  
C    3.4102195   -0.7245521   -7.2620588  
N    3.1356825   -1.5702821   -6.2121730  
C    2.5599415    0.0036346   -8.0291812  
C    3.1266946    0.8245171   -9.0862897  
O    2.4443815    1.5161824   -9.8308365  
C    4.6769503    0.8207834   -9.2773336  
O    5.1655693    1.5077277  -10.1642495  
C    5.4897460   -0.0050343   -8.3878168  
H    6.4175868   -1.8921130   -6.2382775  
H    6.5623429   -0.0018852   -8.5265607  
H    4.2926565   -2.7911097   -4.8905914  
H    2.2183241   -1.7681513   -5.8567183  
C    2.3971438    2.0127888    3.1728260  
C    1.9431056    1.6308205    1.9564670  
C    0.8496017    0.7127664    2.2356185  
C    0.7794028    0.6545384    3.7115134  
N    1.6840587    1.4146091    4.2663826  
C   -0.1885723   -0.1578550    4.3957118  
C   -1.0476298   -0.8789867    3.6398520  
O   -2.0015663   -1.6796266    4.1448486  
C   -1.0022026   -0.8410666    2.1483229  
O   -1.8147390   -1.5232959    1.5241687  
C    0.0000000    0.0000000    1.4700000  
H    2.3054237    1.9346118    0.9892483  
H   -0.2170646   -0.1815267    5.4753125  
H   -2.4487139   -2.0549881    3.3649027  
H    3.2048689    2.6911772    3.3971983  
