58

C    0.8478008   -0.5192964   -9.6360215  
C    0.3213397    0.6904730   -9.3145067  
C    0.7976096    1.6321970  -10.2999789  
C    1.6507911    0.8664054  -11.2286535  
N    1.6401314   -0.4308641  -10.7705395  
C    2.2896014    1.3978909  -12.3015694  
C    2.1261039    2.8190429  -12.5587290  
O    2.6603302    3.3914893  -13.4995854  
C    1.2272770    3.6494784  -11.5880129  
O    1.0824269    4.8468703  -11.7942447  
C    0.5903216    2.9647354  -10.4658427  
H    2.9107510    0.8184913  -12.9704335  
H   -0.0305954    3.5468315   -9.7984964  
H    0.7237881   -1.4679603   -9.1394864  
H    2.1305815   -1.1959814  -11.1961009  
C    0.2908557   -0.7259189   -5.1324807  
C    0.5947739   -0.5089636   -6.4380995  
C   -0.3866753    0.4179345   -6.9504007  
C   -1.2937764    0.7254249   -5.8281676  
N   -0.8287665    0.0000939   -4.7555305  
C   -2.3565452    1.5657078   -5.9065966  
C   -2.6250319    2.2100942   -7.1814364  
O   -3.5581905    2.9833453   -7.3534798  
C   -1.6774703    1.8988251   -8.3835368  
O   -1.8937506    2.4352002   -9.4618622  
C   -0.5642193    0.9759823   -8.1764507  
H    1.4129887   -0.9482636   -6.9804582  
H   -3.0094325    1.7776989   -5.0713071  
H    0.7904798   -1.3552659   -4.4140187  
C    1.0672569   -0.0000698   -0.8321910  
C    0.0000000    0.0000000    0.0000000  
C   -1.1601223   -0.0000736   -0.8778472  
C   -0.5938729   -0.0000768   -2.2438435  
N    0.7113367   -0.0001553   -2.2234123  
C   -1.4286985   -0.0001877   -3.4135239  
C   -2.7683113   -0.0006798   -3.2270524  
O   -3.6653902   -0.0008302   -4.2276970  
C   -3.3702024   -0.0010610   -1.8610774  
O   -4.5974910   -0.0013779   -1.7662963  
C   -2.4926825   -0.0008943   -0.6770658  
H   -4.5324245   -0.0012258   -3.7833954  
H   -2.9677772   -0.0012974    0.2947961  
H    2.1134391   -0.0000547   -0.5705119  
C    0.8175213    0.6860729    2.3021913  
C    0.0000000    0.0000000    1.4700000  
C   -0.8887526   -0.7456559    2.3478473  
C   -0.4549825   -0.3816753    3.7138435  
N    0.5448156    0.4573574    3.6934124  
C   -1.0945674   -0.9182058    4.8835240  
C   -2.1210866   -1.7789155    4.6970523  
O   -2.8083856   -2.3554314    5.6976972  
C   -2.5824069   -2.1655116    3.3310774  
O   -3.5227682   -2.9541547    3.2362962  
C   -1.9100805   -1.6015804    2.1470656  
H   -0.7567140   -0.6349833    5.8697035  
H   -3.4728268   -2.9124471    5.2533954  
H   -2.2742832   -1.9066565    1.1752040  
H    1.6189533    1.3585343    2.0405121  
