60

C    0.0000000    0.0000000    0.0000000  
C    0.8624650    0.6026707   -0.8862345  
C    0.4034335    0.2811304   -2.1979133  
C   -0.7526801   -0.5268382   -2.0478689  
N   -0.9686613   -0.6796581   -0.7007920  
C   -1.4709353   -1.0290684   -3.1372098  
C   -1.0139476   -0.7095916   -4.4010432  
O   -1.6778303   -1.1733780   -5.4997590  
C    0.1378540    0.0949066   -4.5711968  
O    0.4658805    0.3238071   -5.8915553  
C    0.8470805    0.5904897   -3.4969894  
H    1.7179281    1.1996001   -0.6200558  
H   -1.7250493   -1.1958309   -0.2891839  
H   -2.3527528   -1.6455178   -3.0295525  
H   -1.1990481   -0.8390917   -6.2693605  
H    1.2542954    0.8745389   -5.9180043  
C    3.2099370    1.3549230   -2.9764949  
C    4.1217029    2.2557326   -3.4251592  
C    3.5108361    2.9592740   -4.5282033  
C    2.1587405    2.3904423   -4.6865015  
N    2.0389128    1.4226397   -3.7159919  
C    1.2618946    2.7888095   -5.6238786  
C    1.6545931    3.8483840   -6.5380040  
O    0.9180799    4.2769392   -7.4167463  
C    3.0818939    4.4650974   -6.3887335  
O    3.4238119    5.3575664   -7.1528364  
C    3.9594852    3.9526520   -5.3394072  
H    5.1095280    2.4096566   -3.0287713  
H    0.2750297    2.3584678   -5.7229395  
H    3.2950368    0.6471481   -2.1679759  
C    7.7877105    2.0519284   -4.4912110  
C    8.6367870    3.1057788   -4.4982284  
C    7.7987557    4.2607588   -4.7814677  
C    6.4349497    3.7064995   -4.9207987  
N    6.4222185    2.4122032   -4.7516120  
C    5.3003964    4.5404731   -5.2077908  
C    5.5183163    5.8678640   -5.3487837  
O    4.5523254    6.7626782   -5.6175006  
C    6.8829418    6.4575141   -5.2136105  
O    7.0074709    7.6739896   -5.3546787  
C    8.0305854    5.5811237   -4.9190276  
H    9.7004128    3.1000937   -4.3316702  
H    5.0130687    7.6201032   -5.6586142  
H    9.0026472    6.0471308   -4.8286841  
H    8.0198641    1.0131883   -4.3177267  
C    1.1319247   -0.0015655    2.2709268  
C    0.7969915   -0.0034943    3.5869401  
C   -0.6453339   -0.0035710    3.6542670  
C   -1.1266833   -0.0015433    2.2596025  
N    0.0000000    0.0000000    1.4700000  
C   -2.4346130   -0.0013964    1.8976294  
C   -3.4350110   -0.0031408    2.9520183  
O   -4.6384611   -0.0030974    2.7283916  
C   -2.9478959   -0.0050506    4.4361073  
O   -3.7809380   -0.0062218    5.3323774  
C   -1.5113823   -0.0053090    4.7012123  
H    1.4821238   -0.0045407    4.4159191  
H   -2.7664565   -0.0000232    0.8686553  
H   -1.1823530   -0.0068408    5.7314848  
H    2.1104316   -0.0009391    1.8188057  
