64

C    1.9332187   -2.1183845   -5.2802483  
C    1.0132699   -1.6573352   -4.3672340  
C    0.1425864   -0.7692369   -5.0656547  
C    0.5838244   -0.7278051   -6.4130661  
N    1.6739350   -1.5567573   -6.5085378  
C   -0.0442372    0.0493841   -7.3909740  
C   -1.1378297    0.7981574   -7.0016524  
O   -1.7886904    1.5745666   -7.9163014  
C   -1.5929069    0.7703231   -5.6618958  
O   -2.6929013    1.5705679   -5.4317600  
C   -0.9736297    0.0040464   -4.6965763  
H    0.9751831   -1.9269943   -3.3256835  
H    2.1939841   -1.7372807   -7.3481453  
H   -2.5110529    2.0070699   -7.4425944  
H   -2.9357434    1.4942922   -4.5039593  
H    2.7546828   -2.8023046   -5.1521550  
C    1.4611923   -3.1018575  -10.1825729  
C    0.9744662   -2.4328754   -9.0834685  
C    0.8417488   -1.0622286   -9.4553732  
C    1.2658565   -0.9541152  -10.8045848  
N    1.6371261   -2.2104516  -11.2149439  
C    1.2693237    0.2579768  -11.5014412  
C    0.8364903    1.3813409  -10.8240308  
O    0.8190902    2.5904829  -11.4570282  
C    0.4098389    1.2937529   -9.4775114  
O    0.0086052    2.5002143   -8.9419682  
C    0.4064069    0.0983735   -8.7893376  
H    0.7445211   -2.8778244   -8.1305054  
H    1.9720693   -2.4462284  -12.1315703  
H    1.5914788    0.3470545  -12.5297816  
H    0.4880474    3.2306984  -10.8137556  
H   -0.2636727    2.3530958   -8.0310212  
H    1.6981236   -4.1440876  -10.3113325  
C    1.1188642    0.0008222   -0.8003808  
C    0.0000000    0.0000000    0.0000000  
C   -1.1323862    0.0008899   -0.8673528  
C   -0.6382663    0.0019679   -2.1969280  
N    0.7324016    0.0038481   -2.1202242  
C   -1.4770914    0.0027318   -3.3154808  
C   -2.8395473    0.0020945   -3.0876857  
O   -3.7039201    0.0024425   -4.1440349  
C   -3.3517868    0.0013931   -1.7684331  
O   -4.7300497    0.0012366   -1.7073121  
C   -2.5248543    0.0009123   -0.6644817  
H    1.3576314   -0.0056167   -2.9057046  
H   -4.5940032    0.0021826   -3.7685128  
H   -4.9934602    0.0007259   -0.7819913  
H   -2.9462577    0.0005603    0.3339659  
H    2.1619895    0.0009355   -0.5342068  
C    0.0000000    0.0000000    1.4700000  
C    1.0541688    0.0001722    2.3260392  
C    0.5103138    0.0000454    3.6635956  
C   -0.9576371   -0.0002459    3.5155732  
N   -1.2018458    0.0001392    2.1615969  
C   -1.8348311   -0.0008317    4.5510609  
C   -1.2972847   -0.0009736    5.9014604  
O   -2.0050672   -0.0014265    6.9001319  
C    0.2542623   -0.0004184    6.0817573  
O    0.7184670   -0.0002256    7.2139121  
C    1.0974552   -0.0000873    4.8889129  
H    2.0940752    0.0005483    2.0517982  
H   -2.9081052   -0.0011668    4.4207061  
H    2.1707277    0.0000911    5.0223670  
H   -2.1128194   -0.0014912    1.7406791  
