60

C    3.3041280    0.0001177   -1.5420415  
C    2.5845373   -0.0004780   -0.3695841  
C    1.2040010   -0.0000008   -0.7283584  
C    1.1422390    0.0006037   -2.1454369  
N    2.4348650    0.0026109   -2.6077455  
C   -0.0655165    0.0008799   -2.8497918  
C   -1.2321762    0.0002325   -2.1101403  
O   -2.4392806    0.0001149   -2.7472532  
C   -1.1911194   -0.0000007   -0.6955272  
O   -2.4371520   -0.0002319   -0.1032873  
C    0.0000000    0.0000000    0.0000000  
H    3.0031532   -0.0000662    0.6222595  
H    2.7054644   -0.0071098   -3.5745250  
H   -0.1193533    0.0014845   -3.9297474  
H   -3.1132978   -0.0000646   -2.0551798  
H   -2.3200290   -0.0004070    0.8516399  
C    6.7370857   -0.0008256    1.2348688  
C    5.4910170   -0.0006934    0.6950653  
C    5.6537436    0.0002332   -0.7396312  
C    7.1071786    0.0006036   -0.9932397  
N    7.7077097    0.0003270    0.2446023  
C    7.6723934    0.0010656   -2.2270292  
C    6.7903730    0.0014338   -3.3822673  
O    7.2023965    0.0019211   -4.5348893  
C    5.2477335    0.0013035   -3.1371764  
O    4.4952294    0.0019171   -4.1020585  
C    4.7577228    0.0005127   -1.7610441  
H    4.5636975   -0.0010060    1.2397596  
H    7.0279692   -0.0014514    2.2727885  
H    8.6984744   -0.0010837    0.4040690  
C    9.1253596    0.0012503   -2.4501662  
C   10.1109850    0.0009796   -1.5227392  
C   11.3473986    0.0013597   -2.2894082  
C   10.9100495    0.0017419   -3.7019624  
N    9.6085540    0.0017605   -3.8024596  
C   11.8495826    0.0022319   -4.7893282  
C   13.1661768    0.0027243   -4.4796317  
O   14.1520458    0.0032067   -5.3929244  
C   13.6390169    0.0027280   -3.0637987  
O   14.8522590    0.0030677   -2.8557983  
C   12.6556467    0.0021763   -1.9661162  
H   10.0113100    0.0006624   -0.4507594  
H   11.5019164    0.0022973   -5.8120883  
H   14.9742212    0.0035074   -4.8702580  
H   13.0387224    0.0023127   -0.9544429  
C    0.8681109    0.7263879    2.2709268  
C    0.6127770    0.5096195    3.5869401  
C   -0.4920590   -0.4175482    3.6542670  
C   -0.8620974   -0.7254003    2.2596025  
N    0.0000000    0.0000000    1.4700000  
C   -1.8641242   -1.5660088    1.8976294  
C   -2.6293522   -2.2103885    2.9520183  
O   -3.5512764   -2.9839180    2.7283916  
C   -2.2549728   -1.8987399    4.4361073  
O   -2.8923672   -2.4351063    5.3323774  
C   -1.1543735   -0.9755647    4.7012123  
H    1.1382914    0.9492124    4.4159191  
H   -2.1192137   -1.7782617    0.8686553  
H   -0.9013378   -0.7652422    5.7314848  
H    1.6172880    1.3558399    1.8188057  
