60

C   -0.6780184    0.8969579   -0.7919015  
C   -0.4642145    0.5862356   -2.1148550  
C    0.3856291   -0.5590406   -2.1414702  
C    0.6595937   -0.9054418   -0.7935548  
N    0.0000000    0.0000000    0.0000000  
C    1.4685912   -1.9898271   -0.4408239  
C    2.0106560   -2.7383386   -1.4675051  
O    2.8076637   -3.8082714   -1.1793460  
C    1.7492409   -2.4082838   -2.8186320  
O    2.3617878   -3.2491517   -3.7247614  
C    0.9514582   -1.3384867   -3.1673479  
H   -0.8698808    1.1201033   -2.9571216  
H    1.6813637   -2.2589785    0.5845970  
H    3.0764908   -4.1847529   -2.0274370  
H    2.1341971   -2.9570700   -4.6127333  
H   -1.2593522    1.6882929   -0.3505414  
C    0.7024694    2.4715719   -5.3849795  
C    0.8403284    1.5260225   -4.4200931  
C    0.6693911    0.2431673   -5.0603260  
C    0.4188774    0.5208340   -6.4875380  
N    0.4513817    1.8900271   -6.6184710  
C    0.2065062   -0.4318154   -7.4304390  
C    0.2257408   -1.8234900   -7.0116219  
O    0.0452079   -2.7545390   -7.7854804  
C    0.4889393   -2.1406895   -5.5049977  
O    0.5071476   -3.3086378   -5.1405444  
C    0.7043903   -1.0284282   -4.5828766  
H    1.0389031    1.7066132   -3.3786668  
H    0.0247084   -0.2067836   -8.4721780  
H    0.3158111    2.3897634   -7.4780822  
C    0.7849690    3.9345296   -5.2672992  
C    1.0192517    4.6928422   -4.1654152  
C    0.9981983    6.0722949   -4.5914470  
C    0.7304976    6.0553589   -6.0422537  
N    0.6117829    4.7295410   -6.3901094  
C    0.6332028    7.1638110   -6.8191524  
C    0.8037328    8.4600091   -6.1840724  
O    0.7344052    9.5167714   -6.7978703  
C    1.0882595    8.5016300   -4.6487816  
O    1.2339244    9.5871278   -4.1031300  
C    1.1704712    7.2396045   -3.9177655  
H    1.1877833    4.3275478   -3.1680332  
H    0.4361150    7.1294104   -7.8816408  
H    1.3675788    7.2770972   -2.8550016  
H    0.4257624    4.3916078   -7.3165250  
C    2.5128556    2.1077716    2.9199648  
C    1.9592212    1.6432552    4.0696553  
C    0.8915788    0.7479214    3.6910360  
C    0.8684491    0.7287414    2.2159470  
N    1.8754542    1.5738793    1.8102719  
C    0.0000000    0.0000000    1.4700000  
C   -0.9772830   -0.8200135    2.1664417  
O   -1.8021297   -1.5120829    1.5842315  
C   -0.9711318   -0.8147624    3.7284083  
O   -1.7894187   -1.5009653    4.3257297  
C    0.0140216    0.0115358    4.4216297  
H    2.2638494    1.8988021    5.0689105  
H    0.0117648    0.0094386    5.5031631  
H    3.3327358    2.7953732    2.7900019  
H    2.1123206    1.7707734    0.8551938  
