58

C    5.9779326   -2.0928591   -4.4468277  
C    5.0400352   -1.6304885   -3.5804345  
C    4.1859902   -0.7341816   -4.3234529  
C    4.7069269   -0.7121368   -5.7036447  
N    5.7934745   -1.5560772   -5.7119679  
C    4.1728102    0.0176376   -6.7155010  
C    3.0072073    0.8361659   -6.4258163  
O    2.4535603    1.5290922   -7.2693979  
C    2.4388219    0.8282647   -4.9709350  
O    1.4580061    1.5136693   -4.7150421  
C    3.1006054    0.0006263   -3.9654951  
H    4.9561722   -1.8877887   -2.5395800  
H    4.5702547    0.0195460   -7.7209580  
H    6.7884831   -2.7804147   -4.2674805  
C    7.6129742   -5.2827968   -7.1556849  
C    8.2303586   -4.8141877   -8.2707258  
C    7.9466735   -3.4004560   -8.3463646  
C    7.1074151   -3.0815583   -7.1755780  
N    6.9414399   -4.2655092   -6.4946947  
C    6.6282253   -1.8451256   -6.8869325  
C    6.9611077   -0.7557858   -7.7897404  
O    6.5776385    0.3936732   -7.6165459  
C    7.8484229   -1.0707051   -9.0360559  
O    8.1349634   -0.1616882   -9.8034175  
C    8.3053670   -2.4429283   -9.2411368  
H    8.8173415   -5.3928717   -8.9615157  
H    8.9195012   -2.6526043  -10.1063532  
H    7.5918921   -6.2857579   -6.7613307  
H    6.4153719   -4.3735071   -5.6469709  
C    3.2798083    0.0005857   -1.4499652  
C    2.5571142    0.0005565   -2.5996556  
C    1.1637432    0.0001548   -2.2210361  
C    1.1336964   -0.0000200   -0.7459473  
N    2.4483512   -0.0001428   -0.3402723  
C    0.0000000    0.0000000    0.0000000  
C   -1.2757368   -0.0000186   -0.6964415  
O   -2.3524598   -0.0000639   -0.1142311  
C   -1.2676497   -0.0000872   -2.2584083  
O   -2.3355766   -0.0004101   -2.8557295  
C    0.0181558    0.0001758   -2.9516296  
H    0.0150788    0.0003319   -4.0331631  
H    4.3498547    0.0008612   -1.3200026  
H    2.7563626    0.0012823    0.6148059  
C    0.8400945    0.7047457    2.2710304  
C    0.0000000    0.0000000    1.4700000  
C   -0.8844236   -0.7423113    2.3369512  
C   -0.4878984   -0.4098547    3.7186280  
N    0.5629682    0.4714286    3.6095011  
C   -1.0836927   -0.9095027    4.8308716  
C   -2.1891196   -1.8367527    4.6554461  
O   -2.7906899   -2.3413415    5.5944904  
C   -2.6257283   -2.2031529    3.2011665  
O   -3.5549479   -2.9829990    3.0410059  
C   -1.9068976   -1.5999348    2.0816745  
H   -0.7774656   -0.6525820    5.8354244  
H   -2.2155208   -1.8586617    1.0779135  
H    1.6384792    1.3747609    1.9961646  
H    1.0518368    0.8833920    4.3830260  
