58

C    7.6567933   -0.7229643   -5.2547913  
C    8.9969987   -0.5055262   -5.2293722  
C    9.2935738    0.4204693   -6.2968044  
C    8.0070649    0.7269040   -6.9508548  
N    7.0548980    0.0018849   -6.2721684  
C    7.8623728    1.5661435   -8.0074742  
C    9.0532343    2.2104403   -8.5359328  
O    9.0270966    2.9827893   -9.4851920  
C   10.4262814    1.9002787   -7.8589208  
O   11.4358265    2.4365890   -8.2953253  
C   10.4556631    0.9785116   -6.7260768  
H    9.6978749   -0.9439386   -4.5414913  
H    6.9094520    1.7773699   -8.4724857  
H   11.4102827    0.7692137   -6.2628058  
H    7.0582196   -1.3519156   -4.6160275  
C    3.2973507   -0.0000930   -3.8752373  
C    4.6109361    0.0001676   -4.2009255  
C    4.6367195   -0.0000879   -5.6555160  
C    3.2125798   -0.0006171   -6.0535227  
N    2.4227569   -0.0005418   -5.0142109  
C    2.8079503   -0.0009509   -7.4324215  
C    3.7817678   -0.0003752   -8.3710445  
O    3.5485421   -0.0006033   -9.6945425  
C    5.2278982    0.0005386   -8.0010880  
O    6.0602363    0.0009025   -8.9079694  
C    5.6174391    0.0008216   -6.5797564  
H    5.4578085    0.0005834   -3.5361826  
H    1.7599990   -0.0015423   -7.6945434  
H    4.4333819   -0.0000291  -10.1022329  
C    3.3321175    0.0004715   -1.3379331  
C    2.6974186    0.0000117   -2.5332308  
C    1.2800441   -0.0002117   -2.2052838  
C    1.2395036    0.0000644   -0.7271292  
N    2.4394065    0.0005460   -0.2131033  
C    0.0000000    0.0000000    0.0000000  
C   -1.1468701    0.0000635   -0.7169542  
O   -2.3742199    0.0000073   -0.1695491  
C   -1.1388766    0.0001607   -2.2096354  
O   -2.2206227    0.0000905   -2.7970412  
C    0.1454526    0.0001817   -2.9324239  
H   -2.9844344    0.0001026   -0.9290168  
H    0.1083579    0.0003683   -4.0135594  
H    4.3940038    0.0007619   -1.1498630  
C    2.5128556    2.1077716    2.9199648  
C    1.9592212    1.6432552    4.0696553  
C    0.8915788    0.7479214    3.6910360  
C    0.8684491    0.7287414    2.2159470  
N    1.8754542    1.5738793    1.8102719  
C    0.0000000    0.0000000    1.4700000  
C   -0.9772830   -0.8200135    2.1664417  
O   -1.8021297   -1.5120829    1.5842315  
C   -0.9711318   -0.8147624    3.7284083  
O   -1.7894187   -1.5009653    4.3257297  
C    0.0140216    0.0115358    4.4216297  
H    2.2638494    1.8988021    5.0689105  
H    0.0117648    0.0094386    5.5031631  
H    3.3327358    2.7953732    2.7900019  
H    2.1123206    1.7707734    0.8551938  
