62

C   -3.3003336   -0.0116859   -1.4738995  
C   -2.5232652   -0.0088807   -2.6090753  
C   -1.1623132   -0.0037977   -2.1820103  
C   -1.1711820   -0.0040180   -0.7636147  
N   -2.4852208   -0.0069105   -0.3662363  
C    0.0000000    0.0000000    0.0000000  
C    1.2020317    0.0040121   -0.6806479  
O    2.3759123    0.0076835    0.0157751  
C    1.2314569    0.0046749   -2.0955507  
O    2.5054224    0.0092746   -2.6250177  
C    0.0764494    0.0009858   -2.8495196  
H   -2.8919801   -0.0092157   -3.6205311  
H   -2.8035809   -0.0182971    0.5858655  
H    3.0835471    0.0103907   -0.6418812  
H    2.4359883    0.0093889   -3.5845917  
H    0.1304050    0.0017832   -3.9319086  
C   -6.6263522   -0.0256428   -4.4617188  
C   -5.3880822   -0.0214541   -3.8624378  
C   -5.6076268   -0.0204797   -2.4530411  
C   -7.0115092   -0.0245167   -2.2504960  
N   -7.6002195   -0.0256321   -3.4906722  
C   -7.5921172   -0.0251055   -0.9786146  
C   -6.7399904   -0.0218614    0.1086050  
O   -7.2537533   -0.0226210    1.3731449  
C   -5.3365001   -0.0174359   -0.0730905  
O   -4.6231504   -0.0141690    1.1077841  
C   -4.7630214   -0.0165792   -1.3275413  
H   -4.4428513   -0.0182533   -4.3777255  
H   -8.5890976   -0.0389025   -3.6636619  
H   -8.6613421   -0.0280300   -0.8175220  
H   -6.4980170   -0.0196709    1.9749078  
H   -3.6846338   -0.0113089    0.8961664  
C   -4.1682421   -0.0238847   -8.1005411  
C   -5.1522166   -0.0267518   -9.0364155  
C   -6.4091196   -0.0288915   -8.3257638  
C   -6.0743476   -0.0269935   -6.8888523  
N   -4.7002493   -0.0243789   -6.8200305  
C   -6.9889867   -0.0277576   -5.8862858  
C   -8.3970989   -0.0308681   -6.2464883  
O   -9.2969175   -0.0318398   -5.4166530  
C   -8.7745829   -0.0331706   -7.7621751  
O   -9.9568555   -0.0361021   -8.0775857  
C   -7.6995296   -0.0317981   -8.7511697  
H   -5.0133917   -0.0274869  -10.1028781  
H   -7.9693155   -0.0332032   -9.7985176  
H   -3.0992081   -0.0216693   -8.2385674  
H   -4.1661523   -0.0210752   -5.9704561  
C    0.8400945    0.7047457    2.2710304  
C    0.0000000    0.0000000    1.4700000  
C   -0.8844236   -0.7423113    2.3369512  
C   -0.4878984   -0.4098547    3.7186280  
N    0.5629682    0.4714286    3.6095011  
C   -1.0836927   -0.9095027    4.8308716  
C   -2.1891196   -1.8367527    4.6554461  
O   -2.7906899   -2.3413415    5.5944904  
C   -2.6257283   -2.2031529    3.2011665  
O   -3.5549479   -2.9829990    3.0410059  
C   -1.9068976   -1.5999348    2.0816745  
H   -0.7774656   -0.6525820    5.8354244  
H   -2.2155208   -1.8586617    1.0779135  
H    1.6384792    1.3747609    1.9961646  
H    1.0518368    0.8833920    4.3830260  
