60

C    0.0000000    0.0000000    0.0000000  
C    1.0521661   -0.0011860   -0.8862347  
C    0.4917205   -0.0011938   -2.1979135  
C   -0.9187440    0.0003111   -2.0478681  
N   -1.1833179   -0.0009458   -0.7007911  
C   -1.7951715    0.0010280   -3.1372085  
C   -1.2375854    0.0005176   -4.4010421  
O   -2.0474238    0.0015283   -5.4997576  
C    0.1673561   -0.0013560   -4.5711966  
O    0.5673502   -0.0020663   -5.8915552  
C    1.0325752   -0.0023370   -3.4969896  
H    2.0953050   -0.0030567   -0.6200569  
H   -2.0989777    0.0102290   -0.2891820  
H   -2.8710941    0.0020307   -3.0295506  
H   -1.4634910    0.0006436   -6.2693588  
H    1.5290685   -0.0033095   -5.9180051  
C    4.5245128   -2.0170115   -1.5964893  
C    3.2545814   -1.6337686   -1.8647765  
C    3.3688939   -0.7174280   -2.9889440  
C    4.8179331   -0.6614834   -3.2783222  
N    5.5004024   -1.4213079   -2.4653693  
C    5.3513364    0.1487417   -4.3385592  
C    4.4768626    0.8699809   -5.0764243  
O    4.8351410    1.6687359   -6.0960651  
C    3.0086996    0.8343380   -4.8092402  
O    2.2713422    1.5165337   -5.5206709  
C    2.4861685   -0.0045284   -3.7159932  
H    2.3517431   -1.9356885   -1.3619807  
H    3.9977693    2.0447297   -6.4225472  
H    4.8658388   -2.6947758   -0.8302611  
C    8.3909761   -3.0201836   -4.2956934  
C    9.4862625   -2.2853398   -4.6188449  
C    9.0432923   -0.9215266   -4.7880384  
C    7.5897359   -0.9220599   -4.5351268  
N    7.2566267   -2.2244719   -4.2424652  
C    6.7983396    0.1787184   -4.5958187  
C    7.4196039    1.4487249   -4.9329379  
O    6.7922426    2.4967472   -5.0127366  
C    8.9575314    1.4726039   -5.2049945  
O    9.4916455    2.5359724   -5.4900040  
C    9.7047387    0.2210670   -5.1091393  
H   10.4899294   -2.6563636   -4.7265924  
H   10.7692240    0.2461782   -5.2987825  
H    8.3170080   -4.0761167   -4.0921631  
H    6.3322498   -2.5468986   -4.0219758  
C    1.1319247   -0.0015655    2.2709268  
C    0.7969915   -0.0034943    3.5869401  
C   -0.6453339   -0.0035710    3.6542670  
C   -1.1266833   -0.0015433    2.2596025  
N    0.0000000    0.0000000    1.4700000  
C   -2.4346130   -0.0013964    1.8976294  
C   -3.4350110   -0.0031408    2.9520183  
O   -4.6384611   -0.0030974    2.7283916  
C   -2.9478959   -0.0050506    4.4361073  
O   -3.7809380   -0.0062218    5.3323774  
C   -1.5113823   -0.0053090    4.7012123  
H    1.4821238   -0.0045407    4.4159191  
H   -2.7664565   -0.0000232    0.8686553  
H   -1.1823530   -0.0068408    5.7314848  
H    2.1104316   -0.0009391    1.8188057  
