58

C    3.9761453   -3.7013343   -4.9737274  
C    2.9316273   -3.0707055   -4.3776028  
C    2.9205443   -3.4888859   -2.9956337  
C    4.0523585   -4.4215010   -2.8343370  
N    4.6513149   -4.5075993   -4.0699461  
C    4.3815049   -5.0371449   -1.6705723  
C    3.5665185   -4.7630946   -0.4987237  
O    3.7816485   -5.2683719    0.5952218  
C    2.3627321   -3.7788038   -0.6466209  
O    1.6692624   -3.5406117    0.3329834  
C    2.1075308   -3.1765369   -1.9527599  
H    5.2159306   -5.7177663   -1.5736279  
H    1.2722423   -2.4959587   -2.0467237  
H    4.3093467   -3.6450742   -5.9973003  
H    5.4562748   -5.0680718   -4.2819774  
C    1.9957411   -2.1407949   -5.0258948  
C    1.9855627   -1.7332335   -6.3163870  
C    0.8551746   -0.8225476   -6.4132070  
C    0.2799735   -0.7963194   -5.0512088  
N    0.9444052   -1.5670713   -4.2336140  
C   -0.8712826    0.0001710   -4.7267111  
C   -1.4226087    0.7372646   -5.7177042  
O   -2.4987601    1.5259556   -5.5567519  
C   -0.8649837    0.7322389   -7.1023303  
O   -1.4179258    1.4273754   -7.9545395  
C    0.3165522   -0.0930917   -7.4101078  
H    2.6616908   -2.0156327   -7.1051695  
H   -2.6523130    1.9181970   -6.4352286  
H    0.6899760   -0.0690838   -8.4250993  
C    1.0965514    0.0001359   -0.8010305  
C    0.0000000    0.0000000    0.0000000  
C   -1.1546563    0.0001470   -0.8669513  
C   -0.6372014    0.0003519   -2.2486282  
N    0.7342871    0.0007337   -2.1395014  
C   -1.4147739    0.0001352   -3.3608717  
C   -2.8576049   -0.0001048   -3.1854462  
O   -3.6427779   -0.0002494   -4.1244907  
C   -3.4275840   -0.0000725   -1.7311666  
O   -4.6406831    0.0000333   -1.5710060  
C   -2.4891867   -0.0001091   -0.6116744  
H   -2.8919122   -0.0002918    0.3920866  
H    2.1388272    0.0000663   -0.5261648  
H    1.3735872   -0.0006099   -2.9130262  
C    2.3971438    2.0127888    3.1728260  
C    1.9431056    1.6308205    1.9564670  
C    0.8496017    0.7127664    2.2356185  
C    0.7794028    0.6545384    3.7115134  
N    1.6840587    1.4146091    4.2663826  
C   -0.1885723   -0.1578550    4.3957118  
C   -1.0476298   -0.8789867    3.6398520  
O   -2.0015663   -1.6796266    4.1448486  
C   -1.0022026   -0.8410666    2.1483229  
O   -1.8147390   -1.5232959    1.5241687  
C    0.0000000    0.0000000    1.4700000  
H    2.3054237    1.9346118    0.9892483  
H   -0.2170646   -0.1815267    5.4753125  
H   -2.4487139   -2.0549881    3.3649027  
H    3.2048689    2.6911772    3.3971983  
