58

C   -7.1739069    3.3639886    0.5020994  
C   -6.8358060    2.1213110    0.0713837  
C   -7.9651717    1.2618449    0.3372523  
C   -8.9963504    2.1117686    0.9626248  
N   -8.4542518    3.3742526    1.0344081  
C  -10.2159361    1.6718019    1.3635545  
C  -10.5341121    0.2674043    1.1661572  
O  -11.6057273   -0.2252119    1.4936803  
C   -9.4569162   -0.6510838    0.5059801  
O   -9.7133164   -1.8352603    0.3349653  
C   -8.1786926   -0.0615547    0.1155316  
H  -10.9580377    2.3119038    1.8201342  
H   -7.4383140   -0.7042364   -0.3411128  
H   -6.5953752    4.2731033    0.4756284  
H   -8.9181054    4.1795307    1.4131083  
C   -4.3137496    2.1424315   -0.2077329  
C   -5.5591243    1.7353215   -0.5466749  
C   -5.3648109    0.8246407   -1.6644417  
C   -3.9011714    0.7979211   -1.8733216  
N   -3.2797688    1.5684041   -1.0223196  
C   -3.2941076    0.0012878   -2.9038237  
C   -4.1120063   -0.7354730   -3.6896733  
O   -3.6822295   -1.5242473   -4.6892567  
C   -5.5930505   -0.7299484   -3.5035597  
O   -6.2763268   -1.4248007   -4.2555798  
C   -6.1916584    0.0955202   -2.4395134  
H   -4.4926444   -1.9161852   -5.0617692  
H   -7.2683270    0.0718767   -2.3372576  
H   -4.0287171    2.8244781    0.5774694  
C    0.0000000    0.0000000    0.0000000  
C    1.0541688   -0.0001723   -0.8560392  
C    0.5103136   -0.0000455   -2.1935956  
C   -0.9576373    0.0002461   -2.0455730  
N   -1.2018460   -0.0001389   -0.6915968  
C   -1.8348314    0.0008319   -3.0810607  
C   -1.2972851    0.0009739   -4.4314603  
O   -2.0050676    0.0014268   -5.4301316  
C    0.2542619    0.0004184   -4.6117572  
O    0.7184666    0.0002257   -5.7439122  
C    1.0974551    0.0000873   -3.4189129  
H    2.0940752   -0.0005484   -0.5817983  
H    2.1707276   -0.0000912   -3.5523673  
H   -2.1128194    0.0014915   -0.2706789  
C    0.0000000    0.0000000    1.4700000  
C    1.0662921    0.0000102    2.3034270  
C    0.4961870   -0.0000064    3.6418889  
C   -0.9663858    0.0000850    3.4240247  
N   -1.2632773    0.0000084    2.1528658  
C   -1.8985362    0.0000517    4.5177257  
C   -1.3925775   -0.0004564    5.7720543  
O   -2.1456383   -0.0005410    6.8851312  
C    0.0786232   -0.0009323    6.0245000  
O    0.4683759   -0.0012588    7.1921102  
C    1.0143166   -0.0008442    4.8859032  
H    2.1107198   -0.0000632    2.0421868  
H   -2.9622183    0.0003270    4.3293377  
H   -1.5042274   -0.0009692    7.6184419  
H    2.0724152   -0.0013148    5.1109744  
