58

C    3.4166198   -0.7237139   -3.0386504  
C    4.6505742   -0.5066207   -3.5623899  
C    4.4859769    0.4195039   -4.6578516  
C    3.0446499    0.7263903   -4.7298857  
N    2.4521480    0.0014830   -3.7217483  
C    2.4815918    1.5658684   -5.6353935  
C    3.3532913    2.2099643   -6.6038029  
O    2.9422598    2.9825017   -7.4596885  
C    4.8829911    1.8993248   -6.5461255  
O    5.6266962    2.4354621   -7.3565073  
C    5.3718613    0.9773332   -5.5239760  
H    5.5710251   -0.9453430   -3.2204743  
H    1.4219288    1.7774263   -5.6709974  
H    6.4323652    0.7677044   -5.4906539  
H    3.1306602   -1.3526353   -2.2112606  
C    0.0000000    0.0000000    0.0000000  
C    1.0662921   -0.0000106   -0.8334269  
C    0.4961870    0.0000059   -2.1718889  
C   -0.9663856   -0.0000854   -1.9540246  
N   -1.2632773   -0.0000087   -0.6828657  
C   -1.8985362   -0.0000522   -3.0477258  
C   -1.3925773    0.0004558   -4.3020541  
O   -2.1456384    0.0005402   -5.4151311  
C    0.0786236    0.0009315   -4.5544999  
O    0.4683762    0.0012578   -5.7221098  
C    1.0143167    0.0008435   -3.4159031  
H    2.1107198    0.0000631   -0.5721865  
H   -1.5042271    0.0009682   -6.1484419  
C   -4.3991017    2.0926371   -0.0704359  
C   -3.3610088    1.6305293   -0.8140048  
C   -3.9159991    0.7341912   -1.8006145  
C   -5.3729681    0.7118417   -1.5692441  
N   -5.6007879    1.5556535   -0.5067143  
C   -6.2559170   -0.0180492   -2.2968191  
C   -5.7365716   -0.8363900   -3.3799319  
O   -6.4507765   -1.5294007   -4.0926368  
C   -4.1968644   -0.8281655   -3.6426853  
O   -3.7479704   -1.5134105   -4.5516375  
C   -3.3460094   -0.0004268   -2.7913647  
H   -2.3247239    1.8880232   -0.6858471  
H   -7.3209342   -0.0201816   -2.1106899  
H   -4.3873330    2.7801298    0.7596877  
H   -6.5015168    1.7527687   -0.1106332  
C    1.0965515   -0.0001358    2.2710304  
C    0.0000000    0.0000000    1.4700000  
C   -1.1546562   -0.0001469    2.3369512  
C   -0.6372014   -0.0003519    3.7186280  
N    0.7342871   -0.0007337    3.6095011  
C   -1.4147739   -0.0001353    4.8308716  
C   -2.8576048    0.0001048    4.6554461  
O   -3.6427778    0.0002493    5.5944904  
C   -3.4275839    0.0000726    3.2011665  
O   -4.6406829   -0.0000333    3.0410059  
C   -2.4891866    0.0001091    2.0816745  
H   -1.0150448   -0.0001615    5.8354244  
H   -2.8919121    0.0002919    1.0779135  
H    2.1388271   -0.0000662    1.9961646  
H    1.3735872    0.0006099    4.3830260  
