58

C    1.9416131   -1.9941028   -8.4391276  
C    2.9204182   -2.8265787   -8.8784435  
C    2.8623888   -2.8201857  -10.3211584  
C    1.7616683   -1.9091914  -10.6889818  
N    1.2443510   -1.4418320   -9.5028758  
C    1.3865072   -1.6317876  -11.9633474  
C    2.1153324   -2.2734462  -13.0448400  
O    1.8535993   -2.0884354  -14.2261803  
C    3.2845666   -3.2421791  -12.6784359  
O    3.9052094   -3.7884471  -13.5804635  
C    3.5957259   -3.4616857  -11.2681700  
H    3.6048399   -3.3819078   -8.2621723  
H    0.5762484   -0.9603689  -12.2115162  
H    4.4068626   -4.1337203  -11.0229139  
H    0.4795445   -0.7971256   -9.4224256  
C    2.1650267   -2.1089225   -5.9297635  
C    1.5723604   -1.6445161   -7.0598730  
C    0.5184569   -0.7489599   -6.6450207  
C    0.5459256   -0.7295296   -5.1700098  
N    1.5661287   -1.5747495   -4.7989582  
C   -0.2963293   -0.0005341   -4.3948471  
C   -1.2968020    0.8195083   -5.0575088  
O   -2.1011000    1.5117977   -4.4474755  
C   -1.3442163    0.8139948   -6.6187671  
O   -2.1824062    1.5002192   -7.1877960  
C   -0.3835314   -0.0125660   -7.3452196  
H   -0.4228732   -0.0106496   -8.4260400  
H    2.9887824   -2.7966239   -5.8278731  
H    1.8355780   -1.7715190   -3.8525301  
C    3.1301146   -0.0010313   -1.7028256  
C    2.5367765   -0.0002766   -0.4864669  
C    1.1089901    0.0001027   -0.7656184  
C    1.0177865   -0.0004150   -2.2415133  
N    2.1993571   -0.0011612   -2.7963824  
C   -0.2459219   -0.0002879   -2.9257116  
C   -1.3675326   -0.0000606   -2.1698520  
O   -2.6129318    0.0000865   -2.6748483  
C   -1.3083588    0.0000910   -0.6783229  
O   -2.3693264    0.0004206   -0.0541685  
C    0.0000000    0.0000000    0.0000000  
H    3.0096016   -0.0001007    0.4807518  
H   -3.1967444    0.0002093   -1.8949026  
H    4.1849275   -0.0015114   -1.9271979  
C    2.5128556    2.1077716    2.9199648  
C    1.9592212    1.6432552    4.0696553  
C    0.8915788    0.7479214    3.6910360  
C    0.8684491    0.7287414    2.2159470  
N    1.8754542    1.5738793    1.8102719  
C    0.0000000    0.0000000    1.4700000  
C   -0.9772830   -0.8200135    2.1664417  
O   -1.8021297   -1.5120829    1.5842315  
C   -0.9711318   -0.8147624    3.7284083  
O   -1.7894187   -1.5009653    4.3257297  
C    0.0140216    0.0115358    4.4216297  
H    2.2638494    1.8988021    5.0689105  
H    0.0117648    0.0094386    5.5031631  
H    3.3327358    2.7953732    2.7900019  
H    2.1123206    1.7707734    0.8551938  
