64

C    3.3003547    0.0005275   -1.4738980  
C    2.5232816    0.0003495   -2.6090742  
C    1.1623206   -0.0001320   -2.1820096  
C    1.1711889    0.0000583   -0.7636136  
N    2.4852300   -0.0014920   -0.3662353  
C    0.0000000    0.0000000    0.0000000  
C   -1.2020382    0.0000519   -0.6806479  
O   -2.3759247    0.0003494    0.0157745  
C   -1.2314650   -0.0005113   -2.0955508  
O   -2.5054383   -0.0008037   -2.6250181  
C   -0.0764510   -0.0007273   -2.8495192  
H    2.8919962   -0.0005621   -3.6205295  
H    2.8036265    0.0088181    0.5858667  
H   -3.0835641    0.0000347   -0.6418820  
H   -2.4360047   -0.0011529   -3.5845921  
C    5.6708527    0.0001559   -2.3611556  
C    4.7630506    0.0004754   -1.3275394  
C    5.5133495   -0.0009826   -0.1144235  
C    6.8855148   -0.0018732   -0.4737112  
N    6.9456606   -0.0031000   -1.8452062  
C    7.9149931   -0.0030748    0.4723126  
C    7.5526788   -0.0030760    1.8053193  
O    8.5177183   -0.0038718    2.7705708  
C    6.1889808   -0.0025710    2.1836640  
O    5.9909385   -0.0030667    3.5489927  
C    5.1728468   -0.0016587    1.2509268  
H    7.7894877    0.0066338   -2.3891194  
H    8.9627174   -0.0039020    0.2049649  
H    8.0554429   -0.0040212    3.6188428  
H    5.0439893   -0.0026485    3.7189663  
H    4.1374041   -0.0014714    1.5708277  
H    5.5098591    0.0005473   -3.4255990  
C    2.2675107   -2.0960614   -5.9498174  
C    1.7744254   -1.6329638   -4.7723274  
C    0.6888627   -0.7368509   -5.0938394  
C    0.5891940   -0.7157122   -6.5657122  
N    1.5740363   -1.5599388   -7.0242501  
C   -0.3170773    0.0136354   -7.2645893  
C   -1.2569144    0.8326276   -6.5172655  
O   -2.1110276    1.5252262   -7.0549445  
C   -1.1693688    0.8256867   -4.9577486  
O   -1.9551691    1.5114887   -4.3178628  
C   -0.1496409   -0.0015614   -4.3176961  
H    2.1306445   -1.8896608   -3.7905799  
H   -0.3733609    0.0148791   -8.3442837  
H    3.0792932   -2.7837270   -6.1230660  
H    1.7590703   -1.7578581   -7.9904993  
C    2.5311839    2.1237619    3.0120429  
C    1.9795631    1.6616747    1.8395852  
C    0.9223175    0.7739173    2.1983588  
C    0.8753926    0.7337535    3.6154372  
N    1.8668922    1.5631002    4.0777464  
C   -0.0496243   -0.0427881    4.3197917  
C   -0.9437528   -0.7922060    3.5801400  
O   -1.8685244   -1.5680278    4.2172520  
C   -0.9124520   -0.7656372    2.1655264  
O   -1.8671164   -1.5663939    1.5732860  
C    0.0000000    0.0000000    1.4700000  
H    2.3005065    1.9304404    0.8477417  
H    2.0679347    1.7444845    5.0445261  
H   -0.0904770   -0.0778569    5.3997470  
H   -2.3849669   -2.0011402    3.5251786  
H   -1.7775064   -1.4909735    0.6183591  
H    3.3468514    2.8078103    3.1724291  
