60

C    3.3041276    0.0001178   -1.5420426  
C    2.5845372   -0.0004779   -0.3695848  
C    1.2040005   -0.0000007   -0.7283587  
C    1.1422376    0.0006039   -2.1454367  
N    2.4348645    0.0026112   -2.6077457  
C   -0.0655179    0.0008798   -2.8497914  
C   -1.2321765    0.0002325   -2.1101396  
O   -2.4392815    0.0001147   -2.7472519  
C   -1.1911207   -0.0000007   -0.6955262  
O   -2.4371524   -0.0002320   -0.1032863  
C    0.0000000    0.0000000    0.0000000  
H    3.0031537   -0.0000660    0.6222592  
H    2.7054634   -0.0071097   -3.5745254  
H   -3.1132984   -0.0000649   -2.0551788  
H   -2.3200280   -0.0004071    0.8516414  
H    4.3686622    0.0004072   -1.7024282  
C   -0.1387078    0.0017019   -4.3179679  
C    0.8715321    0.0021967   -5.2254318  
C    0.2617559    0.0029743   -6.5342510  
C   -1.1970046    0.0029205   -6.3133239  
N   -1.3734971    0.0017347   -4.9488687  
C   -2.1246666    0.0039286   -7.3038523  
C   -1.6550222    0.0049216   -8.6793404  
O   -2.4116496    0.0058065   -9.6415329  
C   -0.1143761    0.0047445   -8.9366639  
O    0.2928838    0.0052678  -10.0905268  
C    0.7871616    0.0038971   -7.7872811  
H    1.9238031    0.0018530   -5.0033065  
H   -3.1901194    0.0039990   -7.1202218  
H   -2.2623841    0.0029669   -4.4831159  
C    2.2350874    0.0040167   -8.0410746  
C    3.2400931    0.0033004   -7.1346846  
C    4.4600280    0.0038397   -7.9273122  
C    3.9929243    0.0047921   -9.3303077  
N    2.6895955    0.0049808   -9.4032776  
C    4.9092666    0.0055910  -10.4372865  
C    6.2321127    0.0058339  -10.1554837  
O    7.1984605    0.0065557  -11.0894067  
C    6.7347689    0.0052625   -8.7499596  
O    7.9521359    0.0054012   -8.5676461  
C    5.7748164    0.0044026   -7.6317403  
H    3.1630951    0.0025945   -6.0608379  
H    4.5400642    0.0060724  -11.4524713  
H    8.0314981    0.0065780  -10.5842326  
H    6.1791868    0.0041236   -6.6283891  
C    2.4951002    2.0940188    2.9809380  
C    1.9440701    1.6314916    1.8291961  
C    0.8759964    0.7350050    2.2038498  
C    0.8497377    0.7130254    3.6788474  
N    1.8560616    1.5571714    4.0882609  
C   -0.0205033   -0.0168748    4.4215661  
C   -0.9962600   -0.8356168    3.7214979  
O   -1.8224391   -1.5286685    4.3006425  
C   -0.9864710   -0.8277881    2.1595606  
O   -1.8030528   -1.5133726    1.5592035  
C    0.0000000    0.0000000    1.4700000  
H    2.2509283    1.8888011    0.8310761  
H   -0.0229599   -0.0187323    5.5027230  
H    3.3143982    2.7817323    3.1139444  
H    2.0889452    1.7545833    5.0442112  
