58

C    4.3580266    0.1994876   -6.7822219  
C    5.5305537   -0.4590682   -6.9707969  
C    6.0222735   -0.0785204   -8.2739590  
C    5.0330261    0.8624911   -8.8331347  
N    4.0488859    0.9882488   -7.8799596  
C    5.1348396    1.4508718  -10.0518006  
C    6.2961324    1.1361723  -10.8672151  
O    6.4788412    1.6146429  -11.9789628  
C    7.3562887    0.1419295  -10.2950656  
O    8.3380246   -0.1308533  -10.9725935  
C    7.1368102   -0.4279920   -8.9680877  
H    5.9975976   -1.1345027   -6.2763394  
H    4.3979840    2.1384672  -10.4431654  
H    7.8756520   -1.1153952   -8.5790983  
H    3.2328847    1.5657874   -7.9673618  
C    4.6658420   -2.0084114   -3.0381699  
C    3.5410042   -1.6272097   -2.3893218  
C    2.8760349   -0.7078755   -3.2998933  
C    3.7621631   -0.6481448   -4.4821757  
N    4.8129012   -1.4085088   -4.3345751  
C    3.4519829    0.1658077   -5.6251350  
C    2.3083466    0.8869948   -5.5888134  
O    1.8948240    1.6890063   -6.5847136  
C    1.3931660    0.8475795   -4.4102332  
O    0.3692891    1.5299498   -4.4458469  
C    1.7334695    0.0049281   -3.2500363  
H    3.2040802   -1.9322773   -1.4133650  
H    1.0533181    2.0640200   -6.2678775  
H    5.4313251   -2.6873256   -2.6974589  
C    1.1319246    0.0015678   -0.8009268  
C    0.7969914    0.0034958   -2.1169401  
C   -0.6453340    0.0035696   -2.1842669  
C   -1.1266832    0.0015410   -0.7896025  
N    0.0000000    0.0000000    0.0000000  
C   -2.4346129    0.0013913   -0.4276292  
C   -3.4350111    0.0031335   -1.4820181  
O   -4.6384614    0.0030875   -1.2583914  
C   -2.9478961    0.0050442   -2.9661074  
O   -3.7809382    0.0062135   -3.8623773  
C   -1.5113825    0.0053055   -3.2312122  
H   -2.7664565    0.0000174    0.6013448  
H   -1.1823533    0.0068381   -4.2614848  
H    2.1104316    0.0009435   -0.3488059  
C    2.4951002    2.0940188    2.9809380  
C    1.9440701    1.6314916    1.8291961  
C    0.8759964    0.7350050    2.2038498  
C    0.8497377    0.7130254    3.6788474  
N    1.8560616    1.5571714    4.0882609  
C   -0.0205033   -0.0168748    4.4215661  
C   -0.9962600   -0.8356168    3.7214979  
O   -1.8224391   -1.5286685    4.3006425  
C   -0.9864710   -0.8277881    2.1595606  
O   -1.8030528   -1.5133726    1.5592035  
C    0.0000000    0.0000000    1.4700000  
H    2.2509283    1.8888011    0.8310761  
H   -0.0229599   -0.0187323    5.5027230  
H    3.3143982    2.7817323    3.1139444  
H    2.0889452    1.7545833    5.0442112  
