58

C    0.0139748    0.0003878   -4.4216235  
C    1.0657035    0.0015281   -5.2806580  
C    0.5180458    0.0012343   -6.6166623  
C   -0.9494775   -0.0001516   -6.4644643  
N   -1.1898324   -0.0010074   -5.1097989  
C   -1.8296139   -0.0004060   -7.4974523  
C   -1.2959114    0.0005369   -8.8493757  
O   -2.0065327    0.0003354   -9.8460292  
C    0.2551158    0.0017579   -9.0340856  
O    0.7160978    0.0022519  -10.1675554  
C    1.1016984    0.0022060   -7.8436445  
H    2.1063855    0.0022855   -5.0093766  
H   -2.9025123   -0.0013004   -7.3640453  
H    2.1745864    0.0032574   -7.9801510  
H   -2.0996060   -0.0004653   -4.6862914  
C    3.2798089    0.0005856   -1.4499642  
C    2.5571149    0.0005566   -2.5996548  
C    1.1637440    0.0001548   -2.2210358  
C    1.1336966   -0.0000200   -0.7459468  
N    2.4483517   -0.0001428   -0.3402714  
C    0.0000000    0.0000000    0.0000000  
C   -1.2757362   -0.0000187   -0.6964415  
O   -2.3524596   -0.0000640   -0.1142317  
C   -1.2676489   -0.0000874   -2.2584083  
O   -2.3355758   -0.0004101   -2.8557300  
C    0.0181567    0.0001759   -2.9516296  
H    2.9547363    0.0006074   -3.5989101  
H    2.7563627    0.0012824    0.6148067  
C    6.4690093    0.0019757   -4.4192228  
C    7.5790615    0.0025233   -3.6450379  
C    7.0826150    0.0021763   -2.2775435  
C    5.6103558    0.0015083   -2.4155191  
N    5.2447515    0.0013072   -3.6686446  
C    4.7390854    0.0009614   -1.2727274  
C    5.3125322    0.0006875   -0.0477812  
O    4.6211397    0.0001824    1.1046149  
C    6.7952872    0.0009746    0.1242552  
O    7.2479829    0.0008236    1.2689331  
C    7.6676537    0.0015793   -1.0635585  
H    8.6077305    0.0030020   -3.9627096  
H    5.3014939    0.0000718    1.8019460  
H    8.7364300    0.0016563   -0.8963826  
H    6.4103419    0.0020017   -5.4960386  
C    0.8681109    0.7263879    2.2709268  
C    0.6127770    0.5096195    3.5869401  
C   -0.4920590   -0.4175482    3.6542670  
C   -0.8620974   -0.7254003    2.2596025  
N    0.0000000    0.0000000    1.4700000  
C   -1.8641242   -1.5660088    1.8976294  
C   -2.6293522   -2.2103885    2.9520183  
O   -3.5512764   -2.9839180    2.7283916  
C   -2.2549728   -1.8987399    4.4361073  
O   -2.8923672   -2.4351063    5.3323774  
C   -1.1543735   -0.9755647    4.7012123  
H    1.1382914    0.9492124    4.4159191  
H   -2.1192137   -1.7782617    0.8686553  
H   -0.9013378   -0.7652422    5.7314848  
H    1.6172880    1.3558399    1.8188057  
