64

C    3.3041272    0.0001177   -1.5420434  
C    2.5845370   -0.0004780   -0.3695851  
C    1.2040004   -0.0000009   -0.7283586  
C    1.1422373    0.0006035   -2.1454377  
N    2.4348637    0.0026107   -2.6077466  
C   -0.0655184    0.0008795   -2.8497920  
C   -1.2321773    0.0002321   -2.1101396  
O   -2.4392818    0.0001142   -2.7472517  
C   -1.1911213   -0.0000008   -0.6955263  
O   -2.4371528   -0.0002322   -0.1032857  
C    0.0000000    0.0000000    0.0000000  
H    3.0031534   -0.0000660    0.6222583  
H   -0.1193551    0.0014839   -3.9297468  
H   -3.1132995   -0.0000650   -2.0551788  
H   -2.3200282   -0.0004072    0.8516412  
H    4.3686622    0.0004073   -1.7024294  
C    5.6928652   -2.1325520   -4.8023231  
C    4.8437654   -1.6629839   -3.8271294  
C    3.9187210   -0.7861193   -4.4674434  
C    4.2553071   -0.7600055   -5.8451058  
N    5.3381028   -1.5868707   -6.0138198  
C    3.5511949    0.0032252   -6.7813181  
C    2.4877422    0.7535302   -6.3184054  
O    1.7657453    1.5166936   -7.1897919  
C    2.1367186    0.7408777   -4.9474784  
O    1.0544921    1.5406693   -4.6434021  
C    2.8310660   -0.0116222   -4.0232754  
H    4.8866013   -1.9198940   -2.7825456  
H    5.7930173   -1.7762038   -6.8885700  
H    1.0801159    1.9528830   -6.6673787  
H    0.8837164    1.4751238   -3.6988685  
H    6.5243667   -2.8124293   -4.7293100  
C    4.8504480   -3.1777853   -9.6418724  
C    4.4467729   -2.4967305   -8.5168489  
C    4.2807191   -1.1311562   -8.8939877  
C    4.5998322   -1.0384383  -10.2729349  
N    4.9433874   -2.2986538  -10.6953623  
C    4.5452815    0.1649863  -10.9825698  
C    4.1613056    1.2953501  -10.2875760  
O    4.0908506    2.4965509  -10.9319096  
C    3.8393711    1.2231153   -8.9113646  
O    3.4757184    2.4349145   -8.3612330  
C    3.8932280    0.0362953   -8.2105903  
H    4.2921919   -2.9305747   -7.5437731  
H    5.2080449   -2.5447299  -11.6320502  
H    4.7873899    0.2423262  -12.0335721  
H    3.8075994    3.1436784  -10.2729255  
H    3.2745720    2.2982371   -7.4303935  
H    5.0808086   -4.2208321   -9.7758368  
C    0.0000000    0.0000000    1.4700000  
C    1.0541688    0.0001722    2.3260392  
C    0.5103138    0.0000454    3.6635956  
C   -0.9576371   -0.0002459    3.5155732  
N   -1.2018458    0.0001392    2.1615969  
C   -1.8348311   -0.0008317    4.5510609  
C   -1.2972847   -0.0009736    5.9014604  
O   -2.0050672   -0.0014265    6.9001319  
C    0.2542623   -0.0004184    6.0817573  
O    0.7184670   -0.0002256    7.2139121  
C    1.0974552   -0.0000873    4.8889129  
H    2.0940752    0.0005483    2.0517982  
H   -2.9081052   -0.0011668    4.4207061  
H    2.1707277    0.0000911    5.0223670  
H   -2.1128194   -0.0014912    1.7406791  
