58

C    5.7052416   -2.0986834   -4.6958674  
C    4.8302129   -1.6343311   -3.7670098  
C    3.9272650   -0.7382853   -4.4501074  
C    4.3509920   -0.7185535   -5.8632096  
N    5.4336785   -1.5634476   -5.9458735  
C    3.7483768    0.0103197   -6.8365043  
C    2.6063698    0.8302498   -6.4676277  
O    1.9959434    1.5225188   -7.2716453  
C    2.1405129    0.8248036   -4.9767377  
O    1.1803932    1.5114042   -4.6542317  
C    2.8699641   -0.0020530   -4.0185824  
H    4.8187251   -1.8901546   -2.7224829  
H    4.0749507    0.0105274   -7.8671642  
H    6.5257693   -2.7867006   -4.5723449  
C    6.6710470   -3.1008767   -7.5407385  
C    7.3223330   -3.0395139   -8.7307549  
C    7.2597697   -1.6669605   -9.1746215  
C    6.5133215   -0.9284144   -8.1382072  
N    6.1844898   -1.8548049   -7.1756275  
C    6.2403390    0.4000477   -8.1869279  
C    6.7130785    1.1526530   -9.3369880  
O    6.5178740    2.3533232   -9.4733197  
C    7.5054875    0.3908198  -10.4467191  
O    7.9082327    1.0138466  -11.4198037  
C    7.7377387   -1.0419734  -10.2823555  
H    7.7927208   -3.8619382   -9.2396440  
H    5.6912861    0.9225843   -7.4159498  
H    8.2874008   -1.5620326  -11.0550992  
H    6.5054049   -3.9516016   -6.8998648  
C    3.2573670   -0.0002921   -1.5109382  
C    2.5379468   -0.0001711   -0.3591962  
C    1.1435043    0.0000330   -0.7338498  
C    1.1092608   -0.0000085   -2.2088474  
N    2.4227562    0.0001906   -2.6182610  
C   -0.0265533   -0.0002525   -2.9515663  
C   -1.3003033   -0.0002641   -2.2514979  
O   -2.3786785   -0.0004132   -2.8306425  
C   -1.2877724    0.0000310   -0.6895608  
O   -2.3539956    0.0003306   -0.0892035  
C    0.0000000    0.0000000    0.0000000  
H    2.9384091   -0.0000370    0.6389240  
H   -0.0296290   -0.0004088   -4.0327231  
H    4.3270394   -0.0004767   -1.6439445  
C    2.4951002    2.0940188    2.9809380  
C    1.9440701    1.6314916    1.8291961  
C    0.8759964    0.7350050    2.2038498  
C    0.8497377    0.7130254    3.6788474  
N    1.8560616    1.5571714    4.0882609  
C   -0.0205033   -0.0168748    4.4215661  
C   -0.9962600   -0.8356168    3.7214979  
O   -1.8224391   -1.5286685    4.3006425  
C   -0.9864710   -0.8277881    2.1595606  
O   -1.8030528   -1.5133726    1.5592035  
C    0.0000000    0.0000000    1.4700000  
H    2.2509283    1.8888011    0.8310761  
H   -0.0229599   -0.0187323    5.5027230  
H    3.3143982    2.7817323    3.1139444  
H    2.0889452    1.7545833    5.0442112  
