60

C    3.3041272    0.0001180   -1.5420435  
C    2.5845371   -0.0004778   -0.3695860  
C    1.2040005   -0.0000007   -0.7283587  
C    1.1422371    0.0006040   -2.1454370  
N    2.4348638    0.0026115   -2.6077467  
C   -0.0655185    0.0008801   -2.8497917  
C   -1.2321772    0.0002327   -2.1101398  
O   -2.4392820    0.0001151   -2.7472514  
C   -1.1911210   -0.0000007   -0.6955257  
O   -2.4371525   -0.0002319   -0.1032854  
C    0.0000000    0.0000000    0.0000000  
H    3.0031538   -0.0000661    0.6222579  
H    2.7054625   -0.0071092   -3.5745262  
H   -3.1132992   -0.0000646   -2.0551777  
H   -2.3200277   -0.0004073    0.8516414  
H    4.3686618    0.0004075   -1.7024297  
C    0.6611976   -0.7016920   -5.1602638  
C   -0.1387089    0.0017023   -4.3179682  
C   -1.0659762    0.7435471   -5.1393555  
C   -0.7383884    0.4122900   -6.5392641  
N    0.3175295   -0.4679243   -6.4831335  
C   -1.3893436    0.9119192   -7.6201584  
C   -2.4856342    1.8378819   -7.3893454  
O   -3.1337400    2.3423487   -8.2969644  
C   -2.8496765    2.2029992   -5.9149069  
O   -3.7705849    2.9817564   -5.7082032  
C   -2.0753682    1.5999281   -4.8329627  
H   -1.1332438    0.6558895   -8.6388690  
H   -2.3339027    1.8577617   -3.8149226  
H    1.4729774   -1.3710020   -4.9258994  
C    0.9769738   -1.0699838   -7.6508479  
C    2.0139971   -1.9394260   -7.6661112  
C    2.2598818   -2.2052490   -9.0751459  
C    1.2524791   -1.3917350   -9.7892317  
N    0.4976405   -0.7240165   -8.9595579  
C    1.1634095   -1.3779931  -11.2234442  
C    2.0410978   -2.1419136  -11.9129543  
O    2.0721335   -2.2247642  -13.2539293  
C    3.0696260   -2.9735691  -11.2211167  
O    3.8360240   -3.6445595  -11.9122222  
C    3.1407239   -2.9707203   -9.7490913  
H    2.5464063   -2.3496388   -6.8250749  
H    0.4171923   -0.7742476  -11.7189843  
H    2.8002817   -2.8424395  -13.4473980  
H    3.9000503   -3.5865752   -9.2860839  
C    0.0000000    0.0000000    1.4700000  
C    1.0541688    0.0001722    2.3260392  
C    0.5103138    0.0000454    3.6635956  
C   -0.9576371   -0.0002459    3.5155732  
N   -1.2018458    0.0001392    2.1615969  
C   -1.8348311   -0.0008317    4.5510609  
C   -1.2972847   -0.0009736    5.9014604  
O   -2.0050672   -0.0014265    6.9001319  
C    0.2542623   -0.0004184    6.0817573  
O    0.7184670   -0.0002256    7.2139121  
C    1.0974552   -0.0000873    4.8889129  
H    2.0940752    0.0005483    2.0517982  
H   -2.9081052   -0.0011668    4.4207061  
H    2.1707277    0.0000911    5.0223670  
H   -2.1128194   -0.0014912    1.7406791  
