62

C    3.3041270    0.0001177   -1.5420437  
C    2.5845371   -0.0004779   -0.3695859  
C    1.2040006   -0.0000008   -0.7283592  
C    1.1422371    0.0006037   -2.1454379  
N    2.4348635    0.0026110   -2.6077470  
C   -0.0655185    0.0008797   -2.8497920  
C   -1.2321771    0.0002323   -2.1101395  
O   -2.4392818    0.0001142   -2.7472518  
C   -1.1911212   -0.0000008   -0.6955259  
O   -2.4371526   -0.0002322   -0.1032861  
C    0.0000000    0.0000000    0.0000000  
H    3.0031537   -0.0000662    0.6222578  
H   -0.1193553    0.0014843   -3.9297472  
H   -3.1132994   -0.0000649   -2.0551782  
H   -2.3200280   -0.0004071    0.8516416  
H    4.3686620    0.0004072   -1.7024301  
C    5.6502436   -2.1159091   -4.7187994  
C    5.4250922   -1.6663850   -5.9802708  
C    4.2912961   -0.7748304   -5.9133920  
C    3.8713712   -0.7415296   -4.4994104  
N    4.7351837   -1.5757172   -3.8279580  
C    2.8310658   -0.0116218   -4.0232757  
C    2.0743455    0.7948335   -4.9664298  
O    1.1203081    1.4867880   -4.6358049  
C    2.5012797    0.7745019   -6.4688008  
O    1.8714969    1.4492152   -7.2721668  
C    3.6401540   -0.0516383   -6.8616246  
H    3.9294730   -0.0600286   -7.9037132  
H    6.4075315   -2.7965348   -4.3650292  
H    4.7066626   -1.7617127   -2.8422406  
C    7.1496759   -5.5091334   -7.3285949  
C    7.7019050   -5.0516396   -8.5025664  
C    7.4029805   -3.6595746   -8.5885878  
C    6.6601641   -3.3209327   -7.4286433  
N    6.5226486   -4.4673453   -6.6860500  
C    6.1956057   -2.0260019   -7.1793894  
C    6.4864705   -1.0551784   -8.1180459  
O    6.0572857    0.2259432   -7.9242915  
C    7.2260114   -1.3735928   -9.2818801  
O    7.4333944   -0.2977956  -10.1203288  
C    7.6843941   -2.6509189   -9.5285587  
H    8.2515220   -5.6481361   -9.2104551  
H    6.0498262   -4.5334956   -5.8028492  
H    6.3629122    0.7345310   -8.6866539  
H    7.9398768   -0.5983134  -10.8810978  
H    8.2482549   -2.8647889  -10.4290020  
H    7.1522297   -6.4964500   -6.8994581  
C    0.8400945    0.7047457    2.2710304  
C    0.0000000    0.0000000    1.4700000  
C   -0.8844236   -0.7423113    2.3369512  
C   -0.4878984   -0.4098547    3.7186280  
N    0.5629682    0.4714286    3.6095011  
C   -1.0836927   -0.9095027    4.8308716  
C   -2.1891196   -1.8367527    4.6554461  
O   -2.7906899   -2.3413415    5.5944904  
C   -2.6257283   -2.2031529    3.2011665  
O   -3.5549479   -2.9829990    3.0410059  
C   -1.9068976   -1.5999348    2.0816745  
H   -0.7774656   -0.6525820    5.8354244  
H   -2.2155208   -1.8586617    1.0779135  
H    1.6384792    1.3747609    1.9961646  
H    1.0518368    0.8833920    4.3830260  
