60

C    3.3003554    0.0005275   -1.4738974  
C    2.5232826    0.0003498   -2.6090738  
C    1.1623213   -0.0001318   -2.1820099  
C    1.1711890    0.0000584   -0.7636139  
N    2.4852302   -0.0014918   -0.3662349  
C    0.0000000    0.0000000    0.0000000  
C   -1.2020378    0.0000521   -0.6806491  
O   -2.3759246    0.0003495    0.0157732  
C   -1.2314647   -0.0005109   -2.0955517  
O   -2.5054373   -0.0008032   -2.6250193  
C   -0.0764502   -0.0007270   -2.8495196  
H    2.8036265    0.0088179    0.5858675  
H   -3.0835636    0.0000352   -0.6418829  
H   -2.4360027   -0.0011521   -3.5845936  
H   -0.1304075   -0.0013417   -3.9319090  
H    4.3715556    0.0004894   -1.3667119  
C    4.0912600   -0.7049384   -4.4540724  
C    3.0267456   -0.0008951   -3.9901691  
C    2.4918056    0.7392289   -5.1086016  
C    3.3379779    0.4062540   -6.2704577  
N    4.2890172   -0.4732103   -5.8068229  
C    3.1585259    0.9039811   -7.5201654  
C    2.0587118    1.8295632   -7.7352064  
O    1.8145075    2.3323680   -8.8241749  
C    1.1499717    2.1964773   -6.5189122  
O    0.2211209    2.9749320   -6.6877457  
C    1.4426664    1.5953885   -5.2201156  
H    0.8086049    1.8544580   -4.3831132  
H    4.7480580   -1.3734088   -3.9214817  
H    5.0137610   -0.8850252   -6.3655735  
C    4.5196282   -0.7107537   -8.9267196  
C    5.2810505   -0.7055175  -10.0511234  
C    5.2794682    0.6478554  -10.5543278  
C    4.4487762    1.4363127   -9.6242326  
N    4.0179321    0.5541866   -8.6603257  
C    4.1998517    2.7641955   -9.7525596  
C    4.7892509    3.4634570  -10.8822386  
O    4.6242620    4.6592456  -11.0851419  
C    5.6722912    2.6482229  -11.8799547  
O    6.1735435    3.2261003  -12.8349759  
C    5.8683307    1.2213320  -11.6362258  
H    5.7860240   -1.5530442  -10.4792759  
H    3.5877345    3.3238241   -9.0589900  
H    6.4812548    0.6640990  -12.3315944  
H    4.2826166   -1.5323152   -8.2704031  
C    0.0000000    0.0000000    1.4700000  
C    1.0541688    0.0001722    2.3260392  
C    0.5103138    0.0000454    3.6635956  
C   -0.9576371   -0.0002459    3.5155732  
N   -1.2018458    0.0001392    2.1615969  
C   -1.8348311   -0.0008317    4.5510609  
C   -1.2972847   -0.0009736    5.9014604  
O   -2.0050672   -0.0014265    6.9001319  
C    0.2542623   -0.0004184    6.0817573  
O    0.7184670   -0.0002256    7.2139121  
C    1.0974552   -0.0000873    4.8889129  
H    2.0940752    0.0005483    2.0517982  
H   -2.9081052   -0.0011668    4.4207061  
H    2.1707277    0.0000911    5.0223670  
H   -2.1128194   -0.0014912    1.7406791  
