62

C    3.3041270    0.0001178   -1.5420432  
C    2.5845372   -0.0004779   -0.3695853  
C    1.2040007   -0.0000006   -0.7283591  
C    1.1422373    0.0006039   -2.1454374  
N    2.4348636    0.0026110   -2.6077466  
C   -0.0655186    0.0008800   -2.8497915  
C   -1.2321770    0.0002326   -2.1101397  
O   -2.4392818    0.0001149   -2.7472515  
C   -1.1911209   -0.0000006   -0.6955262  
O   -2.4371522   -0.0002319   -0.1032858  
C    0.0000000    0.0000000    0.0000000  
H    3.0031535   -0.0000661    0.6222580  
H    2.7054625   -0.0071097   -3.5745263  
H   -3.1132993   -0.0000646   -2.0551781  
H   -2.3200286   -0.0004070    0.8516413  
C    5.7131782    0.0002338   -0.7960716  
C    4.7577214    0.0005130   -1.7610465  
C    5.4429744    0.0015566   -3.0319762  
C    6.8863227    0.0018356   -2.7261408  
N    6.9827408    0.0013999   -1.3537004  
C    7.8703096    0.0023648   -3.6607394  
C    7.4818859    0.0029067   -5.0613331  
O    8.2934751    0.0034659   -5.9776440  
C    5.9589201    0.0028756   -5.4082897  
O    5.6198168    0.0036356   -6.5839898  
C    4.9917258    0.0019988   -4.3135815  
H    8.9232040    0.0024314   -3.4151314  
H    3.9391681    0.0017776   -4.5622707  
H    5.5966605   -0.0005085    0.2755219  
H    7.8428775   -0.0001032   -0.8367767  
C   -0.1387086    0.0017020   -4.3179679  
C    0.8715313    0.0021968   -5.2254317  
C    0.2617552    0.0029744   -6.5342509  
C   -1.1970052    0.0029207   -6.3133239  
N   -1.3734978    0.0017348   -4.9488685  
C   -2.1246674    0.0039288   -7.3038522  
C   -1.6550229    0.0049219   -8.6793405  
O   -2.4116503    0.0058068   -9.6415332  
C   -0.1143768    0.0047447   -8.9366640  
O    0.2928832    0.0052679  -10.0905265  
C    0.7871608    0.0038972   -7.7872811  
H    1.9238024    0.0018531   -5.0033070  
H   -3.1901200    0.0039993   -7.1202221  
H    1.8524579    0.0039851   -7.9740072  
H   -2.2623846    0.0029671   -4.4831157  
C    0.8576279    0.7185626    2.2703808  
C    0.0000000    0.0000000    1.4700000  
C   -0.8668858   -0.7285659    2.3373528  
C   -0.4876752   -0.4117774    3.6669281  
N    0.5635254    0.4678311    3.5902241  
C   -1.1297612   -0.9515493    4.7854808  
C   -2.1738724   -1.8268314    4.5576857  
O   -2.8357962   -2.3827064    5.6140350  
C   -2.5667212   -2.1555554    3.2384331  
O   -3.6226318   -3.0413663    3.1773122  
C   -1.9335634   -1.6236449    2.1344818  
H    1.0363952    0.8769718    4.3757045  
H   -0.8454472   -0.7142436    5.8013813  
H   -3.5178062   -2.9546422    5.2385129  
H   -3.8247440   -3.2102924    2.2519915  
H   -2.2566033   -1.8942483    1.1360343  
H    1.6567807    1.3889844    2.0042067  
