58

C   -0.3332644    0.7229303   -7.0846385  
C   -1.5784103    0.5067270   -7.5815722  
C   -1.4385068   -0.4214666   -8.6787139  
C    0.0005253   -0.7305363   -8.7809447  
N    0.6154058   -0.0047901   -7.7869105  
C    0.5429709   -1.5723360   -9.6968230  
C   -0.3500832   -2.2168046  -10.6453216  
O    0.0415221   -2.9913627  -11.5084593  
C   -1.8777699   -1.9038790  -10.5555649  
O   -2.6393368   -2.4403083  -11.3489871  
C   -2.3434412   -0.9794774   -9.5247963  
H   -2.4907460    0.9473386   -7.2208534  
H    1.6013371   -1.7854700   -9.7546552  
H   -3.4026994   -0.7682752   -9.4692231  
H   -0.0288450    1.3528273   -6.2646083  
C    2.8699641   -0.0020527   -4.0185824  
C    4.1345929   -0.0036617   -4.5133415  
C    4.0234314   -0.0055092   -5.9529510  
C    2.5800288   -0.0048104   -6.2585304  
N    1.9354845   -0.0030988   -5.0430271  
C    2.0594329   -0.0056967   -7.5117999  
C    2.9823227   -0.0076821   -8.6346564  
O    2.6119075   -0.0086660   -9.8013143  
C    4.5151773   -0.0087043   -8.3343882  
O    5.3018065   -0.0106823   -9.2716567  
C    4.9555128   -0.0073190   -6.9415653  
H    5.0417776   -0.0037477   -3.9357352  
H    6.0185127   -0.0078337   -6.7421798  
H    0.9396386   -0.0007135   -4.9192027  
C    3.2573673   -0.0002921   -1.5109381  
C    2.5379469   -0.0001710   -0.3591962  
C    1.1435042    0.0000332   -0.7338498  
C    1.1092607   -0.0000083   -2.2088474  
N    2.4227562    0.0001908   -2.6182610  
C   -0.0265532   -0.0002523   -2.9515663  
C   -1.3003033   -0.0002639   -2.2514979  
O   -2.3786784   -0.0004132   -2.8306425  
C   -1.2877726    0.0000312   -0.6895609  
O   -2.3539956    0.0003308   -0.0892035  
C    0.0000000    0.0000000    0.0000000  
H    2.9384091   -0.0000368    0.6389240  
H   -0.0296292   -0.0004086   -4.0327231  
H    4.3270395   -0.0004765   -1.6439444  
C    2.5128556    2.1077716    2.9199648  
C    1.9592212    1.6432552    4.0696553  
C    0.8915788    0.7479214    3.6910360  
C    0.8684491    0.7287414    2.2159470  
N    1.8754542    1.5738793    1.8102719  
C    0.0000000    0.0000000    1.4700000  
C   -0.9772830   -0.8200135    2.1664417  
O   -1.8021297   -1.5120829    1.5842315  
C   -0.9711318   -0.8147624    3.7284083  
O   -1.7894187   -1.5009653    4.3257297  
C    0.0140216    0.0115358    4.4216297  
H    2.2638494    1.8988021    5.0689105  
H    0.0117648    0.0094386    5.5031631  
H    3.3327358    2.7953732    2.7900019  
H    2.1123206    1.7707734    0.8551938  
