58

C    3.2798085    0.0005856   -1.4499649  
C    2.5571143    0.0005565   -2.5996559  
C    1.1637433    0.0001547   -2.2210360  
C    1.1336962   -0.0000200   -0.7459472  
N    2.4483513   -0.0001427   -0.3402725  
C    0.0000000    0.0000000    0.0000000  
C   -1.2757370   -0.0000187   -0.6964418  
O   -2.3524597   -0.0000639   -0.1142312  
C   -1.2676497   -0.0000874   -2.2584083  
O   -2.3355764   -0.0004102   -2.8557298  
C    0.0181558    0.0001758   -2.9516298  
H    2.9547351    0.0006074   -3.5989111  
H    4.3498549    0.0008611   -1.3200028  
H    2.7563628    0.0012824    0.6148065  
C    0.0139736    0.0003878   -4.4216241  
C    1.0778895    0.0017004   -5.2580809  
C    0.5039791    0.0012669   -6.5949156  
C   -0.9579668   -0.0005057   -6.3728911  
N   -1.2512405   -0.0009472   -5.1008931  
C   -1.8932246   -0.0013662   -7.4639358  
C   -1.3908374   -0.0001066   -8.7196985  
O   -2.1470615   -0.0007110   -9.8306288  
C    0.0796376    0.0020652   -8.9763288  
O    0.4660664    0.0029997  -10.1450427  
C    1.0185661    0.0028685   -7.8403987  
H    2.1230560    0.0029144   -4.9998129  
H   -1.5077404    0.0005464  -10.5657611  
H    2.0760187    0.0045651   -8.0684792  
C   -4.2072313    2.1357662   -4.4530331  
C   -5.4692740    1.7265643   -4.7202066  
C   -5.3377178    0.8163101   -5.8474285  
C   -3.8883920    0.7921008   -6.1397515  
N   -3.2206025    1.5635691   -5.3255749  
C   -3.3399614   -0.0034106   -7.2034582  
C   -4.2002522   -0.7414970   -7.9413355  
O   -3.8270615   -1.5294542   -8.9640245  
C   -5.6682215   -0.7385104   -7.6707492  
O   -6.3922458   -1.4344623   -8.3825501  
C   -6.2063391    0.0858477   -6.5740317  
H   -6.3773284    2.0076258   -4.2147196  
H   -4.6568051   -1.9227400   -9.2896077  
H   -7.2753474    0.0603621   -6.4103178  
H   -3.8788769    2.8182308   -3.6853103  
C    2.4951002    2.0940188    2.9809380  
C    1.9440701    1.6314916    1.8291961  
C    0.8759964    0.7350050    2.2038498  
C    0.8497377    0.7130254    3.6788474  
N    1.8560616    1.5571714    4.0882609  
C   -0.0205033   -0.0168748    4.4215661  
C   -0.9962600   -0.8356168    3.7214979  
O   -1.8224391   -1.5286685    4.3006425  
C   -0.9864710   -0.8277881    2.1595606  
O   -1.8030528   -1.5133726    1.5592035  
C    0.0000000    0.0000000    1.4700000  
H    2.2509283    1.8888011    0.8310761  
H   -0.0229599   -0.0187323    5.5027230  
H    3.3143982    2.7817323    3.1139444  
H    2.0889452    1.7545833    5.0442112  
