58

C    7.1853687   -2.1191544   -6.3818040  
C    8.2465459   -2.9617323   -6.2921318  
C    8.8698458   -2.9937912   -7.5941706  
C    8.0791599   -2.0943521   -8.4559217  
N    7.0726254   -1.5962910   -7.6611180  
C    8.3464933   -1.8514363   -9.7640617  
C    9.4891038   -2.5206741  -10.3633102  
O    9.8121619   -2.3674948  -11.5339802  
C   10.3403618   -3.4777789   -9.4693785  
O   11.3045194   -4.0470290   -9.9629520  
C    9.9535722   -3.6592877   -8.0724897  
H    8.5571170   -3.4995722   -5.4141296  
H    7.7539020   -1.1879229  -10.3784677  
H   10.5482932   -4.3234931   -7.4602300  
H    6.3662673   -0.9506799   -7.9632643  
C    6.1745028   -2.1408804   -4.0544024  
C    6.2180775   -1.7334918   -5.3442539  
C    5.0926413   -0.8229057   -5.4882163  
C    4.4611846   -0.7965393   -4.1513722  
N    5.0910257   -1.5671311   -3.3066964  
C    3.2973506   -0.0000934   -3.8752374  
C    2.7877446    0.7368255   -4.8884433  
O    1.7057654    1.5254555   -4.7725807  
C    3.4025820    0.7316574   -6.2486309  
O    2.8855812    1.4266377   -7.1232351  
C    4.5959746   -0.0936242   -6.5067944  
H    1.5889234    1.9175676   -5.6567462  
H    5.0113660   -0.0697231   -7.5053480  
H    6.8407161   -2.8229593   -3.5505174  
C    3.3321174    0.0004714   -1.3379332  
C    2.6974186    0.0000115   -2.5332308  
C    1.2800441   -0.0002119   -2.2052838  
C    1.2395035    0.0000643   -0.7271293  
N    2.4394063    0.0005458   -0.2131034  
C    0.0000000    0.0000000    0.0000000  
C   -1.1468701    0.0000634   -0.7169542  
O   -2.3742201    0.0000072   -0.1695492  
C   -1.1388767    0.0001606   -2.2096354  
O   -2.2206229    0.0000903   -2.7970413  
C    0.1454526    0.0001815   -2.9324239  
H   -2.9844344    0.0001023   -0.9290168  
H    0.1083580    0.0003680   -4.0135594  
H    4.3940040    0.0007617   -1.1498630  
C    2.4951002    2.0940188    2.9809380  
C    1.9440701    1.6314916    1.8291961  
C    0.8759964    0.7350050    2.2038498  
C    0.8497377    0.7130254    3.6788474  
N    1.8560616    1.5571714    4.0882609  
C   -0.0205033   -0.0168748    4.4215661  
C   -0.9962600   -0.8356168    3.7214979  
O   -1.8224391   -1.5286685    4.3006425  
C   -0.9864710   -0.8277881    2.1595606  
O   -1.8030528   -1.5133726    1.5592035  
C    0.0000000    0.0000000    1.4700000  
H    2.2509283    1.8888011    0.8310761  
H   -0.0229599   -0.0187323    5.5027230  
H    3.3143982    2.7817323    3.1139444  
H    2.0889452    1.7545833    5.0442112  
