62

C    3.3003552    0.0005280   -1.4738977  
C    2.5232825    0.0003502   -2.6090739  
C    1.1623213   -0.0001314   -2.1820100  
C    1.1711888    0.0000585   -0.7636135  
N    2.4852303   -0.0014918   -0.3662347  
C    0.0000000    0.0000000    0.0000000  
C   -1.2020377    0.0000522   -0.6806483  
O   -2.3759246    0.0003491    0.0157740  
C   -1.2314651   -0.0005108   -2.0955516  
O   -2.5054381   -0.0008032   -2.6250187  
C   -0.0764503   -0.0007266   -2.8495194  
H    2.8036264    0.0088183    0.5858671  
H   -3.0835633    0.0000347   -0.6418827  
H   -2.4360031   -0.0011520   -3.5845931  
H   -0.1304079   -0.0013415   -3.9319088  
H    4.3715556    0.0004899   -1.3667118  
C    5.9080461   -2.1212781   -4.5066903  
C    5.7372507   -1.6233267   -5.7776506  
C    4.6108310   -0.7493032   -5.7345061  
C    4.1315423   -0.7536520   -4.3995197  
N    4.9405897   -1.5984024   -3.6808707  
C    3.0267451   -0.0008943   -3.9901690  
C    2.3944508    0.7705372   -4.9458227  
O    1.3109381    1.5252438   -4.6002320  
C    2.8575159    0.7878063   -6.2830172  
O    2.1214437    1.6053003   -7.1156310  
C    3.9471990    0.0452343   -6.6876206  
H    6.3485819   -1.8616759   -6.6311481  
H    4.8499648   -1.7941730   -2.7003391  
H    1.0265047    1.9789031   -5.4043193  
H    2.4998705    1.5596287   -7.9989831  
H    4.2786883    0.0784993   -7.7188748  
C    6.9109979   -3.0605609   -3.9844492  
C    7.9200566   -3.6613963   -4.6570389  
C    8.5977760   -4.4801203   -3.6636167  
C    7.8450845   -4.2471445   -2.4123124  
N    6.8551240   -3.4159541   -2.5942154  
C    8.2062591   -4.8862933   -1.1769466  
C    9.2707376   -5.7205719   -1.1910794  
O    9.7190725   -6.3836137   -0.1115369  
C   10.0503545   -5.9764912   -2.4380212  
O   11.0077783   -6.7477756   -2.3773540  
C    9.6600452   -5.3088407   -3.6925432  
H    8.1731643   -3.5614378   -5.6986823  
H    7.6385480   -4.6975655   -0.2775048  
H   10.4840661   -6.8935948   -0.4338047  
H   10.2503603   -5.5207999   -4.5739232  
C    2.4951002    2.0940188    2.9809380  
C    1.9440701    1.6314916    1.8291961  
C    0.8759964    0.7350050    2.2038498  
C    0.8497377    0.7130254    3.6788474  
N    1.8560616    1.5571714    4.0882609  
C   -0.0205033   -0.0168748    4.4215661  
C   -0.9962600   -0.8356168    3.7214979  
O   -1.8224391   -1.5286685    4.3006425  
C   -0.9864710   -0.8277881    2.1595606  
O   -1.8030528   -1.5133726    1.5592035  
C    0.0000000    0.0000000    1.4700000  
H    2.2509283    1.8888011    0.8310761  
H   -0.0229599   -0.0187323    5.5027230  
H    3.3143982    2.7817323    3.1139444  
H    2.0889452    1.7545833    5.0442112  
