58

C    7.3626843   -0.7243426   -5.3227857  
C    8.7006013   -0.5078090   -5.2381233  
C    9.0446648    0.4182042   -6.2911927  
C    7.7885148    0.7256347   -7.0013781  
N    6.8068101    0.0011169   -6.3655945  
C    7.6912062    1.5651856   -8.0631640  
C    8.9046811    2.2087905   -8.5383371  
O    8.9210232    2.9813498   -9.4876446  
C   10.2462677    1.8975705   -7.8013892  
O   11.2744639    2.4332916   -8.1926360  
C   10.2249551    0.9755536   -6.6685685  
H    9.3701081   -0.9468312   -4.5200472  
H    6.7599029    1.7771458   -8.5697764  
H   11.1580336    0.7655215   -6.1636185  
H    6.7360551   -1.3530219   -4.7112400  
C    3.1006060    0.0006268   -3.9654947  
C    4.3965753    0.0006907   -4.3711275  
C    4.3857809    0.0007807   -5.8149828  
C    2.9671185    0.0007930   -6.2201829  
N    2.2396186    0.0002982   -5.0524356  
C    2.5349230    0.0012657   -7.5066168  
C    3.5336528    0.0015717   -8.5625879  
O    3.2452525    0.0019411   -9.7521779  
C    5.0419203    0.0013125   -8.1564675  
O    5.8918153    0.0012596   -9.0367734  
C    5.3843457    0.0010806   -6.7363982  
H    5.2614037    0.0004941   -3.7318422  
H    1.4895031    0.0013959   -7.7823117  
H    1.2375717    0.0017396   -4.9981503  
C    3.2798085    0.0005859   -1.4499648  
C    2.5571146    0.0005569   -2.5996553  
C    1.1637437    0.0001551   -2.2210359  
C    1.1336966   -0.0000198   -0.7459471  
N    2.4483513   -0.0001427   -0.3402720  
C    0.0000000    0.0000000    0.0000000  
C   -1.2757366   -0.0000185   -0.6964416  
O   -2.3524595   -0.0000640   -0.1142313  
C   -1.2676493   -0.0000870   -2.2584084  
O   -2.3355759   -0.0004098   -2.8557296  
C    0.0181563    0.0001763   -2.9516295  
H    0.0150795    0.0003323   -4.0331630  
H    4.3498549    0.0008614   -1.3200020  
H    2.7563627    0.0012824    0.6148062  
C    0.0000000    0.0000000    1.4700000  
C    1.0662921    0.0000102    2.3034270  
C    0.4961870   -0.0000064    3.6418889  
C   -0.9663858    0.0000850    3.4240247  
N   -1.2632773    0.0000084    2.1528658  
C   -1.8985362    0.0000517    4.5177257  
C   -1.3925775   -0.0004564    5.7720543  
O   -2.1456383   -0.0005410    6.8851312  
C    0.0786232   -0.0009323    6.0245000  
O    0.4683759   -0.0012588    7.1921102  
C    1.0143166   -0.0008442    4.8859032  
H    2.1107198   -0.0000632    2.0421868  
H   -2.9622183    0.0003270    4.3293377  
H   -1.5042274   -0.0009692    7.6184419  
H    2.0724152   -0.0013148    5.1109744  
