62

C   -1.0725985    0.3373047   -0.7919014  
C   -0.7181969    0.2082316   -2.1148554  
C    0.6384097   -0.2316663   -2.1414703  
C    1.0625126   -0.3549030   -0.7935549  
N    0.0000000    0.0000000    0.0000000  
C    2.3505259   -0.7688969   -0.4408238  
C    3.2262705   -1.0641495   -1.4675054  
O    4.4961336   -1.4733263   -1.1793458  
C    2.8218728   -0.9469481   -2.8186316  
O    3.8086037   -1.2765437   -3.7247614  
C    1.5514568   -0.5383315   -3.1673482  
H   -1.3583251    0.4077701   -2.9571216  
H    2.6799720   -0.8647065    0.5845968  
H    4.9335006   -1.6240445   -2.0274371  
H    3.4537857   -1.1706521   -4.6127337  
H   -2.0051720    0.6446599   -0.3505418  
C    1.1703450   -0.4290952   -4.5828766  
C   -0.0215927   -0.0476728   -5.0980274  
C    0.1531511   -0.1190408   -6.5405503  
C    1.5482045   -0.5733570   -6.7249606  
N    2.1494551   -0.7568442   -5.5809248  
C    2.1177424   -0.7714046   -8.0293722  
C    1.3293371   -0.5270839   -9.1008481  
O    1.7299333   -0.6700818  -10.3756483  
C   -0.0826969   -0.0679786   -8.9474080  
O   -0.7422123    0.1352534   -9.9667002  
C   -0.6438208    0.1278465   -7.5988098  
H   -0.9097430    0.2457742   -4.5649668  
H    3.1401469   -1.1038405   -8.1346575  
H    0.9526661   -0.4238181  -10.9089049  
C   -2.6884516    3.0508990   -4.9034606  
C   -1.7527850    2.2555888   -5.5235222  
C   -2.4337811    1.5321815   -6.5470096  
C   -3.7942789    1.9310571   -6.5037585  
N   -3.9148483    2.8525385   -5.4933363  
C   -4.7606814    1.4186034   -7.3745317  
C   -4.3460574    0.4867327   -8.3061333  
O   -5.2483928   -0.0457568   -9.1809241  
C   -2.9930769    0.0758399   -8.3646849  
O   -2.7380314   -0.8588450   -9.3468556  
C   -2.0392096    0.5807661   -7.5057827  
H   -0.7081639    2.2024598   -5.2686947  
H   -4.7639493    3.3209516   -5.2333405  
H   -5.7992127    1.7183945   -7.3466059  
H   -4.7575745   -0.6658444   -9.7357701  
H   -1.8026641   -1.0822151   -9.3186155  
H   -2.5783172    3.7428918   -4.0861626  
C    2.5128556    2.1077716    2.9199648  
C    1.9592212    1.6432552    4.0696553  
C    0.8915788    0.7479214    3.6910360  
C    0.8684491    0.7287414    2.2159470  
N    1.8754542    1.5738793    1.8102719  
C    0.0000000    0.0000000    1.4700000  
C   -0.9772830   -0.8200135    2.1664417  
O   -1.8021297   -1.5120829    1.5842315  
C   -0.9711318   -0.8147624    3.7284083  
O   -1.7894187   -1.5009653    4.3257297  
C    0.0140216    0.0115358    4.4216297  
H    2.2638494    1.8988021    5.0689105  
H    0.0117648    0.0094386    5.5031631  
H    3.3327358    2.7953732    2.7900019  
H    2.1123206    1.7707734    0.8551938  
