60

C    0.0000000    0.0000000    0.0000000  
C    1.0521666   -0.0011919   -0.8862347  
C    0.4917214   -0.0011970   -2.1979137  
C   -0.9187430    0.0003150   -2.0478685  
N   -1.1833169   -0.0009400   -0.7007914  
C   -1.7951704    0.0010362   -3.1372093  
C   -1.2375839    0.0005226   -4.4010426  
O   -2.0474219    0.0015368   -5.4997582  
C    0.1673578   -0.0013584   -4.5711968  
O    0.5673517   -0.0020713   -5.8915553  
C    1.0325771   -0.0023435   -3.4969896  
H    2.0953056   -0.0030677   -0.6200564  
H   -2.0989775    0.0102397   -0.2891824  
H   -1.4634892    0.0006500   -6.2693593  
H    1.5290702   -0.0033188   -5.9180049  
H    2.1042143   -0.0039648   -3.6584464  
C   -3.9705525    0.7070975   -2.0745739  
C   -3.2578656    0.0024070   -2.9908506  
C   -4.2093235   -0.7382521   -3.7851983  
C   -5.5443152   -0.4048853   -3.2527939  
N   -5.3302022    0.4752933   -2.2172597  
C   -6.7108617   -0.9029277   -3.7353163  
C   -6.6473155   -1.8292862   -4.8535100  
O   -7.6421039   -2.3324251   -5.3590286  
C   -5.2441074   -2.1966257   -5.4330563  
O   -5.1780557   -2.9757341   -6.3742720  
C   -4.0579927   -1.5951374   -4.8287417  
H   -3.0902117   -1.8545058   -5.2359909  
H   -3.6168779    1.3760943   -1.3069498  
H   -6.0507890    0.8875112   -1.6534528  
C   -8.2405877    2.9297272   -2.3359615  
C   -9.4996860    2.6119357   -1.9548335  
C   -9.6254138    1.1880695   -2.2255688  
C   -8.3127740    0.7973796   -2.7831723  
N   -7.4968521    1.8141218   -2.8502170  
C   -8.0281028   -0.5527294   -3.1847368  
C   -9.0099885   -1.4708856   -3.0356584  
O   -8.8827643   -2.7666406   -3.3686341  
C  -10.3451548   -1.1077142   -2.4756614  
O  -11.1917232   -1.9948710   -2.3684411  
C  -10.6126836    0.2839311   -2.0710914  
H  -10.2503878    3.2632868   -1.5409928  
H   -9.7438926   -3.1651252   -3.1476804  
H  -11.5923879    0.5062308   -1.6698523  
H   -7.7576624    3.8931158   -2.2954796  
C    1.1319247   -0.0015655    2.2709268  
C    0.7969915   -0.0034943    3.5869401  
C   -0.6453339   -0.0035710    3.6542670  
C   -1.1266833   -0.0015433    2.2596025  
N    0.0000000    0.0000000    1.4700000  
C   -2.4346130   -0.0013964    1.8976294  
C   -3.4350110   -0.0031408    2.9520183  
O   -4.6384611   -0.0030974    2.7283916  
C   -2.9478959   -0.0050506    4.4361073  
O   -3.7809380   -0.0062218    5.3323774  
C   -1.5113823   -0.0053090    4.7012123  
H    1.4821238   -0.0045407    4.4159191  
H   -2.7664565   -0.0000232    0.8686553  
H   -1.1823530   -0.0068408    5.7314848  
H    2.1104316   -0.0009391    1.8188057  
