62

C   -1.1240191    0.0287078   -0.7919006  
C   -0.7477717    0.0022815   -2.1148546  
C    0.6775293   -0.0467938   -2.1414702  
C    1.1191717   -0.0484043   -0.7935548  
N    0.0000000    0.0000000    0.0000000  
C    2.4713975   -0.0914782   -0.4408242  
C    3.3945951   -0.1340024   -1.4675060  
O    4.7280458   -0.1774467   -1.1793469  
C    2.9735574   -0.1327643   -2.8186324  
O    4.0129089   -0.1777213   -3.7247622  
C    1.6397302   -0.0900106   -3.1673482  
H    2.8144897   -0.0928045    0.5845967  
H    5.1900110   -0.2018204   -2.0274378  
H    3.6426479   -0.1736939   -4.6127343  
H    1.3474476   -0.0900125   -4.2109234  
H   -2.1051805    0.0672077   -0.3505413  
C   -1.6630760    0.0233583   -3.2649302  
C   -3.0155714    0.0701687   -3.2529364  
C   -3.4033023    0.0707097   -4.6551364  
C   -2.1243006    0.0198749   -5.3955107  
N   -1.1007183   -0.0081311   -4.5858911  
C   -2.0766066    0.0050568   -6.8316834  
C   -3.2531650    0.0390702   -7.4979333  
O   -3.3575382    0.0303320   -8.8377360  
C   -4.5604568    0.0902987   -6.7792369  
O   -5.5921711    0.1194522   -7.4500110  
C   -4.5829642    0.1046435   -5.3057340  
H   -3.6693772    0.1004856   -2.3981289  
H   -4.3155664    0.0613821   -9.0120070  
H   -5.5502749    0.1419830   -4.8228825  
C    0.3019459   -0.7982462   -7.1536758  
C   -0.7854287   -0.0455535   -7.5325389  
C   -0.4120183    0.6597941   -8.7147609  
C    0.9257979    0.2943227   -9.0124268  
N    1.3295744   -0.5907035   -8.0437627  
C    1.6205824    0.8005048  -10.1150796  
C    0.9525806    1.6916328  -10.9322958  
O    1.5838206    2.2162122  -12.0228763  
C   -0.3822628    2.0687888  -10.6516488  
O   -0.9091323    2.9647972  -11.5587994  
C   -1.0682108    1.5700333   -9.5638782  
H    2.2309837   -1.0305039   -7.9988427  
H    2.6403513    0.5260430  -10.3473380  
H    0.9483450    2.8063044  -12.4485836  
H   -1.8124834    3.1671303  -11.2968421  
H   -2.0899763    1.8774882   -9.3742865  
H    0.4262739   -1.4656292   -6.3181509  
C    0.8681109    0.7263879    2.2709268  
C    0.6127770    0.5096195    3.5869401  
C   -0.4920590   -0.4175482    3.6542670  
C   -0.8620974   -0.7254003    2.2596025  
N    0.0000000    0.0000000    1.4700000  
C   -1.8641242   -1.5660088    1.8976294  
C   -2.6293522   -2.2103885    2.9520183  
O   -3.5512764   -2.9839180    2.7283916  
C   -2.2549728   -1.8987399    4.4361073  
O   -2.8923672   -2.4351063    5.3323774  
C   -1.1543735   -0.9755647    4.7012123  
H    1.1382914    0.9492124    4.4159191  
H   -2.1192137   -1.7782617    0.8686553  
H   -0.9013378   -0.7652422    5.7314848  
H    1.6172880    1.3558399    1.8188057  
