62

C    1.1243413    0.0100079   -0.7919010  
C    0.7474070    0.0234651   -2.1148550  
C   -0.6787388    0.0234399   -2.1414702  
C   -1.1201747    0.0098438   -0.7935545  
N    0.0000000    0.0000000    0.0000000  
C   -2.4730817    0.0063369   -0.4408242  
C   -3.3971961    0.0170512   -1.4675056  
O   -4.7313521    0.0145605   -1.1793465  
C   -2.9763657    0.0303099   -2.8186320  
O   -4.0166484    0.0394565   -3.7247623  
C   -1.6418570    0.0335037   -3.1673482  
H    1.4178708    0.0311173   -2.9571212  
H   -2.8160165   -0.0041501    0.5845966  
H   -5.1938822    0.0230152   -2.0274380  
H   -3.6464686    0.0481796   -4.6127344  
H    2.1062466    0.0053110   -0.3505410  
C   -0.2339312   -0.6331207   -5.1704656  
C   -1.2456341    0.0471560   -4.5828766  
C   -1.8650203    0.8030657   -5.6605875  
C   -1.0790456    0.4507462   -6.8625437  
N   -0.1215984   -0.3908400   -6.5814426  
C   -1.3797858    0.9996517   -8.1561217  
C   -2.4187375    1.8610562   -8.2449812  
O   -2.8109953    2.4484903   -9.3882643  
C   -3.2312411    2.2360566   -7.0502540  
O   -4.1624961    3.0260431   -7.2048758  
C   -2.9028290    1.6595399   -5.7343140  
H   -3.5707074    3.0029504   -9.1341700  
H   -3.5155652    1.9564509   -4.8937021  
H    0.4674337   -1.3099070   -4.7089236  
C    0.3818430   -2.8893528   -9.4835146  
C   -0.2849616   -1.9110858   -8.7829195  
C   -0.1354299   -0.6975757   -9.5175173  
C    0.6385347   -0.9996516  -10.6671495  
N    0.9374551   -2.3384925  -10.6145296  
C    0.9829468   -0.0374048  -11.6212202  
C    0.5376818    1.2532360  -11.4110676  
O    0.8449841    2.2318971  -12.3115127  
C   -0.2353319    1.5743311  -10.2699436  
O   -0.6022849    2.9025617  -10.2029164  
C   -0.5752495    0.6256153   -9.3281787  
H   -0.8131366   -2.0542506   -7.8558119  
H    1.4677049   -2.8422154  -11.3023375  
H    1.5726737   -0.2611920  -12.4994805  
H    0.4430034    3.0449473  -11.9789106  
H   -1.1210597    3.0348129   -9.4035504  
H    0.5062802   -3.9361608   -9.2651870  
C    2.4951002    2.0940188    2.9809380  
C    1.9440701    1.6314916    1.8291961  
C    0.8759964    0.7350050    2.2038498  
C    0.8497377    0.7130254    3.6788474  
N    1.8560616    1.5571714    4.0882609  
C   -0.0205033   -0.0168748    4.4215661  
C   -0.9962600   -0.8356168    3.7214979  
O   -1.8224391   -1.5286685    4.3006425  
C   -0.9864710   -0.8277881    2.1595606  
O   -1.8030528   -1.5133726    1.5592035  
C    0.0000000    0.0000000    1.4700000  
H    2.2509283    1.8888011    0.8310761  
H   -0.0229599   -0.0187323    5.5027230  
H    3.3143982    2.7817323    3.1139444  
H    2.0889452    1.7545833    5.0442112  
