60

C   -1.1239075    0.0327664   -0.7919009  
C   -0.7477578    0.0049816   -2.1148548  
C    0.6773568   -0.0492402   -2.1414694  
C    1.1189899   -0.0524453   -0.7935543  
N    0.0000000    0.0000000    0.0000000  
C    2.4710516   -0.1004019   -0.4408227  
C    3.3940895   -0.1462595   -1.4675046  
O    4.7273746   -0.1945187   -1.1793444  
C    2.9730598   -0.1435010   -2.8186308  
O    4.0122422   -0.1922109   -3.7247600  
C    1.6393959   -0.0959313   -3.1673471  
H    2.8141365   -0.1029671    0.5845984  
H    5.1892488   -0.2205604   -2.0274357  
H    3.6419987   -0.1868467   -4.6127322  
H    1.3471155   -0.0948778   -4.2109226  
H   -2.1049239    0.0748091   -0.3505418  
C   -1.6629795    0.0293635   -3.2649308  
C   -3.0152972    0.0810574   -3.2529376  
C   -3.4030227    0.0829985   -4.6551372  
C   -2.1242127    0.0275454   -5.3955116  
N   -1.1007385   -0.0041565   -4.5858911  
C   -2.0765721    0.0125552   -6.8316842  
C   -3.2529993    0.0508169   -7.4979341  
O   -3.3574031    0.0424557   -8.8377368  
C   -4.5600983    0.1067656   -6.7792386  
O   -5.5916998    0.1396444   -7.4500124  
C   -4.5825542    0.1211918   -5.3057356  
H   -3.6689891    0.1137350   -2.3981304  
H   -1.1278846   -0.0280621   -7.3467101  
H   -4.3153128    0.0769649   -9.0120083  
C   -6.2501706    0.8867215   -3.5529830  
C   -5.8968235    0.1766780   -4.6495975  
C   -7.1063882   -0.5277538   -5.0461181  
C   -8.1203805   -0.1161608   -4.0516357  
N   -7.6243239    0.7130007   -3.1739067  
C   -9.4717873   -0.6027196   -4.0968774  
C   -9.7956021   -1.4611251   -5.0906670  
O  -11.0186806   -1.9936154   -5.2536832  
C   -8.7947756   -1.8950825   -6.1095830  
O   -9.1594026   -2.6787445   -6.9860197  
C   -7.4149125   -1.3819617   -6.0416949  
H  -10.1920475   -0.2853480   -3.3570057  
H  -10.9389535   -2.5613546   -6.0413814  
H   -6.7200353   -1.7204069   -6.7985507  
H   -5.6332236    1.5420113   -2.9588907  
C    0.0000000    0.0000000    1.4700000  
C    1.0541688    0.0001722    2.3260392  
C    0.5103138    0.0000454    3.6635956  
C   -0.9576371   -0.0002459    3.5155732  
N   -1.2018458    0.0001392    2.1615969  
C   -1.8348311   -0.0008317    4.5510609  
C   -1.2972847   -0.0009736    5.9014604  
O   -2.0050672   -0.0014265    6.9001319  
C    0.2542623   -0.0004184    6.0817573  
O    0.7184670   -0.0002256    7.2139121  
C    1.0974552   -0.0000873    4.8889129  
H    2.0940752    0.0005483    2.0517982  
H   -2.9081052   -0.0011668    4.4207061  
H    2.1707277    0.0000911    5.0223670  
H   -2.1128194   -0.0014912    1.7406791  
