58

C    4.9854862   -0.9056295   -8.8389275  
C    5.3840196   -0.5466672  -10.0864821  
C    5.1607273    0.8747528  -10.2070696  
C    4.5954106    1.3176534   -8.9182525  
N    4.5142049    0.1908603   -8.1329929  
C    4.2467839    2.5972998   -8.6307319  
C    4.4411155    3.6056173   -9.6593558  
O    4.1581747    4.7854626   -9.4974554  
C    5.0381592    3.1589835  -11.0318937  
O    5.2060244    3.9989716  -11.9056785  
C    5.3754542    1.7506424  -11.2233600  
H    5.7881127   -1.2027771  -10.8367098  
H    3.8337927    2.9011590   -7.6788819  
H    5.7885580    1.4496097  -12.1764850  
H    4.9962221   -1.8789776   -8.3759289  
C    5.9578468   -2.0116381   -4.6613370  
C    5.0861938   -1.6298114   -3.6990437  
C    4.1732073   -0.7119466   -4.3627299  
C    4.6536422   -0.6536616   -5.7600020  
N    5.6994877   -1.4135383   -5.9410649  
C    4.0070647    0.1585852   -6.7536211  
C    2.9292835    0.8795219   -6.3689500  
O    2.2294971    1.6800091   -7.1908742  
C    2.4200480    0.8415395   -4.9663102  
O    1.4341931    1.5235888   -4.6868113  
C    3.1006054    0.0006263   -3.9654951  
H    5.0652945   -1.9335816   -2.6663952  
H    1.5255990    2.0552511   -6.6315228  
H    6.7914222   -2.6898664   -4.5711608  
C    3.2798083    0.0005857   -1.4499652  
C    2.5571142    0.0005565   -2.5996556  
C    1.1637432    0.0001548   -2.2210361  
C    1.1336964   -0.0000200   -0.7459473  
N    2.4483512   -0.0001428   -0.3402723  
C    0.0000000    0.0000000    0.0000000  
C   -1.2757368   -0.0000186   -0.6964415  
O   -2.3524598   -0.0000639   -0.1142311  
C   -1.2676497   -0.0000872   -2.2584083  
O   -2.3355766   -0.0004101   -2.8557295  
C    0.0181558    0.0001758   -2.9516296  
H    0.0150788    0.0003319   -4.0331631  
H    4.3498547    0.0008612   -1.3200026  
H    2.7563626    0.0012823    0.6148059  
C    0.8175213    0.6860729    2.3021913  
C    0.0000000    0.0000000    1.4700000  
C   -0.8887526   -0.7456559    2.3478473  
C   -0.4549825   -0.3816753    3.7138435  
N    0.5448156    0.4573574    3.6934124  
C   -1.0945674   -0.9182058    4.8835240  
C   -2.1210866   -1.7789155    4.6970523  
O   -2.8083856   -2.3554314    5.6976972  
C   -2.5824069   -2.1655116    3.3310774  
O   -3.5227682   -2.9541547    3.2362962  
C   -1.9100805   -1.6015804    2.1470656  
H   -0.7567140   -0.6349833    5.8697035  
H   -3.4728268   -2.9124471    5.2533954  
H   -2.2742832   -1.9066565    1.1752040  
H    1.6189533    1.3585343    2.0405121  
