58

C    6.7228594   -0.0028435   -5.8348544  
C    5.4479659   -0.0024585   -6.3025312  
C    5.5283979   -0.0026664   -7.7441853  
C    6.9649552   -0.0032374   -8.0804789  
N    7.6352768   -0.0029203   -6.8789972  
C    7.4587036   -0.0039722   -9.3445662  
C    6.5120745   -0.0039908  -10.4474851  
O    6.8575235   -0.0045613  -11.6217791  
C    4.9859726   -0.0031397  -10.1145959  
O    4.1795322   -0.0028409  -11.0348750  
C    4.5754437   -0.0026685   -8.7126975  
H    4.5533061   -0.0018904   -5.7057091  
H    8.5162044   -0.0045121   -9.5695100  
H    3.5169378   -0.0022852   -8.4906858  
H    8.6335382   -0.0047295   -6.7764368  
C    4.5679461   -0.0016854   -2.0086701  
C    5.6245801   -0.0018695   -1.1556757  
C    6.8197131   -0.0025283   -1.9659187  
C    6.3695110   -0.0026851   -3.3709485  
N    4.9943549   -0.0025530   -3.3281076  
C    7.1998311   -0.0028672   -4.4443876  
C    8.6325203   -0.0031380   -4.1995661  
O    9.4620769   -0.0033775   -5.0996411  
C    9.1316831   -0.0032304   -2.7194844  
O   10.3356443   -0.0037644   -2.5009918  
C    8.1403753   -0.0027353   -1.6465627  
H    5.5727016   -0.0017595   -0.0814682  
H    8.4942119   -0.0025975   -0.6245433  
H    4.3931135   -0.0010543   -4.1315711  
C    3.1301149   -0.0010311   -1.7028252  
C    2.5367768   -0.0002767   -0.4864665  
C    1.1089904    0.0001028   -0.7656183  
C    1.0177872   -0.0004148   -2.2415132  
N    2.1993578   -0.0011611   -2.7963820  
C   -0.2459209   -0.0002877   -2.9257118  
C   -1.3675319   -0.0000605   -2.1698524  
O   -2.6129313    0.0000867   -2.6748490  
C   -1.3083584    0.0000910   -0.6783232  
O   -2.3693261    0.0004206   -0.0541692  
C    0.0000000    0.0000000    0.0000000  
H    3.0096017   -0.0001007    0.4807525  
H   -0.2829630   -0.0004687   -4.0053125  
H   -3.1967441    0.0002094   -1.8949034  
C    0.8175213    0.6860729    2.3021913  
C    0.0000000    0.0000000    1.4700000  
C   -0.8887526   -0.7456559    2.3478473  
C   -0.4549825   -0.3816753    3.7138435  
N    0.5448156    0.4573574    3.6934124  
C   -1.0945674   -0.9182058    4.8835240  
C   -2.1210866   -1.7789155    4.6970523  
O   -2.8083856   -2.3554314    5.6976972  
C   -2.5824069   -2.1655116    3.3310774  
O   -3.5227682   -2.9541547    3.2362962  
C   -1.9100805   -1.6015804    2.1470656  
H   -0.7567140   -0.6349833    5.8697035  
H   -3.4728268   -2.9124471    5.2533954  
H   -2.2742832   -1.9066565    1.1752040  
H    1.6189533    1.3585343    2.0405121  
