58

C    2.8279729   -0.7071295   -3.3541666  
C    1.6707636   -0.0012343   -3.2725974  
C    1.5420221    0.7399978   -4.5050081  
C    2.7275721    0.4056552   -5.3170902  
N    3.4672606   -0.4755787   -4.5626515  
C    2.9773516    0.9038690   -6.5544654  
C    2.0143734    1.8314553   -7.1243702  
O    2.1493672    2.3348422   -8.2319256  
C    0.7517056    2.1998425   -6.2818935  
O   -0.0658613    2.9799880   -6.7511663  
C    0.5920510    1.5980567   -4.9604487  
H    3.8531181    0.6455752   -7.1334535  
H   -0.2850562    1.8581558   -4.3835990  
H    3.2676543   -1.3768500   -2.6330256  
C    5.1313056   -4.5385833   -4.0942716  
C    4.3364581   -3.4381442   -4.0578425  
C    5.0539878   -2.3782425   -4.7261197  
C    6.3412344   -2.9555432   -5.1579893  
N    6.3258245   -4.2675797   -4.7442123  
C    7.3045131   -2.2724274   -5.8266828  
C    7.0570420   -0.8753116   -6.1418974  
O    7.8624898   -0.1748525   -6.7409894  
C    5.7007132   -0.2432549   -5.6939229  
O    5.4812606    0.9322236   -5.9534452  
C    4.7405458   -1.0806249   -4.9792602  
H    3.3591189   -3.3759430   -3.6133746  
H    8.2417931   -2.7147916   -6.1344678  
H    4.9450233   -5.5246739   -3.7008078  
H    7.0671921   -4.9272573   -4.8933663  
C    1.0965514    0.0001358   -0.8010306  
C    0.0000000    0.0000000    0.0000000  
C   -1.1546565    0.0001470   -0.8669508  
C   -0.6372019    0.0003520   -2.2486278  
N    0.7342867    0.0007338   -2.1395012  
C   -1.4147744    0.0001354   -3.3608712  
C   -2.8576052   -0.0001047   -3.1854454  
O   -3.6427785   -0.0002490   -4.1244896  
C   -3.4275841   -0.0000727   -1.7311660  
O   -4.6406832    0.0000333   -1.5710049  
C   -2.4891868   -0.0001090   -0.6116739  
H   -1.0150456    0.0001617   -4.3654239  
H   -2.8919122   -0.0002919    0.3920871  
H    2.1388270    0.0000663   -0.5261650  
C    0.8400945    0.7047457    2.2710304  
C    0.0000000    0.0000000    1.4700000  
C   -0.8844236   -0.7423113    2.3369512  
C   -0.4878984   -0.4098547    3.7186280  
N    0.5629682    0.4714286    3.6095011  
C   -1.0836927   -0.9095027    4.8308716  
C   -2.1891196   -1.8367527    4.6554461  
O   -2.7906899   -2.3413415    5.5944904  
C   -2.6257283   -2.2031529    3.2011665  
O   -3.5549479   -2.9829990    3.0410059  
C   -1.9068976   -1.5999348    2.0816745  
H   -0.7774656   -0.6525820    5.8354244  
H   -2.2155208   -1.8586617    1.0779135  
H    1.6384792    1.3747609    1.9961646  
H    1.0518368    0.8833920    4.3830260  
