60

C    3.3041270    0.0001176   -1.5420433  
C    2.5845371   -0.0004780   -0.3695855  
C    1.2040008   -0.0000008   -0.7283591  
C    1.1422372    0.0006036   -2.1454374  
N    2.4348636    0.0026108   -2.6077465  
C   -0.0655187    0.0008797   -2.8497918  
C   -1.2321770    0.0002324   -2.1101398  
O   -2.4392825    0.0001147   -2.7472513  
C   -1.1911206   -0.0000008   -0.6955263  
O   -2.4371530   -0.0002319   -0.1032857  
C    0.0000000    0.0000000    0.0000000  
H    3.0031534   -0.0000661    0.6222579  
H    2.7054624   -0.0071100   -3.5745265  
H   -0.1193557    0.0014843   -3.9297471  
H   -3.1132993   -0.0000649   -2.0551778  
H   -2.3200284   -0.0004071    0.8516414  
C    6.5771493   -0.0035571    1.3345533  
C    7.6645483   -0.0027621    0.5288602  
C    7.1290977   -0.0009889   -0.8238370  
C    5.6614001   -0.0010504   -0.6437062  
N    5.3318745   -0.0024719    0.6193854  
C    4.7577217    0.0005128   -1.7610465  
C    5.2958116    0.0024560   -3.0019294  
O    4.5716623    0.0040579   -4.1340270  
C    6.7730248    0.0029427   -3.2164070  
O    7.1927145    0.0046215   -4.3735929  
C    7.6790893    0.0012688   -2.0540950  
H    8.7019024   -0.0032208    0.8169075  
H    5.2317433    0.0052549   -4.8505773  
H    8.7426324    0.0018005   -2.2518450  
C    9.8358574   -0.0081473    4.2273546  
C    9.1705901   -0.0090239    5.4059117  
C    7.7621302   -0.0081108    5.0415772  
C    7.7596654   -0.0065666    3.5628695  
N    8.9724071   -0.0066617    3.0799111  
C    6.5392967   -0.0053592    2.8040648  
C    5.3743453   -0.0060688    3.4912490  
O    4.1614977   -0.0050924    2.9124217  
C    5.3438992   -0.0079976    4.9836397  
O    4.2473861   -0.0084279    5.5429954  
C    6.6091909   -0.0091653    5.7392590  
H    9.5845153   -0.0102414    6.3997626  
H    3.5319297   -0.0059949    3.6559241  
H    6.5442688   -0.0106697    6.8190800  
H   10.9022348   -0.0084228    4.0666900  
C    2.4951002    2.0940188    2.9809380  
C    1.9440701    1.6314916    1.8291961  
C    0.8759964    0.7350050    2.2038498  
C    0.8497377    0.7130254    3.6788474  
N    1.8560616    1.5571714    4.0882609  
C   -0.0205033   -0.0168748    4.4215661  
C   -0.9962600   -0.8356168    3.7214979  
O   -1.8224391   -1.5286685    4.3006425  
C   -0.9864710   -0.8277881    2.1595606  
O   -1.8030528   -1.5133726    1.5592035  
C    0.0000000    0.0000000    1.4700000  
H    2.2509283    1.8888011    0.8310761  
H   -0.0229599   -0.0187323    5.5027230  
H    3.3143982    2.7817323    3.1139444  
H    2.0889452    1.7545833    5.0442112  
