62

C   -3.3041007    0.0133623   -1.5420424  
C   -2.5845140    0.0110222   -0.3695848  
C   -1.2039907    0.0049127   -0.7283589  
C   -1.1422316    0.0040563   -2.1454368  
N   -2.4348549    0.0073227   -2.6077461  
C    0.0655133   -0.0011470   -2.8497919  
C    1.2321649   -0.0052594   -2.1101400  
O    2.4392600   -0.0100663   -2.7472527  
C    1.1911103   -0.0048587   -0.6955268  
O    2.4371330   -0.0097109   -0.1032865  
C    0.0000000    0.0000000    0.0000000  
H   -3.0031281    0.0123181    0.6222588  
H   -2.7054122    0.0181474   -3.5745255  
H    0.1193471   -0.0019713   -3.9297468  
H    3.1132732   -0.0126366   -2.0551793  
H    2.3200112   -0.0090580    0.8516404  
C   -6.7747393    0.0313099    1.2764688  
C   -5.5081714    0.0260265    0.7395840  
C   -5.6572754    0.0240909   -0.6789945  
C   -7.0493304    0.0286965   -0.9511861  
N   -7.6990533    0.0310605    0.2581411  
C   -7.5658955    0.0286148   -2.2503969  
C   -6.6606986    0.0241030   -3.2938409  
O   -7.1108670    0.0241633   -4.5823914  
C   -5.2679974    0.0190931   -3.0424922  
O   -4.4967428    0.0145586   -4.1863842  
C   -4.7576851    0.0188974   -1.7610452  
H   -4.5897688    0.0227317    1.3012947  
H   -8.6953102    0.0449721    0.3816733  
H   -8.6257730    0.0319672   -2.4645253  
H   -6.3261101    0.0203651   -5.1457800  
H   -3.5699274    0.0113765   -3.9283012  
C   -4.7183884    0.0335512    5.2306891  
C   -4.9270113    0.0311503    3.8935090  
C   -6.3736627    0.0341973    3.7395929  
C   -6.8956607    0.0382938    5.1230972  
N   -5.9300226    0.0380155    6.0014663  
C   -8.3048569    0.0422069    5.4045900  
C   -9.1539773    0.0424240    4.3518175  
O  -10.4928785    0.0458682    4.4674585  
C   -8.6579798    0.0387199    2.9439351  
O   -9.4879541    0.0390202    2.0348900  
C   -7.2078470    0.0346974    2.6812131  
H   -4.1902039    0.0278237    3.1085384  
H   -8.6583380    0.0449478    6.4253508  
H  -10.8209783    0.0450862    3.5501235  
H   -3.7765066    0.0324921    5.7558855  
C    0.8400945    0.7047457    2.2710304  
C    0.0000000    0.0000000    1.4700000  
C   -0.8844236   -0.7423113    2.3369512  
C   -0.4878984   -0.4098547    3.7186280  
N    0.5629682    0.4714286    3.6095011  
C   -1.0836927   -0.9095027    4.8308716  
C   -2.1891196   -1.8367527    4.6554461  
O   -2.7906899   -2.3413415    5.5944904  
C   -2.6257283   -2.2031529    3.2011665  
O   -3.5549479   -2.9829990    3.0410059  
C   -1.9068976   -1.5999348    2.0816745  
H   -0.7774656   -0.6525820    5.8354244  
H   -2.2155208   -1.8586617    1.0779135  
H    1.6384792    1.3747609    1.9961646  
H    1.0518368    0.8833920    4.3830260  
