58

C    3.2798087    0.0005848   -1.4499654  
C    2.5571146    0.0005558   -2.5996556  
C    1.1637437    0.0001542   -2.2210367  
C    1.1336967   -0.0000204   -0.7459475  
N    2.4483516   -0.0001432   -0.3402725  
C    0.0000000    0.0000000    0.0000000  
C   -1.2757367   -0.0000191   -0.6964423  
O   -2.3524593   -0.0000640   -0.1142321  
C   -1.2676494   -0.0000877   -2.2584086  
O   -2.3355759   -0.0004105   -2.8557301  
C    0.0181563    0.0001752   -2.9516303  
H    2.9547356    0.0006065   -3.5989110  
H    4.3498551    0.0008604   -1.3200026  
H    2.7563628    0.0012820    0.6148059  
C    2.4107292   -2.0068255   -6.1315649  
C    1.9593059   -1.6260421   -4.9138619  
C    0.8629756   -0.7103798   -5.1897639  
C    0.7884491   -0.6520953   -6.6654440  
N    1.6932089   -1.4100741   -7.2229985  
C   -0.1832710    0.1582441   -7.3467641  
C   -1.0417745    0.8773559   -6.5883552  
O   -1.9989204    1.6759470   -7.0905160  
C   -0.9920202    0.8393223   -5.0969669  
O   -1.8042913    1.5196548   -4.4704018  
C    0.0139740    0.0003870   -4.4216245  
H    2.3250484   -1.9291670   -3.9477234  
H   -0.2148871    0.1820077   -8.4262757  
H   -2.4446797    2.0502022   -6.3092447  
C    4.3104832   -3.5934132   -5.5722830  
C    3.5129285   -2.9290541   -6.4406797  
C    3.9823524   -3.3252501   -7.7594551  
C    5.0986881   -4.2576881   -7.4931126  
N    5.2956568   -4.4188563   -6.2127932  
C    5.8398245   -4.8803469   -8.5552328  
C    5.4817584   -4.5852283   -9.8256775  
O    6.0859995   -5.0935745  -10.9131132  
C    4.3593943   -3.6483497  -10.1268680  
O    4.0884632   -3.4255882  -11.3067806  
C    3.6144937   -3.0223463   -9.0199950  
H    6.6511115   -5.5576309   -8.3316048  
H    5.6115572   -4.6996019  -11.6673294  
H    2.8082475   -2.3496340   -9.2800990  
H    4.2844851   -3.5686416   -4.4944688  
C    2.5128556    2.1077716    2.9199648  
C    1.9592212    1.6432552    4.0696553  
C    0.8915788    0.7479214    3.6910360  
C    0.8684491    0.7287414    2.2159470  
N    1.8754542    1.5738793    1.8102719  
C    0.0000000    0.0000000    1.4700000  
C   -0.9772830   -0.8200135    2.1664417  
O   -1.8021297   -1.5120829    1.5842315  
C   -0.9711318   -0.8147624    3.7284083  
O   -1.7894187   -1.5009653    4.3257297  
C    0.0140216    0.0115358    4.4216297  
H    2.2638494    1.8988021    5.0689105  
H    0.0117648    0.0094386    5.5031631  
H    3.3327358    2.7953732    2.7900019  
H    2.1123206    1.7707734    0.8551938  
