58

C   -0.0224502    0.0204229   -8.8430954  
C    0.7807227   -0.6555526   -9.7045158  
C    0.3572785   -0.3034691  -11.0392701  
C   -0.7664652    0.6398235  -10.8837386  
N   -0.9468873    0.7939426   -9.5285319  
C   -1.4434603    1.2059090  -11.9147228  
C   -1.0384319    0.8630902  -13.2678530  
O   -1.5855274    1.3201368  -14.2628892  
C    0.1490251   -0.1340655  -13.4560862  
O    0.4987636   -0.4304158  -14.5906000  
C    0.8009388   -0.6783988  -12.2675744  
H    1.5786210   -1.3246232   -9.4355999  
H   -2.2648800    1.8956382  -11.7788783  
H    1.6224417   -1.3680009  -12.4065185  
H   -1.6416391    1.3798244   -9.1029615  
C    2.5049804   -2.0931563   -5.9399565  
C    1.9571818   -1.6308520   -4.7865848  
C    0.8879545   -0.7344212   -5.1580690  
C    0.8574975   -0.7122317   -6.6329831  
N    1.8627392   -1.5562152   -7.0453796  
C   -0.0149278    0.0176859   -7.3731171  
C   -0.9887730    0.8362264   -6.6701578  
O   -1.8166674    1.5292765   -7.2468494  
C   -0.9745396    0.8281736   -5.1082557  
O   -1.7894805    1.5135873   -4.5054785  
C    0.0139741    0.0003876   -4.4216236  
H    2.2669048   -1.8882737   -3.7893789  
H    3.3239674   -2.7807663   -6.0753927  
H    2.0929225   -1.7534652   -8.0020166  
C    3.2798085    0.0005853   -1.4499648  
C    2.5571144    0.0005562   -2.5996554  
C    1.1637436    0.0001546   -2.2210360  
C    1.1336965   -0.0000201   -0.7459470  
N    2.4483513   -0.0001430   -0.3402717  
C    0.0000000    0.0000000    0.0000000  
C   -1.2757367   -0.0000188   -0.6964414  
O   -2.3524597   -0.0000640   -0.1142313  
C   -1.2676494   -0.0000875   -2.2584081  
O   -2.3355762   -0.0004102   -2.8557294  
C    0.0181562    0.0001757   -2.9516296  
H    2.9547357    0.0006072   -3.5989105  
H    4.3498550    0.0008609   -1.3200021  
H    2.7563627    0.0012824    0.6148063  
C    2.3971438    2.0127888    3.1728260  
C    1.9431056    1.6308205    1.9564670  
C    0.8496017    0.7127664    2.2356185  
C    0.7794028    0.6545384    3.7115134  
N    1.6840587    1.4146091    4.2663826  
C   -0.1885723   -0.1578550    4.3957118  
C   -1.0476298   -0.8789867    3.6398520  
O   -2.0015663   -1.6796266    4.1448486  
C   -1.0022026   -0.8410666    2.1483229  
O   -1.8147390   -1.5232959    1.5241687  
C    0.0000000    0.0000000    1.4700000  
H    2.3054237    1.9346118    0.9892483  
H   -0.2170646   -0.1815267    5.4753125  
H   -2.4487139   -2.0549881    3.3649027  
H    3.2048689    2.6911772    3.3971983  
