58

C   -4.7390831   -0.0017692   -1.2727316  
C   -5.7159767   -0.0026886   -2.2159989  
C   -6.9782040   -0.0029322   -1.5148440  
C   -6.6542730   -0.0020439   -0.0754491  
N   -5.2807301   -0.0017650    0.0037314  
C   -7.5764452   -0.0015790    0.9201930  
C   -8.9818047   -0.0022063    0.5493835  
O   -9.8878550   -0.0019202    1.3724109  
C   -9.3478536   -0.0034026   -0.9691062  
O  -10.5277173   -0.0042452   -1.2934223  
C   -8.2653734   -0.0035336   -1.9499675  
H   -5.5691159   -0.0033265   -3.2813835  
H   -8.5272566   -0.0041592   -2.9993196  
H   -4.7530489    0.0003755    0.8573095  
C   -3.2798069   -0.0011447   -1.4499674  
C   -2.5571117   -0.0009924   -2.5996573  
C   -1.1637412   -0.0003531   -2.2210371  
C   -1.1336957   -0.0001732   -0.7459479  
N   -2.4483507   -0.0002745   -0.3402739  
C    0.0000000    0.0000000    0.0000000  
C    1.2757377    0.0002363   -0.6964406  
O    2.3524595    0.0004651   -0.1142296  
C    1.2676511    0.0003036   -2.2584073  
O    2.3355789    0.0008085   -2.8557276  
C   -0.0181539   -0.0001788   -2.9516295  
H   -2.9547325   -0.0011111   -3.5989132  
H   -0.0150757   -0.0003342   -4.0331633  
H   -2.7563623   -0.0017523    0.6148041  
C   -7.2245590   -0.0005172    2.3474543  
C   -5.9961216    0.0003606    2.9262598  
C   -6.2039823    0.0011549    4.3551154  
C   -7.6646877    0.0006352    4.5627927  
N   -8.2259097    0.0000221    3.3066400  
C   -8.2685054    0.0007247    5.7781563  
C   -7.4233312    0.0016027    6.9606175  
O   -7.8714747    0.0018126    8.0996818  
C   -5.8737338    0.0024165    6.7642649  
O   -5.1520122    0.0034655    7.7523831  
C   -5.3405972    0.0019558    5.4042588  
H   -5.0520965    0.0006247    2.4110604  
H   -9.3417790    0.0002066    5.9085107  
H   -4.2665824    0.0023195    5.2769146  
H   -9.2111561   -0.0019878    3.1160284  
C    0.0000000    0.0000000    1.4700000  
C    1.0662921    0.0000102    2.3034270  
C    0.4961870   -0.0000064    3.6418889  
C   -0.9663858    0.0000850    3.4240247  
N   -1.2632773    0.0000084    2.1528658  
C   -1.8985362    0.0000517    4.5177257  
C   -1.3925775   -0.0004564    5.7720543  
O   -2.1456383   -0.0005410    6.8851312  
C    0.0786232   -0.0009323    6.0245000  
O    0.4683759   -0.0012588    7.1921102  
C    1.0143166   -0.0008442    4.8859032  
H    2.1107198   -0.0000632    2.0421868  
H   -2.9622183    0.0003270    4.3293377  
H   -1.5042274   -0.0009692    7.6184419  
H    2.0724152   -0.0013148    5.1109744  
