62

C   -3.3040701    0.0193704   -1.5420434  
C   -2.5844890    0.0157219   -0.3695854  
C   -1.2039796    0.0071021   -0.7283590  
C   -1.1422210    0.0061332   -2.1454375  
N   -2.4348367    0.0117501   -2.6077468  
C    0.0655123   -0.0012665   -2.8497919  
C    1.2321540   -0.0075002   -2.1101397  
O    2.4392393   -0.0145023   -2.7472518  
C    1.1910997   -0.0070247   -0.6955264  
O    2.4371116   -0.0141429   -0.1032860  
C    0.0000000    0.0000000    0.0000000  
H   -3.0031007    0.0177791    0.6222579  
H   -2.7053735    0.0230667   -3.5745263  
H    0.1193443   -0.0021886   -3.9297471  
H    3.1132457   -0.0182981   -2.0551780  
H    2.3199910   -0.0132769    0.8516412  
C   -5.7157637    0.0332964   -0.7739106  
C   -4.7576421    0.0275487   -1.7610464  
C   -5.4466114    0.0293419   -3.0100136  
C   -6.8349444    0.0365958   -2.7194898  
N   -6.9633016    0.0368824   -1.3526899  
C   -7.8160387    0.0404679   -3.7155965  
C   -7.3878158    0.0372602   -5.0289100  
O   -8.3035933    0.0411536   -6.0410119  
C   -6.0069925    0.0296528   -5.3388883  
O   -5.7412296    0.0268613   -6.6926633  
C   -5.0385670    0.0255562   -4.3567166  
H   -8.8757610    0.0458536   -3.5007448  
H   -7.7996672    0.0376401   -6.8652155  
H   -4.7870058    0.0217254   -6.8152787  
H   -3.9884979    0.0195561   -4.6246668  
H   -5.6079629    0.0336760    0.2972277  
C   -8.4876638    2.0933736    2.2958177  
C   -7.6658016    1.6939226    1.2975385  
C   -8.4661659    0.7817578    0.4951221  
C   -9.7806372    0.7457163    1.1714720  
N   -9.7992677    1.5126689    2.2276096  
C  -10.8677909   -0.0549259    0.6793779  
C  -10.6517351   -0.7860174   -0.4378331  
O  -11.5764683   -1.5776085   -1.0073001  
C   -9.3363645   -0.7704788   -1.1433261  
O   -9.2106520   -1.4607708   -2.1547184  
C   -8.2368205    0.0588707   -0.6188197  
H   -6.6428074    1.9826784    1.1267203  
H  -11.8176407   -0.0624042    1.1938082  
H  -11.1291580   -1.9639358   -1.7817787  
H   -8.2694842    2.7738522    3.1034808  
C    2.4951002    2.0940188    2.9809380  
C    1.9440701    1.6314916    1.8291961  
C    0.8759964    0.7350050    2.2038498  
C    0.8497377    0.7130254    3.6788474  
N    1.8560616    1.5571714    4.0882609  
C   -0.0205033   -0.0168748    4.4215661  
C   -0.9962600   -0.8356168    3.7214979  
O   -1.8224391   -1.5286685    4.3006425  
C   -0.9864710   -0.8277881    2.1595606  
O   -1.8030528   -1.5133726    1.5592035  
C    0.0000000    0.0000000    1.4700000  
H    2.2509283    1.8888011    0.8310761  
H   -0.0229599   -0.0187323    5.5027230  
H    3.3143982    2.7817323    3.1139444  
H    2.0889452    1.7545833    5.0442112  
