62

C   -1.1180135   -0.0436310   -0.8003807  
C    0.0000000    0.0000000    0.0000000  
C    1.1315913    0.0424375   -0.8673523  
C    0.6378742    0.0224545   -2.1969275  
N   -0.7317178   -0.0318680   -2.1202239  
C    1.4761149    0.0537859   -3.3154807  
C    2.8375494    0.1065525   -3.0876854  
O    3.7013018    0.1392769   -4.1440340  
C    3.3493858    0.1268524   -1.7684323  
O    4.7266338    0.1797431   -1.7073115  
C    2.5230409    0.0956930   -0.6644807  
H    1.1060887    0.0386502   -4.3313807  
H    4.5907234    0.1735922   -3.7685116  
H    4.9898317    0.1903315   -0.7819909  
H    2.9441224    0.1121683    0.3339668  
H   -2.1603703   -0.0836557   -0.5342067  
C   -1.6470194   -0.0530462   -3.2702999  
C   -3.0039752   -0.1037387   -3.2835865  
C   -3.4117310   -0.1032567   -4.6687112  
C   -2.1722102   -0.0477590   -5.4670213  
N   -1.1382938   -0.0189413   -4.5597863  
C   -2.1313287   -0.0311996   -6.8233984  
C   -3.3922984   -0.0704447   -7.5451667  
O   -3.4609091   -0.0594144   -8.7672433  
C   -4.7172631   -0.1291993   -6.7200472  
O   -5.7850311   -0.1622850   -7.3167359  
C   -4.6335813   -0.1425034   -5.2617358  
H   -3.6460173   -0.1374223   -2.4214607  
H   -1.2112846    0.0095736   -7.3897607  
H   -0.1641342    0.0187914   -4.7977707  
C   -5.8866964   -0.1981948   -4.4952495  
C   -6.0935727   -0.2200808   -3.1354002  
C   -7.5039668   -0.2753616   -2.9296520  
C   -8.1114825   -0.2852620   -4.2113509  
N   -7.1011623   -0.2356129   -5.1394701  
C   -9.4970832   -0.3359979   -4.3911469  
C  -10.2837178   -0.3778021   -3.2564066  
O  -11.6425763   -0.4285218   -3.3745020  
C   -9.6962376   -0.3683504   -1.9689307  
O  -10.6132417   -0.4136693   -0.9391762  
C   -8.3293924   -0.3180355   -1.7908040  
H   -5.3227972   -0.1977134   -2.3841353  
H   -7.2273298   -0.2403265   -6.1354828  
H   -9.9663057   -0.3436625   -5.3652994  
H  -11.9941736   -0.4509654   -2.4749796  
H  -10.1343520   -0.4038283   -0.1048073  
H   -7.9082884   -0.3118395   -0.7922489  
C    2.5128556    2.1077716    2.9199648  
C    1.9592212    1.6432552    4.0696553  
C    0.8915788    0.7479214    3.6910360  
C    0.8684491    0.7287414    2.2159470  
N    1.8754542    1.5738793    1.8102719  
C    0.0000000    0.0000000    1.4700000  
C   -0.9772830   -0.8200135    2.1664417  
O   -1.8021297   -1.5120829    1.5842315  
C   -0.9711318   -0.8147624    3.7284083  
O   -1.7894187   -1.5009653    4.3257297  
C    0.0140216    0.0115358    4.4216297  
H    2.2638494    1.8988021    5.0689105  
H    0.0117648    0.0094386    5.5031631  
H    3.3327358    2.7953732    2.7900019  
H    2.1123206    1.7707734    0.8551938  
