58

C    3.8739273    0.7034839   -7.7830193  
C    4.9133809   -0.0003960   -7.2651735  
C    5.5039046   -0.7418575   -8.3543717  
C    4.7176606   -0.4098463   -9.5578574  
N    3.7447167    0.4703941   -9.1437957  
C    4.9598734   -0.9089408  -10.7963816  
C    6.0688207   -1.8350830  -10.9545984  
O    6.3675765   -2.3391069  -12.0293112  
C    6.9147885   -2.2009956   -9.6935470  
O    7.8507084   -2.9799101   -9.8144088  
C    6.5570342   -1.5984531   -8.4118274  
H    4.3710805   -0.6523615  -11.6660939  
H    7.1478846   -1.8568364   -7.5435774  
H    3.1912869    1.3727134   -7.2849998  
H    3.0492892    0.8818424   -9.7388916  
C    2.5562217   -0.0001551   -3.6003001  
C    3.5148525   -0.0005087   -2.6449957  
C    4.7727386   -0.0006025   -3.3759008  
C    4.3760685   -0.0003758   -4.8004136  
N    3.0779897   -0.0000323   -4.9381841  
C    5.3463906   -0.0003429   -5.8603952  
C    6.6535653   -0.0001393   -5.5130783  
O    7.6652140   -0.0000931   -6.3977299  
C    7.0856175    0.0000110   -4.0842706  
O    8.2923979    0.0000700   -3.8415710  
C    6.0711795   -0.0000700   -3.0152331  
H    3.3844835   -0.0005937   -1.5763148  
H    8.4720652    0.0000902   -5.8517059  
H    6.4250928    0.0001594   -1.9929925  
C    0.0000000    0.0000000    0.0000000  
C    1.0541688   -0.0001722   -0.8560390  
C    0.5103141   -0.0000453   -2.1935955  
C   -0.9576367    0.0002460   -2.0455731  
N   -1.2018459   -0.0001392   -0.6915969  
C   -1.8348307    0.0008318   -3.0810611  
C   -1.2972843    0.0009738   -4.4314606  
O   -2.0050665    0.0014267   -5.4301321  
C    0.2542628    0.0004186   -4.6117570  
O    0.7184676    0.0002258   -5.7439117  
C    1.0974555    0.0000874   -3.4189127  
H    2.0940752   -0.0005483   -0.5817978  
H   -2.9081051    0.0011670   -2.9507061  
H   -2.1128194    0.0014912   -0.2706792  
C    1.1319247   -0.0015655    2.2709268  
C    0.7969915   -0.0034943    3.5869401  
C   -0.6453339   -0.0035710    3.6542670  
C   -1.1266833   -0.0015433    2.2596025  
N    0.0000000    0.0000000    1.4700000  
C   -2.4346130   -0.0013964    1.8976294  
C   -3.4350110   -0.0031408    2.9520183  
O   -4.6384611   -0.0030974    2.7283916  
C   -2.9478959   -0.0050506    4.4361073  
O   -3.7809380   -0.0062218    5.3323774  
C   -1.5113823   -0.0053090    4.7012123  
H    1.4821238   -0.0045407    4.4159191  
H   -2.7664565   -0.0000232    0.8686553  
H   -1.1823530   -0.0068408    5.7314848  
H    2.1104316   -0.0009391    1.8188057  
