58

C   -0.0984236    0.7379600   -7.2865937  
C   -1.0687759    0.5230648   -8.2119653  
C   -0.5294937   -0.4022465   -9.1803705  
C    0.8444214   -0.7110505   -8.7401580  
N    1.0442345    0.0120828   -7.5868831  
C    1.6897175   -1.5504450   -9.3902321  
C    1.2147009   -2.1924201  -10.6046309  
O    1.9003004   -2.9647113  -11.2617619  
C   -0.2368516   -1.8797270  -11.0894229  
O   -0.6476879   -2.4140705  -12.1106717  
C   -1.0537565   -0.9580327  -10.3039308  
H   -2.0502506    0.9627305   -8.2158362  
H    2.6937160   -1.7634292   -9.0503272  
H   -2.0577390   -0.7469743  -10.6462698  
H   -0.1218590    1.3657020   -6.4106480  
C    1.7334697    0.0049246   -3.2500361  
C    3.0913864    0.0046109   -3.2383151  
C    3.5242787    0.0065419   -4.6157896  
C    2.2984620    0.0080464   -5.4368631  
N    1.2476583    0.0065696   -4.5487757  
C    2.2819760    0.0104505   -6.7938550  
C    3.5566099    0.0114097   -7.4923122  
O    3.6472547    0.0134886   -8.7130007  
C    4.8674242    0.0095955   -6.6428609  
O    5.9464907    0.0100754   -7.2198161  
C    4.7574562    0.0073243   -5.1862365  
H    3.7182532    0.0030068   -2.3644448  
H    5.6697682    0.0062836   -4.6053670  
H    0.2773174    0.0086325   -4.8046684  
C    1.1319247    0.0015655   -0.8009267  
C    0.7969916    0.0034943   -2.1169401  
C   -0.6453337    0.0035710   -2.1842668  
C   -1.1266832    0.0015433   -0.7896026  
N    0.0000000    0.0000000    0.0000000  
C   -2.4346130    0.0013964   -0.4276294  
C   -3.4350109    0.0031408   -1.4820183  
O   -4.6384610    0.0030973   -1.2583915  
C   -2.9478956    0.0050505   -2.9661075  
O   -3.7809378    0.0062218   -3.8623775  
C   -1.5113821    0.0053090   -3.2312122  
H   -2.7664565    0.0000232    0.6013446  
H   -1.1823527    0.0068407   -4.2614846  
H    2.1104317    0.0009391   -0.3488056  
C    0.0000000    0.0000000    1.4700000  
C    1.0662921    0.0000102    2.3034270  
C    0.4961870   -0.0000064    3.6418889  
C   -0.9663858    0.0000850    3.4240247  
N   -1.2632773    0.0000084    2.1528658  
C   -1.8985362    0.0000517    4.5177257  
C   -1.3925775   -0.0004564    5.7720543  
O   -2.1456383   -0.0005410    6.8851312  
C    0.0786232   -0.0009323    6.0245000  
O    0.4683759   -0.0012588    7.1921102  
C    1.0143166   -0.0008442    4.8859032  
H    2.1107198   -0.0000632    2.0421868  
H   -2.9622183    0.0003270    4.3293377  
H   -1.5042274   -0.0009692    7.6184419  
H    2.0724152   -0.0013148    5.1109744  
