58

C   -3.2798089    0.0016579   -1.4499641  
C   -2.5571155    0.0011927   -2.5996549  
C   -1.1637440    0.0006414   -2.2210358  
C   -1.1336964    0.0007955   -0.7459466  
N   -2.4483508    0.0018177   -0.3402713  
C    0.0000000    0.0000000    0.0000000  
C    1.2757365   -0.0008538   -0.6964419  
O    2.3524585   -0.0015451   -0.1142321  
C    1.2676485   -0.0007796   -2.2584084  
O    2.3355748   -0.0011872   -2.8557301  
C   -0.0181574   -0.0001633   -2.9516296  
H   -2.9547358    0.0014138   -3.5989097  
H   -0.0150804   -0.0003213   -4.0331626  
H   -2.7563631    0.0006030    0.6148069  
C   -6.4690095    0.0024495   -4.4192220  
C   -7.5790620    0.0026612   -3.6450370  
C   -7.0826152    0.0026685   -2.2775427  
C   -5.6103560    0.0023294   -2.4155185  
N   -5.2447516    0.0022804   -3.6686438  
C   -4.7390850    0.0022803   -1.2727270  
C   -5.3125310    0.0029464   -0.0477806  
O   -4.6211383    0.0029785    1.1046155  
C   -6.7952862    0.0036736    0.1242559  
O   -7.2479816    0.0041343    1.2689334  
C   -7.6676533    0.0036657   -1.0635576  
H   -5.3014924    0.0035545    1.8019464  
H   -8.7364289    0.0043198   -0.8963814  
H   -6.4103425    0.0023834   -5.4960378  
C   -9.9037624   -2.0097066   -6.8715809  
C   -8.8754448   -1.6279466   -6.0788625  
C   -9.4646155   -0.7097239   -5.1164462  
C  -10.8954980   -0.6511805   -5.4848646  
N  -11.1589010   -1.4112265   -6.5129395  
C  -11.8346655    0.1614535   -4.7619008  
C  -11.3657750    0.8825140   -3.7180868  
O  -12.1295796    1.6833556   -2.9556593  
C   -9.9272587    0.8442777   -3.3213873  
O   -9.5704915    1.5264586   -2.3608838  
C   -8.9836123    0.0029683   -4.0787873  
H   -7.8444518   -1.9319765   -6.1396430  
H  -12.8746006    0.1853536   -5.0532339  
H  -11.5162124    2.0585994   -2.2982961  
H   -9.8799661   -2.6881296   -7.7095243  
C    2.4951002    2.0940188    2.9809380  
C    1.9440701    1.6314916    1.8291961  
C    0.8759964    0.7350050    2.2038498  
C    0.8497377    0.7130254    3.6788474  
N    1.8560616    1.5571714    4.0882609  
C   -0.0205033   -0.0168748    4.4215661  
C   -0.9962600   -0.8356168    3.7214979  
O   -1.8224391   -1.5286685    4.3006425  
C   -0.9864710   -0.8277881    2.1595606  
O   -1.8030528   -1.5133726    1.5592035  
C    0.0000000    0.0000000    1.4700000  
H    2.2509283    1.8888011    0.8310761  
H   -0.0229599   -0.0187323    5.5027230  
H    3.3143982    2.7817323    3.1139444  
H    2.0889452    1.7545833    5.0442112  
