60

C    1.1243410    0.0100057   -0.7919012  
C    0.7474071    0.0234632   -2.1148552  
C   -0.6787388    0.0234405   -2.1414702  
C   -1.1201747    0.0098455   -0.7935550  
N    0.0000000    0.0000000    0.0000000  
C   -2.4730818    0.0063410   -0.4408242  
C   -3.3971964    0.0170568   -1.4675057  
O   -4.7313521    0.0145688   -1.1793464  
C   -2.9763659    0.0303145   -2.8186321  
O   -4.0166488    0.0394632   -3.7247622  
C   -1.6418573    0.0335061   -3.1673482  
H    1.4178706    0.0311140   -2.9571214  
H   -2.8160165   -0.0041450    0.5845965  
H   -5.1938826    0.0230239   -2.0274378  
H   -3.6464684    0.0481850   -4.6127340  
H    2.1062463    0.0053072   -0.3505414  
C    1.5648391   -2.0538328   -5.3222158  
C    1.3416268   -1.5771671   -6.5740310  
C    0.2115315   -0.6825096   -6.4885404  
C   -0.2083348   -0.6769667   -5.0741601  
N    0.6519736   -1.5285503   -4.4202761  
C   -1.2456343    0.0471574   -4.5828768  
C   -1.9989504    0.8762378   -5.5089848  
O   -2.9501312    1.5650944   -5.1639735  
C   -1.5720157    0.8854755   -7.0114647  
O   -2.1989497    1.5794022   -7.8005663  
C   -0.4365522    0.0629949   -7.4214654  
H   -0.1472093    0.0751417   -8.4635098  
H    2.3192788   -2.7448219   -4.9827391  
H    0.6226237   -1.7349441   -3.4386515  
C    2.1107137   -1.9148867   -7.7804105  
C    3.1760341   -2.7467448   -7.9114794  
C    3.5573029   -2.7263070   -9.3039773  
C    2.6200790   -1.8077453   -9.9782517  
N    1.7683927   -1.3498578   -8.9995489  
C    2.6483149   -1.5167466  -11.3034786  
C    3.6698237   -2.1507128  -12.1202667  
O    3.7779609   -1.9534156  -13.3234620  
C    4.6727425   -3.1272514  -11.4272072  
O    5.5368958   -3.6671507  -12.1047097  
C    4.5424180   -3.3614207   -9.9912294  
H    3.6415237   -3.3104947   -7.1227340  
H    1.9515724   -0.8399741  -11.7782820  
H    5.2408788   -4.0387849   -9.5189428  
H    1.0155120   -0.7031147   -9.1476766  
C    0.0000000    0.0000000    1.4700000  
C    1.0541688    0.0001722    2.3260392  
C    0.5103138    0.0000454    3.6635956  
C   -0.9576371   -0.0002459    3.5155732  
N   -1.2018458    0.0001392    2.1615969  
C   -1.8348311   -0.0008317    4.5510609  
C   -1.2972847   -0.0009736    5.9014604  
O   -2.0050672   -0.0014265    6.9001319  
C    0.2542623   -0.0004184    6.0817573  
O    0.7184670   -0.0002256    7.2139121  
C    1.0974552   -0.0000873    4.8889129  
H    2.0940752    0.0005483    2.0517982  
H   -2.9081052   -0.0011668    4.4207061  
H    2.1707277    0.0000911    5.0223670  
H   -2.1128194   -0.0014912    1.7406791  
