60

C    3.3041274    0.0001175   -1.5420432  
C    2.5845371   -0.0004779   -0.3695850  
C    1.2040006   -0.0000009   -0.7283590  
C    1.1422375    0.0006034   -2.1454377  
N    2.4348639    0.0026105   -2.6077467  
C   -0.0655182    0.0008793   -2.8497919  
C   -1.2321770    0.0002321   -2.1101397  
O   -2.4392816    0.0001141   -2.7472520  
C   -1.1911208   -0.0000009   -0.6955263  
O   -2.4371531   -0.0002320   -0.1032852  
C    0.0000000    0.0000000    0.0000000  
H    3.0031535   -0.0000660    0.6222585  
H   -0.1193549    0.0014838   -3.9297470  
H   -3.1132993   -0.0000652   -2.0551786  
H   -2.3200280   -0.0004070    0.8516415  
H    4.3686623    0.0004069   -1.7024293  
C    5.6587027   -2.1482572   -4.5997633  
C    5.5107200   -1.7555988   -5.8864254  
C    4.3729215   -0.8490962   -5.8734398  
C    3.9446799   -0.8087292   -4.4586734  
N    4.6947113   -1.5682539   -3.7072984  
C    2.8310662   -0.0116225   -4.0232751  
C    2.1753243    0.7125519   -4.9586407  
O    1.1191532    1.5001777   -4.6937097  
C    2.5836171    0.6930789   -6.3942863  
O    1.9410867    1.3768917   -7.1910142  
C    3.7292179   -0.1325933   -6.8159362  
H    6.1008491   -2.0452553   -6.7390230  
H    0.8721710    1.8818760   -5.5553698  
H    6.3942974   -2.8231069   -4.1917795  
C    4.4808950   -1.1539331   -9.0138826  
C    4.0880272   -0.1144907   -8.2413581  
C    4.0959071    1.0373205   -9.1300477  
C    4.5300319    0.4972192  -10.4363442  
N    4.7570950   -0.7867582  -10.3744234  
C    4.6669612    1.3326786  -11.5975256  
C    4.3827333    2.6478417  -11.4600669  
O    4.4672940    3.5424401  -12.4593582  
C    3.9419084    3.2229288  -10.1550343  
O    3.7002041    4.4287781  -10.1028173  
C    3.8091268    2.3453115   -8.9785642  
H    4.9862782    0.9112592  -12.5395192  
H    4.2042704    4.3896508  -12.0566110  
H    3.4870296    2.8005399   -8.0516063  
H    4.6030952   -2.1861037   -8.7263673  
C    2.4951002    2.0940188    2.9809380  
C    1.9440701    1.6314916    1.8291961  
C    0.8759964    0.7350050    2.2038498  
C    0.8497377    0.7130254    3.6788474  
N    1.8560616    1.5571714    4.0882609  
C   -0.0205033   -0.0168748    4.4215661  
C   -0.9962600   -0.8356168    3.7214979  
O   -1.8224391   -1.5286685    4.3006425  
C   -0.9864710   -0.8277881    2.1595606  
O   -1.8030528   -1.5133726    1.5592035  
C    0.0000000    0.0000000    1.4700000  
H    2.2509283    1.8888011    0.8310761  
H   -0.0229599   -0.0187323    5.5027230  
H    3.3143982    2.7817323    3.1139444  
H    2.0889452    1.7545833    5.0442112  
