60

C    3.3003541    0.0005278   -1.4738992  
C    2.5232807    0.0003501   -2.6090758  
C    1.1623196   -0.0001317   -2.1820111  
C    1.1711881    0.0000584   -0.7636150  
N    2.4852298   -0.0014917   -0.3662363  
C    0.0000000    0.0000000    0.0000000  
C   -1.2020384    0.0000521   -0.6806482  
O   -2.3759252    0.0003495    0.0157742  
C   -1.2314661   -0.0005110   -2.0955511  
O   -2.5054392   -0.0008035   -2.6250185  
C   -0.0764520   -0.0007270   -2.8495199  
H    2.8919952   -0.0005616   -3.6205308  
H    2.8036261    0.0088182    0.5858646  
H   -3.0835642    0.0000348   -0.6418824  
H   -2.4360052   -0.0011524   -3.5845926  
H    4.3715545    0.0004897   -1.3667141  
C   -0.1496419   -0.0015608   -4.3176963  
C    0.8738319   -0.0018367   -5.2031795  
C    0.2377931   -0.0026901   -6.5115962  
C   -1.2121183   -0.0029421   -6.2211815  
N   -1.4453517   -0.0022021   -4.9368177  
C   -2.1975670   -0.0037104   -7.2671149  
C   -1.7546879   -0.0038155   -8.5450795  
O   -2.5622338   -0.0045086   -9.6192818  
C   -0.2978811   -0.0031970   -8.8704626  
O    0.0332540   -0.0034571  -10.0560298  
C    0.6933416   -0.0024574   -7.7798652  
H    1.9299717   -0.0014121   -4.9942646  
H   -1.9581294   -0.0043718  -10.3836183  
H    1.7389215   -0.0019088   -8.0573394  
C   -4.7561374    2.0088493   -4.2228147  
C   -3.6716488    1.6271382   -4.9367898  
C   -4.1874479    0.7085890   -5.9401435  
C   -5.6417525    0.6498230   -5.6791279  
N   -5.9810183    1.4100304   -4.6736563  
C   -6.5244054   -0.1631604   -6.4697404  
C   -5.9790582   -0.8843423   -7.4756373  
O   -6.6839018   -1.6855048   -8.2925665  
C   -4.5150345   -0.8458878   -7.7642836  
O   -4.0877027   -1.5281960   -8.6954459  
C   -3.6304810   -0.0042208   -6.9390033  
H   -2.6480878    1.9313972   -4.7995851  
H   -7.5831191   -0.1872173   -6.2565345  
H   -6.0232809   -2.0607584   -8.9024178  
H   -4.7948455    2.6874537   -3.3855747  
C    2.5128556    2.1077716    2.9199648  
C    1.9592212    1.6432552    4.0696553  
C    0.8915788    0.7479214    3.6910360  
C    0.8684491    0.7287414    2.2159470  
N    1.8754542    1.5738793    1.8102719  
C    0.0000000    0.0000000    1.4700000  
C   -0.9772830   -0.8200135    2.1664417  
O   -1.8021297   -1.5120829    1.5842315  
C   -0.9711318   -0.8147624    3.7284083  
O   -1.7894187   -1.5009653    4.3257297  
C    0.0140216    0.0115358    4.4216297  
H    2.2638494    1.8988021    5.0689105  
H    0.0117648    0.0094386    5.5031631  
H    3.3327358    2.7953732    2.7900019  
H    2.1123206    1.7707734    0.8551938  
