60

C    0.0000000    0.0000000    0.0000000  
C    1.0521665   -0.0011901   -0.8862342  
C    0.4917217   -0.0011956   -2.1979130  
C   -0.9187428    0.0003148   -2.0478683  
N   -1.1833173   -0.0009411   -0.7007911  
C   -1.7951703    0.0010349   -3.1372088  
C   -1.2375840    0.0005224   -4.4010424  
O   -2.0474220    0.0015359   -5.4997576  
C    0.1673578   -0.0013566   -4.5711965  
O    0.5673521   -0.0020688   -5.8915549  
C    1.0325768   -0.0023412   -3.4969890  
H    2.0953059   -0.0030648   -0.6200563  
H   -2.0989774    0.0102371   -0.2891826  
H   -1.4634888    0.0006496   -6.2693593  
H    1.5290706   -0.0033152   -5.9180048  
C    3.4064528   -0.7318366   -2.9764950  
C    4.6700471   -0.5171191   -3.4251602  
C    4.5733462    0.4095834   -4.5282045  
C    3.1395582    0.7193978   -4.6865021  
N    2.4861699   -0.0045381   -3.7159922  
C    2.6335421    1.5602166   -5.6238792  
C    3.5630782    2.2027684   -6.5380050  
O    3.2057020    2.9763279   -7.4167478  
C    5.0859339    1.8890250   -6.3887352  
O    5.8780057    2.4238418   -7.1528382  
C    5.5107310    0.9658168   -5.3394087  
H    5.5674380   -0.9577775   -3.0287723  
H    1.5783521    1.7739232   -5.7229396  
H    6.5669016    0.7540381   -5.2425735  
H    3.0700923   -1.3603658   -2.1679762  
C   -4.4484711    2.1113800   -0.3461917  
C   -5.6480035    1.6479662   -0.7825913  
C   -5.3783988    0.7523418   -1.8825937  
C   -3.9129605    0.7317895   -2.0524732  
N   -3.4082523    1.5764911   -1.0908920  
C   -3.2578657    0.0024038   -2.9908504  
C   -4.0489129   -0.8169045   -3.8939084  
O   -3.5523656   -1.5094683   -4.7725987  
C   -5.6025002   -0.8101993   -3.7322731  
O   -6.2789648   -1.4957986   -4.4869983  
C   -6.1934212    0.0166873   -2.6830241  
H   -6.6117251    1.9044259   -0.3799964  
H   -7.2698069    0.0155974   -2.5775883  
H   -4.2368828    2.7988130    0.4566509  
H   -2.4341534    1.7724822   -0.9503004  
C    0.0000000    0.0000000    1.4700000  
C    1.0662921    0.0000102    2.3034270  
C    0.4961870   -0.0000064    3.6418889  
C   -0.9663858    0.0000850    3.4240247  
N   -1.2632773    0.0000084    2.1528658  
C   -1.8985362    0.0000517    4.5177257  
C   -1.3925775   -0.0004564    5.7720543  
O   -2.1456383   -0.0005410    6.8851312  
C    0.0786232   -0.0009323    6.0245000  
O    0.4683759   -0.0012588    7.1921102  
C    1.0143166   -0.0008442    4.8859032  
H    2.1107198   -0.0000632    2.0421868  
H   -2.9622183    0.0003270    4.3293377  
H   -1.5042274   -0.0009692    7.6184419  
H    2.0724152   -0.0013148    5.1109744  
