60

C    0.0000000    0.0000000    0.0000000  
C    1.0521666   -0.0011908   -0.8862345  
C    0.4917224   -0.0011958   -2.1979133  
C   -0.9187422    0.0003157   -2.0478684  
N   -1.1833169   -0.0009403   -0.7007915  
C   -1.7951696    0.0010365   -3.1372093  
C   -1.2375833    0.0005235   -4.4010426  
O   -2.0474210    0.0015378   -5.4997584  
C    0.1673590   -0.0013564   -4.5711967  
O    0.5673531   -0.0020684   -5.8915553  
C    1.0325774   -0.0023415   -3.4969893  
H    2.0953060   -0.0030663   -0.6200562  
H   -2.0989773    0.0102386   -0.2891828  
H   -1.4634876    0.0006514   -6.2693596  
H    1.5290718   -0.0033159   -5.9180047  
H    2.1042148   -0.0039619   -3.6584454  
C   -3.9676849    0.7292831   -2.0471641  
C   -5.3027878    0.5138166   -2.1702462  
C   -5.4806683   -0.4129604   -3.2630766  
C   -4.1300709   -0.7220025   -3.7701961  
N   -3.2578650    0.0024062   -2.9908511  
C   -3.8704658   -1.5626511   -4.8034530  
C   -4.9964202   -2.2058215   -5.4600306  
O   -4.8664343   -2.9792853   -6.3997948  
C   -6.4355617   -1.8929007   -4.9396875  
O   -7.3913520   -2.4282425   -5.4847871  
C   -6.5888872   -0.9698050   -3.8179754  
H   -2.8722056   -1.7757872   -5.1597662  
H   -7.5886456   -0.7585976   -3.4635767  
H   -3.4426178    1.3580914   -1.3465969  
C   -6.4333269    2.3868142   -0.8846012  
C   -6.3581619    1.1155199   -1.3425759  
C   -7.5562259    0.4632427   -0.8369306  
C   -8.2598007    1.5161420   -0.0734058  
N   -7.6063785    2.6459345   -0.0978472  
C   -9.5081962    1.2669850    0.5933138  
C  -10.0301943    0.0226560    0.5011281  
O  -11.1877193   -0.3499646    1.0732553  
C   -9.3442686   -1.0612108   -0.2623511  
O   -9.8770351   -2.1701097   -0.3038746  
C   -8.0646611   -0.7807056   -0.9375149  
H  -10.0003473    2.0550240    1.1443967  
H  -11.2932744   -1.2877694    0.8313194  
H   -7.5996403   -1.5926812   -1.4803604  
H   -5.7334290    3.1919636   -1.0422429  
C    3.2798086   -0.0005857    2.9199648  
C    2.5571146   -0.0005566    4.0696553  
C    1.1637436   -0.0001548    3.6910360  
C    1.1336965    0.0000200    2.2159470  
N    2.4483514    0.0001428    1.8102719  
C    0.0000000    0.0000000    1.4700000  
C   -1.2757367    0.0000186    2.1664417  
O   -2.3524596    0.0000640    1.5842315  
C   -1.2676493    0.0000873    3.7284083  
O   -2.3355761    0.0004100    4.3257297  
C    0.0181563   -0.0001760    4.4216297  
H    2.9547357   -0.0006076    5.0689105  
H    0.0150794   -0.0003319    5.5031631  
H    4.3498549   -0.0008612    2.7900019  
H    2.7563627   -0.0012824    0.8551938  
