60

C    0.0000000    0.0000000    0.0000000  
C    1.0521656   -0.0012043   -0.8862351  
C    0.4917200   -0.0012020   -2.1979137  
C   -0.9187445    0.0003274   -2.0478677  
N   -1.1833177   -0.0009251   -0.7007905  
C   -1.7951725    0.0010595   -3.1372079  
C   -1.2375873    0.0005399   -4.4010417  
O   -2.0474259    0.0015643   -5.4997564  
C    0.1673544   -0.0013583   -4.5711967  
O    0.5673477   -0.0020758   -5.8915560  
C    1.0325744   -0.0023546   -3.4969900  
H    2.0953046   -0.0030932   -0.6200577  
H   -2.0989779    0.0102656   -0.2891810  
H   -1.4634938    0.0006700   -6.2693583  
H    1.5290660   -0.0033352   -5.9180057  
H    2.1042114   -0.0039890   -3.6584473  
C   -4.7114417    2.0140794   -0.4339566  
C   -3.5467357    1.6314859   -1.0072465  
C   -3.9343411    0.7149573   -2.0684898  
C   -5.4099524    0.6582045   -1.9914546  
N   -5.8711923    1.4177554   -1.0352486  
C   -6.1879822   -0.1524256   -2.8873535  
C   -5.5221693   -0.8732798   -3.8181580  
O   -6.1204783   -1.6723418   -4.7179179  
C   -4.0334893   -0.8368211   -3.9214197  
O   -3.4940551   -1.5187026   -4.7927805  
C   -3.2578679    0.0024482   -2.9908485  
H   -2.5479293    1.9339456   -0.7427094  
H   -5.3893233   -2.0479243   -5.2408934  
H   -4.8535640    2.6917474    0.3928087  
C   -8.4609016    0.8794107   -2.5279674  
C   -7.6537112   -0.1832057   -2.7796940  
C   -8.5091853   -1.3379937   -2.9192066  
C   -9.8908427   -0.8575931   -2.7267733  
N   -9.7926310    0.4946778   -2.4930907  
C  -10.9938462   -1.6462638   -2.7823340  
C  -10.8077676   -3.0628284   -3.0492694  
O  -11.7380113   -3.8553667   -3.1187810  
C   -9.3532948   -3.5934538   -3.2560283  
O   -9.1841913   -4.7842575   -3.4810870  
C   -8.2443298   -2.6462761   -3.1729513  
H  -11.9985759   -1.2738210   -2.6384085  
H   -7.2403781   -3.0216576   -3.3174998  
H   -8.1949155    1.9111634   -2.3647881  
H  -10.5689644    1.1080240   -2.3252799  
C    3.2573670    0.0002920    2.9809380  
C    2.5379467    0.0001709    1.8291961  
C    1.1435042   -0.0000331    2.2038498  
C    1.1092607    0.0000083    3.6788474  
N    2.4227561   -0.0001909    4.0882609  
C   -0.0265533    0.0002524    4.4215661  
C   -1.3003036    0.0002640    3.7214979  
O   -2.3786784    0.0004133    4.3006425  
C   -1.2877726   -0.0000311    2.1595606  
O   -2.3539958   -0.0003306    1.5592035  
C    0.0000000    0.0000000    1.4700000  
H    2.9384090    0.0000368    0.8310761  
H   -0.0296291    0.0004086    5.5027230  
H    4.3270393    0.0004765    3.1139444  
H    2.7280493    0.0013407    5.0442112  
