58

C    3.9142818   -0.7071694   -4.5248283  
C    2.8699637   -0.0020521   -4.0185831  
C    2.2908370    0.7380406   -5.1148085  
C    3.0890706    0.4038774   -6.3097766  
N    4.0573679   -0.4761754   -5.8845736  
C    2.8596370    0.9012247   -7.5514328  
C    1.7527753    1.8276227   -7.7222502  
O    1.4651457    2.3301695   -8.8006830  
C    0.8942534    2.1958002   -6.4703751  
O   -0.0400358    2.9749498   -6.6018683  
C    1.2387380    1.5950182   -5.1842014  
H    0.6392473    1.8549643   -4.3223645  
H    4.5915378   -1.3759566   -4.0189254  
H    4.7585941   -0.8888240   -6.4719833  
C    3.2573672   -0.0002917   -1.5109389  
C    2.5379468   -0.0001708   -0.3591970  
C    1.1435042    0.0000333   -0.7338502  
C    1.1092604   -0.0000078   -2.2088477  
N    2.4227558    0.0001914   -2.6182614  
C   -0.0265536   -0.0002519   -2.9515664  
C   -1.3003041   -0.0002636   -2.2514980  
O   -2.3786785   -0.0004129   -2.8306427  
C   -1.2877727    0.0000313   -0.6895608  
O   -2.3539957    0.0003307   -0.0892033  
C    0.0000000    0.0000000    0.0000000  
H    2.9384094   -0.0000368    0.6389235  
H   -0.0296297   -0.0004079   -4.0327233  
H    4.3270392   -0.0004761   -1.6439453  
C    4.1588930   -0.6819632   -9.0229812  
C    3.6719573    0.5502398   -8.7252497  
C    4.1046405    1.4394045   -9.7773934  
C    4.8891695    0.6183226  -10.7192686  
N    4.8844341   -0.6575180  -10.2043920  
C    5.4722891    1.0908745  -11.8499194  
C    5.3170253    2.5024117  -12.1597433  
O    5.8041891    3.0235475  -13.1544236  
C    4.4904573    3.3907394  -11.1761449  
O    4.3531718    4.5806147  -11.4263651  
C    3.9096005    2.7671930   -9.9897023  
H    6.0435287    0.4715589  -12.5274467  
H    3.3385472    3.3891322   -9.3138218  
H    4.0489322   -1.6057967   -8.4786191  
H    5.3365186   -1.4493805  -10.6234634  
C    2.5528530    2.1414826    2.8079335  
C    2.0663498    1.7338582    4.0032312  
C    0.9804344    0.8229586    3.6752840  
C    0.9495562    0.7966882    2.1971295  
N    1.8690446    1.5676019    1.6831036  
C    0.0000000    0.0000000    1.4700000  
C   -0.8785127   -0.7372425    2.1869543  
O   -1.8187535   -1.5261249    1.6395491  
C   -0.8723269   -0.7321790    3.6796354  
O   -1.7010379   -1.4274584    4.2670412  
C    0.1115397    0.0933559    4.4024240  
H    2.4028853    2.0163452    4.9860947  
H   -2.2861435   -1.9184361    2.3990168  
H    0.0832434    0.0693689    5.4835595  
H    3.3664920    2.8238276    2.6198634  
