58

C    5.2231090   -1.1114864   -7.1460523  
C    6.0152011   -0.7774965   -8.1972971  
C    5.8615322    0.6430081   -8.4055954  
C    4.9081707    1.1125863   -7.3821745  
N    4.5587516    0.0005413   -6.6513177  
C    4.4998442    2.3994572   -7.2445643  
C    5.0348808    3.3879529   -8.1660569  
O    4.7287788    4.5723615   -8.1238770  
C    6.0457625    2.9129373   -9.2579742  
O    6.5026878    3.7360719  -10.0395926  
C    6.4101377    1.4991832   -9.3067789  
H    6.6361167   -1.4495647   -8.7624536  
H    3.7997277    2.7229931   -6.4868896  
H    7.1108162    1.1784501  -10.0656620  
H    5.0686508   -2.0764746   -6.6912672  
C    4.5939380   -2.1037471   -2.7696732  
C    4.8996526   -1.6376001   -4.0079464  
C    3.8355763   -0.7416509   -4.3950538  
C    2.8780295   -0.7238870   -3.2727446  
N    3.3957273   -1.5703484   -2.3196542  
C    1.7334695    0.0049281   -3.2500363  
C    1.4239148    0.8265213   -4.4083522  
O    0.4172711    1.5187838   -4.4841264  
C    2.4237222    0.8227865   -5.6084260  
O    2.1735663    1.5103258   -6.5892278  
C    3.6246412   -0.0037445   -5.5162755  
H    5.7710266   -1.8924542   -4.5844619  
H    5.1430575   -2.7922312   -2.1481045  
H    2.9698478   -1.7683918   -1.4328324  
C    1.1319246    0.0015678   -0.8009268  
C    0.7969914    0.0034958   -2.1169401  
C   -0.6453340    0.0035696   -2.1842669  
C   -1.1266832    0.0015410   -0.7896025  
N    0.0000000    0.0000000    0.0000000  
C   -2.4346129    0.0013913   -0.4276292  
C   -3.4350111    0.0031335   -1.4820181  
O   -4.6384614    0.0030875   -1.2583914  
C   -2.9478961    0.0050442   -2.9661074  
O   -3.7809382    0.0062135   -3.8623773  
C   -1.5113825    0.0053055   -3.2312122  
H   -2.7664565    0.0000174    0.6013448  
H   -1.1823533    0.0068381   -4.2614848  
H    2.1104316    0.0009435   -0.3488059  
C    0.0000000    0.0000000    1.4700000  
C    1.0541688    0.0001722    2.3260392  
C    0.5103138    0.0000454    3.6635956  
C   -0.9576371   -0.0002459    3.5155732  
N   -1.2018458    0.0001392    2.1615969  
C   -1.8348311   -0.0008317    4.5510609  
C   -1.2972847   -0.0009736    5.9014604  
O   -2.0050672   -0.0014265    6.9001319  
C    0.2542623   -0.0004184    6.0817573  
O    0.7184670   -0.0002256    7.2139121  
C    1.0974552   -0.0000873    4.8889129  
H    2.0940752    0.0005483    2.0517982  
H   -2.9081052   -0.0011668    4.4207061  
H    2.1707277    0.0000911    5.0223670  
H   -2.1128194   -0.0014912    1.7406791  
