60

C    3.3041278    0.0001175   -1.5420429  
C    2.5845373   -0.0004783   -0.3695847  
C    1.2040007   -0.0000008   -0.7283586  
C    1.1422379    0.0006034   -2.1454372  
N    2.4348646    0.0026105   -2.6077463  
C   -0.0655175    0.0008794   -2.8497923  
C   -1.2321767    0.0002322   -2.1101401  
O   -2.4392808    0.0001145   -2.7472525  
C   -1.1911209   -0.0000007   -0.6955266  
O   -2.4371524   -0.0002320   -0.1032865  
C    0.0000000    0.0000000    0.0000000  
H    3.0031536   -0.0000660    0.6222585  
H   -0.1193538    0.0014838   -3.9297471  
H   -3.1132982   -0.0000650   -2.0551795  
H   -2.3200279   -0.0004069    0.8516405  
H    4.3686628    0.0004068   -1.7024286  
C    3.8455963   -0.6998096   -4.5966065  
C    2.8310670   -0.0116225   -4.0232745  
C    2.2085849    0.7190726   -5.1164813  
C    2.9960462    0.3450195   -6.3108733  
N    3.9569639   -0.4865471   -6.0123364  
C    2.6930708    0.8655748   -7.6156009  
C    1.6505617    1.7206273   -7.7223466  
O    1.2559059    2.2824578   -8.8776099  
C    0.8364777    2.1170957   -6.5356536  
O   -0.0980375    2.8998203   -6.7066633  
C    1.1672386    1.5695162   -5.2079941  
H    0.4938958    2.8389453   -8.6350912  
H    0.5532541    1.8813545   -4.3737223  
H    4.5497461   -1.3639110   -4.1210901  
C    3.9828414   -0.8060654   -9.0228946  
C    4.6933565   -0.8451783  -10.1794903  
C    4.6753680    0.4895479  -10.7299605  
C    3.8905286    1.3153943   -9.7925208  
N    3.4991826    0.4705104   -8.7796486  
C    3.6420577    2.6393928   -9.9568257  
C    4.1835868    3.2947120  -11.1357394  
O    4.0150508    4.4835575  -11.3735284  
C    5.0175862    2.4393986  -12.1420638  
O    5.4783067    2.9801188  -13.1383674  
C    5.2179304    1.0208557  -11.8566709  
H    5.1749358   -1.7103460  -10.5992289  
H    3.0639988    3.2268763   -9.2570975  
H    5.7967270    0.4356970  -12.5583174  
H    3.7716805   -1.6024676   -8.3278803  
C    0.8400945    0.7047457    2.2710304  
C    0.0000000    0.0000000    1.4700000  
C   -0.8844236   -0.7423113    2.3369512  
C   -0.4878984   -0.4098547    3.7186280  
N    0.5629682    0.4714286    3.6095011  
C   -1.0836927   -0.9095027    4.8308716  
C   -2.1891196   -1.8367527    4.6554461  
O   -2.7906899   -2.3413415    5.5944904  
C   -2.6257283   -2.2031529    3.2011665  
O   -3.5549479   -2.9829990    3.0410059  
C   -1.9068976   -1.5999348    2.0816745  
H   -0.7774656   -0.6525820    5.8354244  
H   -2.2155208   -1.8586617    1.0779135  
H    1.6384792    1.3747609    1.9961646  
H    1.0518368    0.8833920    4.3830260  
