62

C   -4.7630504   -0.0022798   -1.3275397  
C   -5.7496376   -0.0047933   -2.2862402  
C   -6.9989987   -0.0047031   -1.5979844  
C   -6.7092695   -0.0017732   -0.2094693  
N   -5.3425441   -0.0023123   -0.0803285  
C   -7.7059382   -0.0005748    0.7710608  
C   -9.0190067   -0.0020599    0.3420777  
O  -10.0316328   -0.0006360    1.2572822  
C   -9.3281945   -0.0053599   -1.0389398  
O  -10.6818172   -0.0069109   -1.3054859  
C   -8.3454685   -0.0068169   -2.0068102  
H   -5.5886396   -0.0075890   -3.3506951  
H   -4.8418190    0.0098947    0.7897903  
H  -10.8555480   -0.0023516    0.7528761  
H  -10.8038876   -0.0090994   -2.2597906  
H   -8.6128179   -0.0095313   -3.0570459  
C   -3.3003544   -0.0017778   -1.4738983  
C   -2.5232812   -0.0013056   -2.6090745  
C   -1.1623201   -0.0003085   -2.1820101  
C   -1.1711884   -0.0005020   -0.7636141  
N   -2.4852304    0.0005505   -0.3662357  
C    0.0000000    0.0000000    0.0000000  
C    1.2020381    0.0004033   -0.6806480  
O    2.3759247    0.0005506    0.0157743  
C    1.2314653    0.0009776   -2.0955511  
O    2.5054377    0.0017526   -2.6250183  
C    0.0764514    0.0007561   -2.8495196  
H   -2.8919959   -0.0005337   -3.6205296  
H   -2.8036229   -0.0098801    0.5858666  
H    3.0835639    0.0011332   -0.6418822  
H    2.4360034    0.0020753   -3.5845927  
H    0.1304080    0.0013913   -3.9319088  
C   -6.4329216    0.7087095    2.8293000  
C   -7.4146766    0.0022629    2.2119143  
C   -8.1093717   -0.7385376    3.2382910  
C   -7.4471340   -0.4033408    4.5133888  
N   -6.4392212    0.4779252    4.1965742  
C   -7.8104576   -0.9009514    5.7225561  
C   -8.9282034   -1.8287434    5.7713559  
O   -9.3315024   -2.3316303    6.8119116  
C   -9.6440955   -2.1980315    4.4330995  
O  -10.5861858   -2.9783579    4.4616750  
C   -9.1616693   -1.5968421    3.1922577  
H   -7.3114070   -0.6420351    6.6460391  
H   -9.6629111   -1.8575634    2.2700290  
H   -5.7052049    1.3783411    2.4004507  
H   -5.8070132    0.8914718    4.8571343  
C    0.0000000    0.0000000    1.4700000  
C    1.0662921    0.0000102    2.3034270  
C    0.4961870   -0.0000064    3.6418889  
C   -0.9663858    0.0000850    3.4240247  
N   -1.2632773    0.0000084    2.1528658  
C   -1.8985362    0.0000517    4.5177257  
C   -1.3925775   -0.0004564    5.7720543  
O   -2.1456383   -0.0005410    6.8851312  
C    0.0786232   -0.0009323    6.0245000  
O    0.4683759   -0.0012588    7.1921102  
C    1.0143166   -0.0008442    4.8859032  
H    2.1107198   -0.0000632    2.0421868  
H   -2.9622183    0.0003270    4.3293377  
H   -1.5042274   -0.0009692    7.6184419  
H    2.0724152   -0.0013148    5.1109744  
