58

C    3.4640876   -0.7245910   -7.2684214  
C    4.7373332   -0.5081218   -7.6880179  
C    4.6646053    0.4180040   -8.7933858  
C    3.2343672    0.7255706   -8.9847250  
N    2.5599431    0.0010163   -8.0291811  
C    2.7487550    1.5652531   -9.9338393  
C    3.6980805    2.2088659  -10.8266334  
O    3.3598231    2.9815386  -11.7136839  
C    5.2175763    1.8975031  -10.6422701  
O    6.0261895    2.4332296  -11.3881925  
C    5.6195419    0.9753510   -9.5830670  
H    5.6260432   -0.9472573   -7.2709239  
H    1.6957975    1.7773119  -10.0572155  
H    6.6735281    0.7652204   -9.4618945  
H    3.1101868   -1.3533183   -6.4675805  
C    0.0139742    0.0003878   -4.4216236  
C    1.0657034    0.0004481   -5.2806583  
C    0.5180456    0.0007119   -6.6166620  
C   -0.9494782    0.0008303   -6.4644642  
N   -1.1898343    0.0002247   -5.1097987  
C   -1.8296145    0.0014750   -7.4974525  
C   -1.2959120    0.0018674   -8.8493762  
O   -2.0065327    0.0023914   -9.8460291  
C    0.2551158    0.0014984   -9.0340855  
O    0.7160979    0.0015168  -10.1675560  
C    1.1016987    0.0010820   -7.8436448  
H    2.1063859    0.0001397   -5.0093769  
H   -2.9025137    0.0016806   -7.3640447  
H   -2.0996068    0.0017001   -4.6862910  
C    3.2798085    0.0005856   -1.4499646  
C    2.5571146    0.0005565   -2.5996553  
C    1.1637435    0.0001548   -2.2210360  
C    1.1336964   -0.0000200   -0.7459470  
N    2.4483515   -0.0001429   -0.3402716  
C    0.0000000    0.0000000    0.0000000  
C   -1.2757368   -0.0000187   -0.6964415  
O   -2.3524594   -0.0000640   -0.1142314  
C   -1.2676495   -0.0000873   -2.2584081  
O   -2.3355761   -0.0004101   -2.8557295  
C    0.0181563    0.0001759   -2.9516296  
H    2.9547358    0.0006075   -3.5989104  
H    4.3498547    0.0008611   -1.3200019  
H    2.7563628    0.0012823    0.6148064  
C    2.5128556    2.1077716    2.9199648  
C    1.9592212    1.6432552    4.0696553  
C    0.8915788    0.7479214    3.6910360  
C    0.8684491    0.7287414    2.2159470  
N    1.8754542    1.5738793    1.8102719  
C    0.0000000    0.0000000    1.4700000  
C   -0.9772830   -0.8200135    2.1664417  
O   -1.8021297   -1.5120829    1.5842315  
C   -0.9711318   -0.8147624    3.7284083  
O   -1.7894187   -1.5009653    4.3257297  
C    0.0140216    0.0115358    4.4216297  
H    2.2638494    1.8988021    5.0689105  
H    0.0117648    0.0094386    5.5031631  
H    3.3327358    2.7953732    2.7900019  
H    2.1123206    1.7707734    0.8551938  
