62

C   -4.7577192    0.0038513   -1.7610491  
C   -5.7908146    0.0072986   -0.8526608  
C   -7.0043588    0.0072403   -1.6022675  
C   -6.6458570    0.0033666   -2.9746332  
N   -5.2743969    0.0033374   -3.0355659  
C   -7.5924701    0.0019326   -4.0035695  
C   -8.9252679    0.0041482   -3.6404961  
O   -9.8910722    0.0025340   -4.6049831  
C   -9.3028312    0.0083944   -2.2765884  
O  -10.6680447    0.0105922   -2.0777693  
C   -8.3695129    0.0100843   -1.2609899  
H   -5.6830131    0.0106803    0.2184886  
H   -4.7309749   -0.0095756   -3.8796670  
H   -7.3257223   -0.0008725   -5.0514437  
H  -10.7390787    0.0048502   -4.1422258  
H  -10.8374766    0.0134018   -1.1307273  
C   -3.3041249    0.0029131   -1.5420450  
C   -2.5845349    0.0028487   -0.3695868  
C   -1.2039994    0.0011051   -0.7283595  
C   -1.1422358    0.0004440   -2.1454379  
N   -2.4348632   -0.0003776   -2.6077477  
C    0.0655194   -0.0009400   -2.8497912  
C    1.2321775   -0.0013629   -2.1101390  
O    2.4392831   -0.0023524   -2.7472501  
C    1.1911212   -0.0010919   -0.6955255  
O    2.4371519   -0.0020037   -0.1032845  
C    0.0000000    0.0000000    0.0000000  
H   -3.0031521    0.0028208    0.6222564  
H   -2.7054529    0.0095914   -3.5745276  
H    0.1193561   -0.0015941   -3.9297468  
H    3.1132988   -0.0027911   -2.0551766  
H    2.3200277   -0.0017211    0.8516425  
C   -6.8256766    2.1260271    2.2635945  
C   -7.6941042    1.6654110    3.2004728  
C   -8.6040113    0.7693460    2.5266977  
C   -8.1915255    0.7454865    1.1103373  
N   -7.1085510    1.5888888    1.0169169  
C   -8.8026280    0.0147579    0.1437483  
C   -9.9428360   -0.8026089    0.5237108  
O  -10.5604651   -1.4961643   -0.2736704  
C  -10.3971626   -0.7923946    2.0181301  
O  -11.3560472   -1.4763363    2.3498301  
C   -9.6588698    0.0356715    2.9684363  
H   -7.6970695    1.9239999    4.2443771  
H   -9.9796886    0.0370138    4.0012952  
H   -6.0029679    2.8128526    2.3789698  
H   -6.6005315    1.7826417    0.1734576  
C    2.5528530    2.1414826    2.8079335  
C    2.0663498    1.7338582    4.0032312  
C    0.9804344    0.8229586    3.6752840  
C    0.9495562    0.7966882    2.1971295  
N    1.8690446    1.5676019    1.6831036  
C    0.0000000    0.0000000    1.4700000  
C   -0.8785127   -0.7372425    2.1869543  
O   -1.8187535   -1.5261249    1.6395491  
C   -0.8723269   -0.7321790    3.6796354  
O   -1.7010379   -1.4274584    4.2670412  
C    0.1115397    0.0933559    4.4024240  
H    2.4028853    2.0163452    4.9860947  
H   -2.2861435   -1.9184361    2.3990168  
H    0.0832434    0.0693689    5.4835595  
H    3.3664920    2.8238276    2.6198634  
