58

C    0.0000000    0.0000000    0.0000000  
C    1.0541692   -0.0001722   -0.8560386  
C    0.5103150   -0.0000454   -2.1935954  
C   -0.9576356    0.0002459   -2.0455736  
N   -1.2018452   -0.0001391   -0.6915975  
C   -1.8348293    0.0008316   -3.0810615  
C   -1.2972824    0.0009735   -4.4314612  
O   -2.0050651    0.0014266   -5.4301329  
C    0.2542647    0.0004185   -4.6117573  
O    0.7184698    0.0002256   -5.7439119  
C    1.0974569    0.0000873   -3.4189125  
H    2.0940756   -0.0005481   -0.5817975  
H   -2.9081034    0.0011666   -2.9507075  
H   -2.1128192    0.0014910   -0.2706800  
C    4.1988046   -2.1397334   -1.2302354  
C    5.3249615   -1.7327110   -1.8608563  
C    4.8655822   -0.8226612   -2.8987769  
C    3.3949154   -0.7961728   -2.7470484  
N    2.9982287   -1.5662363   -1.7705080  
C    2.5562231   -0.0001550   -3.6002995  
C    3.1593416    0.7362381   -4.5611886  
O    2.5001490    1.5244282   -5.4273658  
C    4.6413781    0.7309336   -4.7392315  
O    5.1220808    1.4254263   -5.6346787  
C    5.4799945   -0.0939017   -3.8513723  
H    6.3418228   -2.0150800   -1.6479317  
H    3.1961642    1.9162245   -5.9852281  
H    6.5493784   -0.0701165   -4.0128765  
C    4.0811986   -3.0688825   -0.0972081  
C    5.0740019   -3.7154200    0.5569399  
C    4.4004555   -4.4974103    1.5822817  
C    2.9646631   -4.1953689    1.3982819  
N    2.7713601   -3.3586165    0.4151907  
C    1.9509644   -4.7820027    2.2309652  
C    2.3532988   -5.6320465    3.2030185  
O    1.5159915   -6.2510809    4.0525795  
C    3.7948667   -5.9572097    3.4135228  
O    4.0886897   -6.7392504    4.3175698  
C    4.8156819   -5.3425545    2.5463093  
H    6.1326521   -3.6676551    0.3670603  
H    0.9091711   -4.5432520    2.0742027  
H    2.0946029   -6.7869543    4.6245945  
H    5.8489772   -5.6040143    2.7311600  
C    1.0965515   -0.0001358    2.2710304  
C    0.0000000    0.0000000    1.4700000  
C   -1.1546562   -0.0001469    2.3369512  
C   -0.6372014   -0.0003519    3.7186280  
N    0.7342871   -0.0007337    3.6095011  
C   -1.4147739   -0.0001353    4.8308716  
C   -2.8576048    0.0001048    4.6554461  
O   -3.6427778    0.0002493    5.5944904  
C   -3.4275839    0.0000726    3.2011665  
O   -4.6406829   -0.0000333    3.0410059  
C   -2.4891866    0.0001091    2.0816745  
H   -1.0150448   -0.0001615    5.8354244  
H   -2.8919121    0.0002919    1.0779135  
H    2.1388271   -0.0000662    1.9961646  
H    1.3735872    0.0006099    4.3830260  
