58

C   -1.1319149    0.0048922   -0.8009265  
C   -0.7969980    0.0010528   -2.1169402  
C    0.6453036   -0.0072524   -2.1842663  
C    1.1266564   -0.0079710   -0.7896022  
N    0.0000000    0.0000000    0.0000000  
C    2.4345657   -0.0152858   -0.4276284  
C    3.4349378   -0.0227374   -1.4820167  
O    4.6383679   -0.0295596   -1.2583896  
C    2.9478200   -0.0218680   -2.9661066  
O    3.7808417   -0.0277916   -3.8623762  
C    1.5113287   -0.0139311   -3.2312116  
H    2.7664110   -0.0158058    0.6013457  
H    1.1822961   -0.0135856   -4.2614844  
H   -2.1104023    0.0111010   -0.3488058  
C   -1.7334685    0.0049652   -3.2500367  
C   -3.0863065    0.0119124   -3.2131616  
C   -3.4995424    0.0129351   -4.6080581  
C   -2.2333967    0.0059740   -5.3718714  
N   -1.1947553    0.0012003   -4.5811826  
C   -2.2116413    0.0047262   -6.8087469  
C   -3.4007139    0.0097956   -7.4532752  
O   -3.5293448    0.0093407   -8.7909945  
C   -4.6955420    0.0165024   -6.7106204  
O   -5.7397973    0.0210083   -7.3623342  
C   -4.6914271    0.0177012   -5.2368814  
H   -3.7249293    0.0157659   -2.3464311  
H   -1.2717387   -0.0002073   -7.3411643  
H   -4.4909070    0.0137028   -8.9476239  
C   -6.1698413    2.1216613   -1.6474418  
C   -5.4059370    1.6547442   -2.6684775  
C   -6.2363870    0.7613434   -3.4411500  
C   -7.5561945    0.7459586   -2.7818605  
N   -7.4496170    1.5905880   -1.7010591  
C   -8.6206225    0.0205181   -3.2089838  
C   -8.4552795   -0.8000406   -4.3972095  
O   -9.3541447   -1.4894186   -4.8609975  
C   -7.0660879   -0.7991714   -5.1113176  
O   -6.9148731   -1.4863406   -6.1124132  
C   -5.9945529    0.0242389   -4.5566459  
H   -4.3779550    1.9072069   -2.8585545  
H   -9.5801915    0.0234723   -2.7108593  
H   -5.9054918    2.8088776   -0.8602045  
H   -8.1883840    1.7919420   -1.0524236  
C    2.5128556    2.1077716    2.9199648  
C    1.9592212    1.6432552    4.0696553  
C    0.8915788    0.7479214    3.6910360  
C    0.8684491    0.7287414    2.2159470  
N    1.8754542    1.5738793    1.8102719  
C    0.0000000    0.0000000    1.4700000  
C   -0.9772830   -0.8200135    2.1664417  
O   -1.8021297   -1.5120829    1.5842315  
C   -0.9711318   -0.8147624    3.7284083  
O   -1.7894187   -1.5009653    4.3257297  
C    0.0140216    0.0115358    4.4216297  
H    2.2638494    1.8988021    5.0689105  
H    0.0117648    0.0094386    5.5031631  
H    3.3327358    2.7953732    2.7900019  
H    2.1123206    1.7707734    0.8551938  
