60

C    6.7235414    0.0018296    0.8630494  
C    5.4473220    0.0014739    0.3990019  
C    5.5236523   -0.0004062   -1.0428740  
C    6.9592468   -0.0011511   -1.3832528  
N    7.6329842    0.0006719   -0.1836843  
C    7.4493969   -0.0032876   -2.6487380  
C    6.4996342   -0.0047392   -3.7489583  
O    6.8417407   -0.0066291   -4.9242287  
C    4.9744850   -0.0037317   -3.4117289  
O    4.1654293   -0.0046312   -4.3297092  
C    4.5679461   -0.0016852   -2.0086700  
H    4.5543639    0.0026029    0.9983664  
H    8.5062538   -0.0039291   -2.8766893  
H    7.0761907    0.0030568    1.8816398  
H    8.6315343   -0.0008652   -0.0839632  
C    3.1301152   -0.0010311   -1.7028251  
C    2.5367770   -0.0002766   -0.4864665  
C    1.1089905    0.0001028   -0.7656183  
C    1.0177873   -0.0004148   -2.2415130  
N    2.1993580   -0.0011610   -2.7963820  
C   -0.2459208   -0.0002877   -2.9257119  
C   -1.3675318   -0.0000605   -2.1698523  
O   -2.6129310    0.0000866   -2.6748492  
C   -1.3083584    0.0000911   -0.6783232  
O   -2.3693259    0.0004206   -0.0541692  
C    0.0000000    0.0000000    0.0000000  
H    3.0096019   -0.0001007    0.4807529  
H   -3.1967440    0.0002093   -1.8949035  
C    2.1451943   -2.0951768   -5.9900942  
C    1.6340483   -1.6323749   -4.8202142  
C    0.5538838   -0.7357922   -5.1581773  
C    0.4770650   -0.7140557   -6.6314107  
N    1.4686372   -1.5584200   -7.0749457  
C   -0.4180283    0.0158496   -7.3439773  
C   -1.3690882    0.8348540   -6.6110029  
O   -2.2145416    1.5279316   -7.1615961  
C   -1.3057461    0.8272855   -5.0503185  
O   -2.1011630    1.5130919   -4.4224316  
C   -0.2963281   -0.0005339   -4.3948471  
H    1.9749157   -1.8895629   -3.8331593  
H   -0.4575568    0.0175264   -8.4244148  
H    2.9593513   -2.7830346   -6.1509982  
H    1.6685753   -1.7560267   -8.0382854  
C    0.0000000    0.0000000    1.4700000  
C    1.0521667    0.0011902    2.3562342  
C    0.4917218    0.0011957    3.6679131  
C   -0.9187428   -0.0003148    3.5178682  
N   -1.1833171    0.0009411    2.1707914  
C   -1.7951701   -0.0010350    4.6072090  
C   -1.2375837   -0.0005224    5.8710424  
O   -2.0474215   -0.0015360    6.9697579  
C    0.1673580    0.0013566    6.0411963  
O    0.5673524    0.0020687    7.3615553  
C    1.0325770    0.0023412    4.9669890  
H    2.0953057    0.0030649    2.0900562  
H   -2.0989778   -0.0102372    1.7591824  
H   -2.8710934   -0.0020419    4.4995513  
H   -1.4634884   -0.0006497    7.7393593  
H    1.5290710    0.0033153    7.3880045  
H    2.1042148    0.0039609    5.1284455  
