58

C    9.1199937    0.0016836   -0.8363905  
C   10.1286586    0.0012850   -1.7456042  
C   11.3661004    0.0015792   -1.0015788  
C   10.9930008    0.0021569    0.4258620  
N    9.6175503    0.0025920    0.4578952  
C   11.8804893    0.0021703    1.4525412  
C   13.2977379    0.0018024    1.1301415  
O   14.1750317    0.0018445    1.9837543  
C   13.7156420    0.0014408   -0.3749039  
O   14.9059332    0.0014360   -0.6585704  
C   12.6674326    0.0011819   -1.3923076  
H   10.0184188    0.0010186   -2.8153985  
H   11.5858379    0.0024690    2.4927769  
H   12.9651460    0.0007267   -2.4320626  
H    9.0609088    0.0014775    1.2928780  
C    6.4690067    0.0019755   -4.4192259  
C    7.5790592    0.0025229   -3.6450419  
C    7.0826137    0.0021760   -2.2775472  
C    5.6103549    0.0015082   -2.4155218  
N    5.2447492    0.0013071   -3.6686472  
C    4.7390840    0.0009613   -1.2727298  
C    5.3125318    0.0006873   -0.0477839  
O    4.6211392    0.0001824    1.1046125  
C    6.7952873    0.0009744    0.1242520  
O    7.2479830    0.0008233    1.2689297  
C    7.6676529    0.0015790   -1.0635621  
H    8.6077291    0.0030016   -3.9627138  
H    5.3014942    0.0000717    1.8019436  
H    6.4103389    0.0020015   -5.4960416  
C    3.2798077    0.0005856   -1.4499661  
C    2.5571132    0.0005565   -2.5996564  
C    1.1637425    0.0001547   -2.2210366  
C    1.1336959   -0.0000200   -0.7459475  
N    2.4483509   -0.0001429   -0.3402730  
C    0.0000000    0.0000000    0.0000000  
C   -1.2757370   -0.0000187   -0.6964411  
O   -2.3524597   -0.0000640   -0.1142306  
C   -1.2676502   -0.0000874   -2.2584078  
O   -2.3355774   -0.0004102   -2.8557287  
C    0.0181551    0.0001758   -2.9516297  
H    2.9547342    0.0006074   -3.5989118  
H    0.0150776    0.0003317   -4.0331632  
H    2.7563626    0.0012823    0.6148051  
C    2.3971438    2.0127888    3.1728260  
C    1.9431056    1.6308205    1.9564670  
C    0.8496017    0.7127664    2.2356185  
C    0.7794028    0.6545384    3.7115134  
N    1.6840587    1.4146091    4.2663826  
C   -0.1885723   -0.1578550    4.3957118  
C   -1.0476298   -0.8789867    3.6398520  
O   -2.0015663   -1.6796266    4.1448486  
C   -1.0022026   -0.8410666    2.1483229  
O   -1.8147390   -1.5232959    1.5241687  
C    0.0000000    0.0000000    1.4700000  
H    2.3054237    1.9346118    0.9892483  
H   -0.2170646   -0.1815267    5.4753125  
H   -2.4487139   -2.0549881    3.3649027  
H    3.2048689    2.6911772    3.3971983  
