62

C   -3.3029211    0.0892877   -1.5420422  
C   -2.5835780    0.0704120   -0.3695847  
C   -1.2035597    0.0325794   -0.7283587  
C   -1.1418363    0.0303039   -2.1454371  
N   -2.4340435    0.0632742   -2.6077458  
C    0.0654693   -0.0026525   -2.8497918  
C    1.2317189   -0.0335737   -2.1101405  
O    2.4383844   -0.0661186   -2.7472528  
C    1.1906851   -0.0322295   -0.6955268  
O    2.4362660   -0.0657144   -0.1032867  
C    0.0000000    0.0000000    0.0000000  
H   -3.0020517    0.0813274    0.6222589  
H   -2.7042803    0.0803135   -3.5745254  
H    0.1192705   -0.0047136   -3.9297473  
H    3.1121606   -0.0841772   -2.0551794  
H    2.3191907   -0.0623702    0.8516404  
C   -6.7722304    0.1869869    1.2764690  
C   -5.5061188    0.1525989    0.7395841  
C   -5.6552277    0.1540899   -0.6789942  
C   -7.0468095    0.1906842   -0.9511857  
N   -7.6963065    0.2079785    0.2581412  
C   -7.5632400    0.2024733   -2.2503967  
C   -6.6583858    0.1771609   -3.2938406  
O   -7.1084336    0.1875661   -4.5823909  
C   -5.2661677    0.1401477   -3.0424920  
O   -4.4952205    0.1178909   -4.1863846  
C   -4.7559941    0.1282250   -1.7610449  
H   -4.5880340    0.1281998    1.3012948  
H   -8.6227602    0.2301809   -2.4645249  
H   -6.3239714    0.1657351   -5.1457796  
H   -3.5687231    0.0934110   -3.9283014  
H   -7.0892746    0.1967561    2.3052287  
C  -10.0884963    2.4466957    3.1309569  
C  -11.3486846    2.0839710    2.7963901  
C  -11.1904122    1.1634719    1.6809841  
C   -9.7292520    1.0830872    1.4685401  
N   -9.0781213    1.8331083    2.3155864  
C   -9.1541409    0.2618630    0.4390135  
C  -10.0002454   -0.4471393   -0.3424961  
O   -9.6019397   -1.2539904   -1.3406868  
C  -11.4796273   -0.3873735   -0.1527088  
O  -12.1895919   -1.0592726   -0.9008553  
C  -12.0451546    0.4624617    0.9102506  
H  -12.2716654    2.4017354    3.2504931  
H  -10.4269932   -1.6174198   -1.7099548  
H  -13.1217038    0.4781683    1.0152636  
H   -9.7768907    3.1203322    3.9133181  
C    0.0000000    0.0000000    1.4700000  
C    1.0541688    0.0001722    2.3260392  
C    0.5103138    0.0000454    3.6635956  
C   -0.9576371   -0.0002459    3.5155732  
N   -1.2018458    0.0001392    2.1615969  
C   -1.8348311   -0.0008317    4.5510609  
C   -1.2972847   -0.0009736    5.9014604  
O   -2.0050672   -0.0014265    6.9001319  
C    0.2542623   -0.0004184    6.0817573  
O    0.7184670   -0.0002256    7.2139121  
C    1.0974552   -0.0000873    4.8889129  
H    2.0940752    0.0005483    2.0517982  
H   -2.9081052   -0.0011668    4.4207061  
H    2.1707277    0.0000911    5.0223670  
H   -2.1128194   -0.0014912    1.7406791  
