58

C   -3.2573531    0.0097044   -1.5109374  
C   -2.5379358    0.0075046   -0.3591955  
C   -1.1434995    0.0032711   -0.7338496  
C   -1.1092566    0.0032135   -2.2088472  
N   -2.4227475    0.0068098   -2.6182604  
C    0.0265537    0.0001756   -2.9515662  
C    1.3002989   -0.0034934   -2.2514983  
O    2.3786687   -0.0064601   -2.8306427  
C    1.2877664   -0.0037522   -0.6895611  
O    2.3539852   -0.0071328   -0.0892040  
C    0.0000000    0.0000000    0.0000000  
H   -2.9383964    0.0085275    0.6389242  
H    0.0296297    0.0003230   -4.0327232  
H   -2.7280345    0.0092237   -3.5742108  
C   -5.6505901    0.0153853   -0.6678789  
C   -6.9152179    0.0173530   -1.1626391  
C   -6.8040582    0.0170401   -2.6022498  
C   -5.3606573    0.0146829   -2.9078290  
N   -4.7161123    0.0141711   -1.6923246  
C   -4.8400631    0.0133302   -4.1610986  
C   -5.7629530    0.0144842   -5.2839553  
O   -5.3925398    0.0134804   -6.4506148  
C   -7.2958057    0.0172329   -4.9836885  
O   -8.0824352    0.0185305   -5.9209580  
C   -7.7361396    0.0182189   -3.5908653  
H   -3.7780063    0.0114754   -4.3634381  
H   -8.7991382    0.0199183   -3.3914791  
H   -5.3226647    0.0149368    0.3589385  
C   -8.1552085    0.0196519   -0.3731337  
C   -8.3111328    0.0203449    0.9758518  
C   -9.7314959    0.0227319    1.2354657  
C  -10.3950387    0.0233482   -0.0822979  
N   -9.3840764    0.0218053   -1.0154874  
C  -11.7396268    0.0250625   -0.2661017  
C  -12.5900259    0.0266153    0.9126064  
O  -13.8125719    0.0282735    0.8519348  
C  -11.9088100    0.0262485    2.3182204  
O  -12.6145029    0.0278517    3.3178477  
C  -10.4497483    0.0240599    2.3888295  
H   -7.5212902    0.0194852    1.7057572  
H  -12.2061014    0.0253563   -1.2414530  
H   -9.9858890    0.0236141    3.3658446  
H   -9.5182860    0.0202235   -2.0099891  
C    0.0000000    0.0000000    1.4700000  
C    1.0541688    0.0001722    2.3260392  
C    0.5103138    0.0000454    3.6635956  
C   -0.9576371   -0.0002459    3.5155732  
N   -1.2018458    0.0001392    2.1615969  
C   -1.8348311   -0.0008317    4.5510609  
C   -1.2972847   -0.0009736    5.9014604  
O   -2.0050672   -0.0014265    6.9001319  
C    0.2542623   -0.0004184    6.0817573  
O    0.7184670   -0.0002256    7.2139121  
C    1.0974552   -0.0000873    4.8889129  
H    2.0940752    0.0005483    2.0517982  
H   -2.9081052   -0.0011668    4.4207061  
H    2.1707277    0.0000911    5.0223670  
H   -2.1128194   -0.0014912    1.7406791  
