58

C   -8.4409735    0.7079392   -2.5696587  
C   -9.7087484    0.7024564   -2.0830483  
C  -10.1976709   -0.6513328   -2.1972665  
C   -9.1029560   -1.4397659   -2.7945635  
N   -8.0669888   -0.5572301   -2.9965334  
C   -9.1706934   -2.7679768   -3.0646957  
C  -10.4041802   -3.4676426   -2.7460870  
O  -10.5636633   -4.6637461   -2.9515220  
C  -11.5766419   -2.6524412   -2.1131682  
O  -12.6201039   -3.2306581   -1.8409325  
C  -11.3845753   -1.2251749   -1.8684789  
H  -10.2407690    1.5500812   -1.6892215  
H   -8.3560461   -3.3275804   -3.5029916  
H  -12.2011570   -0.6679668   -1.4298019  
H   -7.7485017    1.5298297   -2.6525337  
C   -3.9877630    0.7060337   -1.9730980  
C   -3.2941076    0.0012878   -2.9038237  
C   -4.2616235   -0.7404938   -3.6774573  
C   -5.5852979   -0.4077256   -3.1171519  
N   -5.3499626    0.4732136   -2.0868838  
C   -6.7614337   -0.9068528   -3.5746252  
C   -6.7208869   -1.8338309   -4.6933759  
O   -7.7257851   -2.3379509   -5.1774666  
C   -5.3299840   -2.2005531   -5.3022342  
O   -5.2832946   -2.9801748   -6.2441853  
C   -4.1317824   -1.5978944   -4.7234703  
H   -3.1726434   -1.8568417   -5.1509310  
H   -3.6184115    1.3757280   -1.2135067  
H   -6.0587599    0.8852726   -1.5082127  
C    0.0000000    0.0000000    0.0000000  
C    1.0541688   -0.0001723   -0.8560392  
C    0.5103136   -0.0000455   -2.1935956  
C   -0.9576373    0.0002461   -2.0455730  
N   -1.2018460   -0.0001389   -0.6915968  
C   -1.8348314    0.0008319   -3.0810607  
C   -1.2972851    0.0009739   -4.4314603  
O   -2.0050676    0.0014268   -5.4301316  
C    0.2542619    0.0004184   -4.6117572  
O    0.7184666    0.0002257   -5.7439122  
C    1.0974551    0.0000873   -3.4189129  
H    2.0940752   -0.0005484   -0.5817983  
H    2.1707276   -0.0000912   -3.5523673  
H   -2.1128194    0.0014915   -0.2706789  
C    3.2573670    0.0002920    2.9809380  
C    2.5379467    0.0001709    1.8291961  
C    1.1435042   -0.0000331    2.2038498  
C    1.1092607    0.0000083    3.6788474  
N    2.4227561   -0.0001909    4.0882609  
C   -0.0265533    0.0002524    4.4215661  
C   -1.3003036    0.0002640    3.7214979  
O   -2.3786784    0.0004133    4.3006425  
C   -1.2877726   -0.0000311    2.1595606  
O   -2.3539958   -0.0003306    1.5592035  
C    0.0000000    0.0000000    1.4700000  
H    2.9384090    0.0000368    0.8310761  
H   -0.0296291    0.0004086    5.5027230  
H    4.3270393    0.0004765    3.1139444  
H    2.7280493    0.0013407    5.0442112  
