58

C    2.4049833   -1.9809185   -7.6893901  
C    3.4746159   -2.8131796   -7.7748455  
C    3.9057515   -2.8044952   -9.1528456  
C    2.9930888   -1.8923905   -9.8683195  
N    2.1065714   -1.4266412   -8.9248928  
C    3.0689057   -1.6128058  -11.1941355  
C    4.1193690   -2.2531208  -11.9681276  
O    4.2706747   -2.0661300  -13.1683096  
C    5.0970267   -3.2229952  -11.2310156  
O    5.9851898   -3.7681488  -11.8722909  
C    4.9151814   -3.4448649   -9.7986881  
H    3.9116081   -3.3698071   -6.9650207  
H    2.3894730   -0.9406053  -11.6995344  
H    5.5964220   -4.1176772   -9.2957381  
H    1.3592889   -0.7816906   -9.1055995  
C    1.7704315   -2.0997830   -5.2515185  
C    1.5928585   -1.6333167   -6.5144327  
C    0.4607455   -0.7379008   -6.4771947  
C   -0.0100422   -0.7207977   -5.0790331  
N    0.8257127   -1.5670939   -4.3875226  
C   -1.0641734    0.0073898   -4.6315339  
C   -1.7831601    0.8289564   -5.5910245  
O   -2.7459476    1.5206786   -5.2862920  
C   -1.3021140    0.8259151   -7.0770897  
O   -1.8998118    1.5134384   -7.8939923  
C   -0.1528624    0.0000285   -7.4390071  
H    0.1740158    0.0036595   -8.4699583  
H    2.5118283   -2.7880435   -4.8793394  
H    0.7607705   -1.7654785   -3.4059559  
C    1.1319248    0.0015675   -0.8009270  
C    0.7969916    0.0034959   -2.1169404  
C   -0.6453336    0.0035703   -2.1842672  
C   -1.1266831    0.0015415   -0.7896027  
N    0.0000000    0.0000000    0.0000000  
C   -2.4346129    0.0013924   -0.4276297  
C   -3.4350110    0.0031352   -1.4820184  
O   -4.6384610    0.0030897   -1.2583919  
C   -2.9478958    0.0050460   -2.9661075  
O   -3.7809377    0.0062160   -3.8623775  
C   -1.5113821    0.0053068   -3.2312125  
H    1.4821240    0.0045436   -2.9459192  
H   -2.7664565    0.0000185    0.6013447  
H    2.1104318    0.0009428   -0.3488058  
C    2.4951002    2.0940188    2.9809380  
C    1.9440701    1.6314916    1.8291961  
C    0.8759964    0.7350050    2.2038498  
C    0.8497377    0.7130254    3.6788474  
N    1.8560616    1.5571714    4.0882609  
C   -0.0205033   -0.0168748    4.4215661  
C   -0.9962600   -0.8356168    3.7214979  
O   -1.8224391   -1.5286685    4.3006425  
C   -0.9864710   -0.8277881    2.1595606  
O   -1.8030528   -1.5133726    1.5592035  
C    0.0000000    0.0000000    1.4700000  
H    2.2509283    1.8888011    0.8310761  
H   -0.0229599   -0.0187323    5.5027230  
H    3.3143982    2.7817323    3.1139444  
H    2.0889452    1.7545833    5.0442112  
