58

C    7.1378078   -3.0564640   -7.2290752  
C    6.6282253   -1.8451260   -6.8869335  
C    7.0631579   -0.9058688   -7.8936436  
C    7.8736875   -1.6748177   -8.8572560  
N    7.8803218   -2.9713740   -8.3970525  
C    8.4663888   -1.1462651   -9.9577304  
C    8.2947322    0.2748355  -10.2098061  
O    8.7887623    0.8447631  -11.1738706  
C    7.4405544    1.1085857   -9.2023112  
O    7.2892907    2.3059646   -9.4039630  
C    6.8515371    0.4268462   -8.0524673  
H    9.0567568   -1.7279523  -10.6520038  
H    6.2613412    1.0112269   -7.3597255  
H    7.0335632   -4.0041235   -6.7261202  
H    8.3503025   -3.7381426   -8.8422847  
C    5.9779325   -2.0928588   -4.4468283  
C    5.0400354   -1.6304885   -3.5804350  
C    4.1859903   -0.7341817   -4.3234534  
C    4.7069269   -0.7121370   -5.7036452  
N    5.7934741   -1.5560772   -5.7119685  
C    4.1728101    0.0176373   -6.7155016  
C    3.0072075    0.8361657   -6.4258173  
O    2.4535605    1.5290917   -7.2693979  
C    2.4388221    0.8282646   -4.9709355  
O    1.4580061    1.5136694   -4.7150426  
C    3.1006054    0.0006263   -3.9654951  
H    4.9561723   -1.8877887   -2.5395805  
H    4.5702541    0.0195456   -7.7209582  
H    6.7884827   -2.7804145   -4.2674807  
C    3.2798083    0.0005857   -1.4499652  
C    2.5571142    0.0005565   -2.5996556  
C    1.1637432    0.0001548   -2.2210361  
C    1.1336964   -0.0000200   -0.7459473  
N    2.4483512   -0.0001428   -0.3402723  
C    0.0000000    0.0000000    0.0000000  
C   -1.2757368   -0.0000186   -0.6964415  
O   -2.3524598   -0.0000639   -0.1142311  
C   -1.2676497   -0.0000872   -2.2584083  
O   -2.3355766   -0.0004101   -2.8557295  
C    0.0181558    0.0001758   -2.9516296  
H    0.0150788    0.0003319   -4.0331631  
H    4.3498547    0.0008612   -1.3200026  
H    2.7563626    0.0012823    0.6148059  
C    2.5528530    2.1414826    2.8079335  
C    2.0663498    1.7338582    4.0032312  
C    0.9804344    0.8229586    3.6752840  
C    0.9495562    0.7966882    2.1971295  
N    1.8690446    1.5676019    1.6831036  
C    0.0000000    0.0000000    1.4700000  
C   -0.8785127   -0.7372425    2.1869543  
O   -1.8187535   -1.5261249    1.6395491  
C   -0.8723269   -0.7321790    3.6796354  
O   -1.7010379   -1.4274584    4.2670412  
C    0.1115397    0.0933559    4.4024240  
H    2.4028853    2.0163452    4.9860947  
H   -2.2861435   -1.9184361    2.3990168  
H    0.0832434    0.0693689    5.4835595  
H    3.3664920    2.8238276    2.6198634  
