58

C    4.8833646    0.1895904   -7.9802429  
C    5.9634311   -0.4689315   -8.4740860  
C    6.0890786   -0.0903183   -9.8617824  
C    4.9857851    0.8495213  -10.1378904  
N    4.2917917    0.9765162   -8.9567309  
C    4.7580980    1.4359909  -11.3403530  
C    5.6597270    1.1203240  -12.4357786  
O    5.5386231    1.5970767  -13.5566445  
C    6.8348562    0.1272940  -12.1660235  
O    7.6002348   -0.1462878  -13.0806866  
C    6.9780575   -0.4405775  -10.8277907  
H    6.5994158   -1.1431275   -7.9285623  
H    3.9430168    2.1227535  -11.5217642  
H    7.7944183   -1.1271509  -10.6491993  
H    3.4816757    1.5536832   -8.8239224  
C    6.1812373   -2.0122605   -4.4510963  
C    5.2702187   -1.6303461   -3.5260204  
C    4.3856200   -0.7126510   -4.2273195  
C    4.9238565   -0.6545500   -5.6033682  
N    5.9763881   -1.4143797   -5.7405736  
C    4.3191902    0.1574946   -6.6231959  
C    3.2262690    0.8784138   -6.2838837  
O    2.5612864    1.6787220   -7.1343809  
C    2.6590319    0.8406141   -4.9036753  
O    1.6623422    1.5226360   -4.6656073  
C    3.2973506   -0.0000934   -3.8752374  
H    5.2063283   -1.9339562   -2.4950917  
H    1.8346675    2.0540005   -6.6049052  
H    7.0103754   -2.6904142   -4.3261564  
C    3.3321174    0.0004714   -1.3379332  
C    2.6974186    0.0000115   -2.5332308  
C    1.2800441   -0.0002119   -2.2052838  
C    1.2395035    0.0000643   -0.7271293  
N    2.4394063    0.0005458   -0.2131034  
C    0.0000000    0.0000000    0.0000000  
C   -1.1468701    0.0000634   -0.7169542  
O   -2.3742201    0.0000072   -0.1695492  
C   -1.1388767    0.0001606   -2.2096354  
O   -2.2206229    0.0000903   -2.7970413  
C    0.1454526    0.0001815   -2.9324239  
H   -2.9844344    0.0001023   -0.9290168  
H    0.1083580    0.0003680   -4.0135594  
H    4.3940040    0.0007617   -1.1498630  
C    2.4951002    2.0940188    2.9809380  
C    1.9440701    1.6314916    1.8291961  
C    0.8759964    0.7350050    2.2038498  
C    0.8497377    0.7130254    3.6788474  
N    1.8560616    1.5571714    4.0882609  
C   -0.0205033   -0.0168748    4.4215661  
C   -0.9962600   -0.8356168    3.7214979  
O   -1.8224391   -1.5286685    4.3006425  
C   -0.9864710   -0.8277881    2.1595606  
O   -1.8030528   -1.5133726    1.5592035  
C    0.0000000    0.0000000    1.4700000  
H    2.2509283    1.8888011    0.8310761  
H   -0.0229599   -0.0187323    5.5027230  
H    3.3143982    2.7817323    3.1139444  
H    2.0889452    1.7545833    5.0442112  
