58

C   -7.1739069    3.3639886    0.5020994  
C   -6.8358060    2.1213110    0.0713837  
C   -7.9651717    1.2618449    0.3372523  
C   -8.9963504    2.1117686    0.9626248  
N   -8.4542518    3.3742526    1.0344081  
C  -10.2159361    1.6718019    1.3635545  
C  -10.5341121    0.2674043    1.1661572  
O  -11.6057273   -0.2252119    1.4936803  
C   -9.4569162   -0.6510838    0.5059801  
O   -9.7133164   -1.8352603    0.3349653  
C   -8.1786926   -0.0615547    0.1155316  
H  -10.9580377    2.3119038    1.8201342  
H   -7.4383140   -0.7042364   -0.3411128  
H   -6.5953752    4.2731033    0.4756284  
H   -8.9181054    4.1795307    1.4131083  
C   -4.3137496    2.1424315   -0.2077329  
C   -5.5591243    1.7353215   -0.5466749  
C   -5.3648109    0.8246407   -1.6644417  
C   -3.9011714    0.7979211   -1.8733216  
N   -3.2797688    1.5684041   -1.0223196  
C   -3.2941076    0.0012878   -2.9038237  
C   -4.1120063   -0.7354730   -3.6896733  
O   -3.6822295   -1.5242473   -4.6892567  
C   -5.5930505   -0.7299484   -3.5035597  
O   -6.2763268   -1.4248007   -4.2555798  
C   -6.1916584    0.0955202   -2.4395134  
H   -4.4926444   -1.9161852   -5.0617692  
H   -7.2683270    0.0718767   -2.3372576  
H   -4.0287171    2.8244781    0.5774694  
C    0.0000000    0.0000000    0.0000000  
C    1.0541688   -0.0001723   -0.8560392  
C    0.5103136   -0.0000455   -2.1935956  
C   -0.9576373    0.0002461   -2.0455730  
N   -1.2018460   -0.0001389   -0.6915968  
C   -1.8348314    0.0008319   -3.0810607  
C   -1.2972851    0.0009739   -4.4314603  
O   -2.0050676    0.0014268   -5.4301316  
C    0.2542619    0.0004184   -4.6117572  
O    0.7184666    0.0002257   -5.7439122  
C    1.0974551    0.0000873   -3.4189129  
H    2.0940752   -0.0005484   -0.5817983  
H    2.1707276   -0.0000912   -3.5523673  
H   -2.1128194    0.0014915   -0.2706789  
C    1.1319247   -0.0015655    2.2709268  
C    0.7969915   -0.0034943    3.5869401  
C   -0.6453339   -0.0035710    3.6542670  
C   -1.1266833   -0.0015433    2.2596025  
N    0.0000000    0.0000000    1.4700000  
C   -2.4346130   -0.0013964    1.8976294  
C   -3.4350110   -0.0031408    2.9520183  
O   -4.6384611   -0.0030974    2.7283916  
C   -2.9478959   -0.0050506    4.4361073  
O   -3.7809380   -0.0062218    5.3323774  
C   -1.5113823   -0.0053090    4.7012123  
H    1.4821238   -0.0045407    4.4159191  
H   -2.7664565   -0.0000232    0.8686553  
H   -1.1823530   -0.0068408    5.7314848  
H    2.1104316   -0.0009391    1.8188057  
