64

C    4.3849905   -2.1304615   -1.4422215  
C    3.1441142   -1.6666547   -1.8131358  
C    3.3426744   -0.7794829   -2.9122716  
C    4.7370041   -0.7414320   -3.1698022  
N    5.3406538   -1.5714192   -2.2580209  
C    5.2968245    0.0340161   -4.1896406  
C    4.4333178    0.7844924   -4.9637975  
O    4.9266816    1.5593202   -5.9733748  
C    3.0391174    0.7600316   -4.7220873  
O    2.3124330    1.5616238   -5.5780796  
C    2.4861704   -0.0045255   -3.7159919  
H    2.2107619   -1.9339278   -1.3479352  
H    6.3263284   -1.7542337   -2.2032057  
H    6.3586916    0.0674744   -4.3909404  
H    4.1660268    1.9934389   -6.3810646  
H    1.3814038    1.4876309   -5.3471834  
C    1.9763825   -4.3160742    1.5545410  
C    3.0175099   -4.9635787    2.1784478  
C    4.2147362   -4.5626559    1.5147386  
C    3.8384886   -3.6618329    0.4857182  
N    2.4724116   -3.5358256    0.5364469  
C    4.7661116   -3.0647837   -0.3732557  
C    6.0978438   -3.3826699   -0.1899083  
O    7.0455147   -2.8277973   -1.0004944  
C    6.4929094   -4.2795971    0.8310052  
O    7.8545474   -4.4947938    0.8855465  
C    5.5783036   -4.8691823    1.6785968  
H    2.9252949   -5.6423314    3.0089805  
H    1.9205418   -2.9531562   -0.0668084  
H    7.8960924   -3.1785228   -0.7059194  
H    8.0365680   -5.1115854    1.6011175  
H    5.9107306   -5.5524645    2.4513171  
H    0.9190777   -4.3501832    1.7542963  
C    0.0000000    0.0000000    0.0000000  
C    1.0521669   -0.0011848   -0.8862341  
C    0.4917221   -0.0011931   -2.1979130  
C   -0.9187427    0.0003100   -2.0478683  
N   -1.1833170   -0.0009472   -0.7007915  
C   -1.7951698    0.0010259   -3.1372090  
C   -1.2375835    0.0005161   -4.4010425  
O   -2.0474208    0.0015256   -5.4997580  
C    0.1673584   -0.0013557   -4.5711962  
O    0.5673529   -0.0020659   -5.8915551  
C    1.0325773   -0.0023359   -3.4969890  
H    2.0953059   -0.0030542   -0.6200560  
H   -2.0989777    0.0102265   -0.2891825  
H   -2.8710930    0.0020274   -3.0295514  
H   -1.4634881    0.0006427   -6.2693593  
H    1.5290715   -0.0033076   -5.9180042  
C    1.1319247   -0.0015655    2.2709268  
C    0.7969915   -0.0034943    3.5869401  
C   -0.6453339   -0.0035710    3.6542670  
C   -1.1266833   -0.0015433    2.2596025  
N    0.0000000    0.0000000    1.4700000  
C   -2.4346130   -0.0013964    1.8976294  
C   -3.4350110   -0.0031408    2.9520183  
O   -4.6384611   -0.0030974    2.7283916  
C   -2.9478959   -0.0050506    4.4361073  
O   -3.7809380   -0.0062218    5.3323774  
C   -1.5113823   -0.0053090    4.7012123  
H    1.4821238   -0.0045407    4.4159191  
H   -2.7664565   -0.0000232    0.8686553  
H   -1.1823530   -0.0068408    5.7314848  
H    2.1104316   -0.0009391    1.8188057  
