58

C   -2.8697419   -0.0357855   -4.0185823  
C   -4.1342788   -0.0511012   -4.5133419  
C   -4.0231533   -0.0476587   -5.9529513  
C   -2.5798714   -0.0289773   -6.2585302  
N   -1.9353612   -0.0221326   -5.0430264  
C   -2.0593348   -0.0210185   -7.5117992  
C   -2.9821691   -0.0313289   -8.6346559  
O   -2.6118014   -0.0252928   -9.8013137  
C   -4.5148992   -0.0508862   -8.3343884  
O   -5.3014849   -0.0593900   -9.2716570  
C   -4.9551755   -0.0582777   -6.9415663  
H   -5.0413824   -0.0632235   -3.9357363  
H   -6.0180863   -0.0720337   -6.7421800  
H   -0.9395727   -0.0111711   -4.9192024  
C   -3.2570877   -0.0426532   -1.5109376  
C   -2.5377284   -0.0332894   -0.3591961  
C   -1.1434044   -0.0151092   -0.7338497  
C   -1.1091646   -0.0146164   -2.2088473  
N   -2.4225432   -0.0321327   -2.6182609  
C    0.0265474    0.0006021   -2.9515662  
C    1.3001868    0.0174069   -2.2514980  
O    2.3784659    0.0317733   -2.8306423  
C    1.2876610    0.0169466   -0.6895610  
O    2.3537957    0.0307044   -0.0892029  
C    0.0000000    0.0000000    0.0000000  
H   -2.9381539   -0.0387032    0.6389243  
H    0.0296210    0.0007987   -4.0327229  
H   -4.3266696   -0.0565714   -1.6439441  
C    1.3055989   -2.0888140   -5.5922206  
C    2.3254275   -1.6105645   -6.3507072  
C    1.7424560   -0.7213791   -7.3276052  
C    0.2889785   -0.7207729   -7.0742410  
N    0.0895963   -1.5697008   -6.0100710  
C   -0.6154260   -0.0025386   -7.7869099  
C   -0.1245594    0.8249589   -8.8763285  
O   -0.8595118    1.5086363   -9.5768500  
C    1.4109009    0.8393518   -9.1626143  
O    1.8358460    1.5319996  -10.0774485  
C    2.2865843    0.0230497   -8.3255473  
H    3.3671729   -1.8531532   -6.2387638  
H    3.3484730    0.0387402   -8.5301706  
H    1.3400329   -2.7769829   -4.7632892  
H   -0.8017237   -1.7782937   -5.5988719  
C    2.3971438    2.0127888    3.1728260  
C    1.9431056    1.6308205    1.9564670  
C    0.8496017    0.7127664    2.2356185  
C    0.7794028    0.6545384    3.7115134  
N    1.6840587    1.4146091    4.2663826  
C   -0.1885723   -0.1578550    4.3957118  
C   -1.0476298   -0.8789867    3.6398520  
O   -2.0015663   -1.6796266    4.1448486  
C   -1.0022026   -0.8410666    2.1483229  
O   -1.8147390   -1.5232959    1.5241687  
C    0.0000000    0.0000000    1.4700000  
H    2.3054237    1.9346118    0.9892483  
H   -0.2170646   -0.1815267    5.4753125  
H   -2.4487139   -2.0549881    3.3649027  
H    3.2048689    2.6911772    3.3971983  
