58

C    4.6584895    0.5321636   -8.4758816  
C    5.7195813   -0.3105253   -8.3862465  
C    6.3431995   -0.3421685   -9.6881441  
C    5.5527922    0.5576357  -10.5497697  
N    4.5460993    1.0554897   -9.7550367  
C    5.8204656    0.8009960  -11.8577576  
C    6.9631733    0.1318860  -12.4569627  
O    7.2865311    0.2854566  -13.6274987  
C    7.8141407   -0.8256001  -11.5631619  
O    8.7783771   -1.3947466  -12.0567002  
C    7.4269937   -1.0075761  -10.1664319  
H    6.0298969   -0.8487000   -7.5083605  
H    5.2280751    1.4647720  -12.4720750  
H    8.0215148   -1.6720431   -9.5542625  
H    3.8398642    1.7012607  -10.0571280  
C    4.3834955   -0.6859721   -4.3011939  
C    3.2973506   -0.0000934   -3.8752374  
C    2.8440570    0.7452246   -5.0395081  
C    3.7976373    0.3812809   -6.1094679  
N    4.7022574   -0.4574405   -5.6826204  
C    3.6909715    0.9175298   -7.4384318  
C    2.6775113    1.7779345   -7.6873018  
O    2.4582894    2.3541659   -8.8814289  
C    1.6987825    2.1644850   -6.6286091  
O    0.8014167    2.9528431   -6.9260084  
C    1.8294969    1.6008466   -5.2731937  
H    1.6702325    2.9110075   -8.7470884  
H    1.1002947    1.9058791   -4.5346480  
H    5.0085215   -1.3581664   -3.7350923  
C    3.3321174    0.0004714   -1.3379332  
C    2.6974186    0.0000115   -2.5332308  
C    1.2800441   -0.0002119   -2.2052838  
C    1.2395035    0.0000643   -0.7271293  
N    2.4394063    0.0005458   -0.2131034  
C    0.0000000    0.0000000    0.0000000  
C   -1.1468701    0.0000634   -0.7169542  
O   -2.3742201    0.0000072   -0.1695492  
C   -1.1388767    0.0001606   -2.2096354  
O   -2.2206229    0.0000903   -2.7970413  
C    0.1454526    0.0001815   -2.9324239  
H   -2.9844344    0.0001023   -0.9290168  
H    0.1083580    0.0003680   -4.0135594  
H    4.3940040    0.0007617   -1.1498630  
C    2.5528530    2.1414826    2.8079335  
C    2.0663498    1.7338582    4.0032312  
C    0.9804344    0.8229586    3.6752840  
C    0.9495562    0.7966882    2.1971295  
N    1.8690446    1.5676019    1.6831036  
C    0.0000000    0.0000000    1.4700000  
C   -0.8785127   -0.7372425    2.1869543  
O   -1.8187535   -1.5261249    1.6395491  
C   -0.8723269   -0.7321790    3.6796354  
O   -1.7010379   -1.4274584    4.2670412  
C    0.1115397    0.0933559    4.4024240  
H    2.4028853    2.0163452    4.9860947  
H   -2.2861435   -1.9184361    2.3990168  
H    0.0832434    0.0693689    5.4835595  
H    3.3664920    2.8238276    2.6198634  
