58

C   -0.0984236    0.7379600   -7.2865937  
C   -1.0687759    0.5230648   -8.2119653  
C   -0.5294937   -0.4022465   -9.1803705  
C    0.8444214   -0.7110505   -8.7401580  
N    1.0442345    0.0120828   -7.5868831  
C    1.6897175   -1.5504450   -9.3902321  
C    1.2147009   -2.1924201  -10.6046309  
O    1.9003004   -2.9647113  -11.2617619  
C   -0.2368516   -1.8797270  -11.0894229  
O   -0.6476879   -2.4140705  -12.1106717  
C   -1.0537565   -0.9580327  -10.3039308  
H   -2.0502506    0.9627305   -8.2158362  
H    2.6937160   -1.7634292   -9.0503272  
H   -2.0577390   -0.7469743  -10.6462698  
H   -0.1218590    1.3657020   -6.4106480  
C    1.7334697    0.0049246   -3.2500361  
C    3.0913864    0.0046109   -3.2383151  
C    3.5242787    0.0065419   -4.6157896  
C    2.2984620    0.0080464   -5.4368631  
N    1.2476583    0.0065696   -4.5487757  
C    2.2819760    0.0104505   -6.7938550  
C    3.5566099    0.0114097   -7.4923122  
O    3.6472547    0.0134886   -8.7130007  
C    4.8674242    0.0095955   -6.6428609  
O    5.9464907    0.0100754   -7.2198161  
C    4.7574562    0.0073243   -5.1862365  
H    3.7182532    0.0030068   -2.3644448  
H    5.6697682    0.0062836   -4.6053670  
H    0.2773174    0.0086325   -4.8046684  
C    1.1319247    0.0015655   -0.8009267  
C    0.7969916    0.0034943   -2.1169401  
C   -0.6453337    0.0035710   -2.1842668  
C   -1.1266832    0.0015433   -0.7896026  
N    0.0000000    0.0000000    0.0000000  
C   -2.4346130    0.0013964   -0.4276294  
C   -3.4350109    0.0031408   -1.4820183  
O   -4.6384610    0.0030973   -1.2583915  
C   -2.9478956    0.0050505   -2.9661075  
O   -3.7809378    0.0062218   -3.8623775  
C   -1.5113821    0.0053090   -3.2312122  
H   -2.7664565    0.0000232    0.6013446  
H   -1.1823527    0.0068407   -4.2614846  
H    2.1104317    0.0009391   -0.3488056  
C    2.3971438    2.0127888    3.1728260  
C    1.9431056    1.6308205    1.9564670  
C    0.8496017    0.7127664    2.2356185  
C    0.7794028    0.6545384    3.7115134  
N    1.6840587    1.4146091    4.2663826  
C   -0.1885723   -0.1578550    4.3957118  
C   -1.0476298   -0.8789867    3.6398520  
O   -2.0015663   -1.6796266    4.1448486  
C   -1.0022026   -0.8410666    2.1483229  
O   -1.8147390   -1.5232959    1.5241687  
C    0.0000000    0.0000000    1.4700000  
H    2.3054237    1.9346118    0.9892483  
H   -0.2170646   -0.1815267    5.4753125  
H   -2.4487139   -2.0549881    3.3649027  
H    3.2048689    2.6911772    3.3971983  
