58

C    3.1659066   -3.0570126   -7.9902200  
C    2.6563292   -1.8456644   -7.6481055  
C    3.0912662   -0.9064325   -8.6548372  
C    3.9017927   -1.6754071   -9.6184327  
N    3.9084213   -2.9719530   -9.1581991  
C    4.4944961   -1.1468828  -10.7189184  
C    4.3228463    0.2742128  -10.9710278  
O    4.8168789    0.8441159  -11.9351054  
C    3.4686723    1.1079900   -9.9635533  
O    3.3174132    2.3053649  -10.1652310  
C    2.8796516    0.4262799   -8.8136927  
H    5.0848620   -1.7285885  -11.4131791  
H    2.2894577    1.0106791   -8.1209636  
H    3.0616579   -4.0046600   -7.4872431  
H    4.3783986   -3.7387339   -9.6034136  
C    2.0060354   -2.0933380   -5.2079955  
C    1.0681402   -1.6309435   -4.3416130  
C    0.2140993   -0.7346501   -5.0846522  
C    0.7350360   -0.7126395   -6.4648445  
N    1.8215796   -1.5565848   -6.4731481  
C    0.2009225    0.0171137   -7.4767179  
C   -0.9646766    0.8356540   -7.1870526  
O   -1.5183203    1.5285627   -8.0306493  
C   -1.5330621    0.8277890   -5.7321707  
O   -2.5138752    1.5132041   -5.4762939  
C   -0.8712826    0.0001710   -4.7267111  
H    0.9842757   -1.8882192   -3.3007526  
H    0.5983671    0.0189970   -8.4821753  
H    2.8165825   -2.7808931   -5.0286319  
C    1.0965514    0.0001359   -0.8010305  
C    0.0000000    0.0000000    0.0000000  
C   -1.1546563    0.0001470   -0.8669513  
C   -0.6372014    0.0003519   -2.2486282  
N    0.7342871    0.0007337   -2.1395014  
C   -1.4147739    0.0001352   -3.3608717  
C   -2.8576049   -0.0001048   -3.1854462  
O   -3.6427779   -0.0002494   -4.1244907  
C   -3.4275840   -0.0000725   -1.7311666  
O   -4.6406831    0.0000333   -1.5710060  
C   -2.4891867   -0.0001091   -0.6116744  
H   -2.8919122   -0.0002918    0.3920866  
H    2.1388272    0.0000663   -0.5261648  
H    1.3735872   -0.0006099   -2.9130262  
C    0.8681109    0.7263879    2.2709268  
C    0.6127770    0.5096195    3.5869401  
C   -0.4920590   -0.4175482    3.6542670  
C   -0.8620974   -0.7254003    2.2596025  
N    0.0000000    0.0000000    1.4700000  
C   -1.8641242   -1.5660088    1.8976294  
C   -2.6293522   -2.2103885    2.9520183  
O   -3.5512764   -2.9839180    2.7283916  
C   -2.2549728   -1.8987399    4.4361073  
O   -2.8923672   -2.4351063    5.3323774  
C   -1.1543735   -0.9755647    4.7012123  
H    1.1382914    0.9492124    4.4159191  
H   -2.1192137   -1.7782617    0.8686553  
H   -0.9013378   -0.7652422    5.7314848  
H    1.6172880    1.3558399    1.8188057  
