60

C    3.3041274    0.0001175   -1.5420432  
C    2.5845371   -0.0004779   -0.3695850  
C    1.2040006   -0.0000009   -0.7283590  
C    1.1422375    0.0006034   -2.1454377  
N    2.4348639    0.0026105   -2.6077467  
C   -0.0655182    0.0008793   -2.8497919  
C   -1.2321770    0.0002321   -2.1101397  
O   -2.4392816    0.0001141   -2.7472520  
C   -1.1911208   -0.0000009   -0.6955263  
O   -2.4371531   -0.0002320   -0.1032852  
C    0.0000000    0.0000000    0.0000000  
H    3.0031535   -0.0000660    0.6222585  
H   -0.1193549    0.0014838   -3.9297470  
H   -3.1132993   -0.0000652   -2.0551786  
H   -2.3200280   -0.0004070    0.8516415  
H    4.3686623    0.0004069   -1.7024293  
C    5.6587027   -2.1482572   -4.5997633  
C    5.5107200   -1.7555988   -5.8864254  
C    4.3729215   -0.8490962   -5.8734398  
C    3.9446799   -0.8087292   -4.4586734  
N    4.6947113   -1.5682539   -3.7072984  
C    2.8310662   -0.0116225   -4.0232751  
C    2.1753243    0.7125519   -4.9586407  
O    1.1191532    1.5001777   -4.6937097  
C    2.5836171    0.6930789   -6.3942863  
O    1.9410867    1.3768917   -7.1910142  
C    3.7292179   -0.1325933   -6.8159362  
H    6.1008491   -2.0452553   -6.7390230  
H    0.8721710    1.8818760   -5.5553698  
H    6.3942974   -2.8231069   -4.1917795  
C    4.4808950   -1.1539331   -9.0138826  
C    4.0880272   -0.1144907   -8.2413581  
C    4.0959071    1.0373205   -9.1300477  
C    4.5300319    0.4972192  -10.4363442  
N    4.7570950   -0.7867582  -10.3744234  
C    4.6669612    1.3326786  -11.5975256  
C    4.3827333    2.6478417  -11.4600669  
O    4.4672940    3.5424401  -12.4593582  
C    3.9419084    3.2229288  -10.1550343  
O    3.7002041    4.4287781  -10.1028173  
C    3.8091268    2.3453115   -8.9785642  
H    4.9862782    0.9112592  -12.5395192  
H    4.2042704    4.3896508  -12.0566110  
H    3.4870296    2.8005399   -8.0516063  
H    4.6030952   -2.1861037   -8.7263673  
C    0.8400945    0.7047457    2.2710304  
C    0.0000000    0.0000000    1.4700000  
C   -0.8844236   -0.7423113    2.3369512  
C   -0.4878984   -0.4098547    3.7186280  
N    0.5629682    0.4714286    3.6095011  
C   -1.0836927   -0.9095027    4.8308716  
C   -2.1891196   -1.8367527    4.6554461  
O   -2.7906899   -2.3413415    5.5944904  
C   -2.6257283   -2.2031529    3.2011665  
O   -3.5549479   -2.9829990    3.0410059  
C   -1.9068976   -1.5999348    2.0816745  
H   -0.7774656   -0.6525820    5.8354244  
H   -2.2155208   -1.8586617    1.0779135  
H    1.6384792    1.3747609    1.9961646  
H    1.0518368    0.8833920    4.3830260  
