58

C   -0.2258924    0.1910653   -8.8157785  
C    0.5559099   -0.4674268   -9.7097858  
C    0.1006051   -0.0884362  -11.0265621  
C   -1.0185451    0.8515924  -10.8249692  
N   -1.1661604    0.9783253   -9.4629703  
C   -1.7198870    1.4384230  -11.8276923  
C   -1.3477840    1.1229732  -13.1968410  
O   -1.9184572    1.6000532  -14.1689657  
C   -0.1657569    0.1297487  -13.4337416  
O    0.1563679   -0.1436533  -14.5821087  
C    0.5143202   -0.4385135  -12.2725246  
H    1.3596921   -1.1418404   -9.4737482  
H   -2.5374146    2.1253188  -11.6581849  
H    1.3318566   -1.1252197  -12.4451286  
H   -1.8501297    1.5555368   -9.0090313  
C    2.4064702   -2.0119087   -6.1315527  
C    1.9558553   -1.6301626   -4.9138521  
C    0.8614672   -0.7121808   -5.1897589  
C    0.7870639   -0.6537474   -6.6654397  
N    1.6902156   -1.4136449   -7.2229901  
C   -0.1829371    0.1586449   -7.3467641  
C   -1.0399148    0.8795791   -6.5883597  
O   -1.9953663    1.6801936   -7.0905244  
C   -0.9902404    0.8414487   -5.0969710  
O   -1.8010679    1.5235043   -4.4704093  
C    0.0139741    0.0003876   -4.4216236  
H    2.3209545   -1.9340559   -3.9477120  
H   -2.4403315    2.0553965   -6.3092550  
H    3.2136232   -2.6901816   -6.3583201  
C    3.2798085    0.0005853   -1.4499648  
C    2.5571144    0.0005562   -2.5996554  
C    1.1637436    0.0001546   -2.2210360  
C    1.1336965   -0.0000201   -0.7459470  
N    2.4483513   -0.0001430   -0.3402717  
C    0.0000000    0.0000000    0.0000000  
C   -1.2757367   -0.0000188   -0.6964414  
O   -2.3524597   -0.0000640   -0.1142313  
C   -1.2676494   -0.0000875   -2.2584081  
O   -2.3355762   -0.0004102   -2.8557294  
C    0.0181562    0.0001757   -2.9516296  
H    2.9547357    0.0006072   -3.5989105  
H    4.3498550    0.0008609   -1.3200021  
H    2.7563627    0.0012824    0.6148063  
C    2.4951002    2.0940188    2.9809380  
C    1.9440701    1.6314916    1.8291961  
C    0.8759964    0.7350050    2.2038498  
C    0.8497377    0.7130254    3.6788474  
N    1.8560616    1.5571714    4.0882609  
C   -0.0205033   -0.0168748    4.4215661  
C   -0.9962600   -0.8356168    3.7214979  
O   -1.8224391   -1.5286685    4.3006425  
C   -0.9864710   -0.8277881    2.1595606  
O   -1.8030528   -1.5133726    1.5592035  
C    0.0000000    0.0000000    1.4700000  
H    2.2509283    1.8888011    0.8310761  
H   -0.0229599   -0.0187323    5.5027230  
H    3.3143982    2.7817323    3.1139444  
H    2.0889452    1.7545833    5.0442112  
