58

C    0.0000000    0.0000000    0.0000000  
C    1.0541696   -0.0001722   -0.8560389  
C    0.5103148   -0.0000455   -2.1935956  
C   -0.9576363    0.0002459   -2.0455734  
N   -1.2018453   -0.0001391   -0.6915972  
C   -1.8348301    0.0008316   -3.0810614  
C   -1.2972834    0.0009736   -4.4314607  
O   -2.0050657    0.0014265   -5.4301322  
C    0.2542633    0.0004184   -4.6117575  
O    0.7184687    0.0002257   -5.7439120  
C    1.0974567    0.0000873   -3.4189128  
H    2.0940760   -0.0005483   -0.5817983  
H    2.1707283   -0.0000911   -3.5523665  
H   -2.1128191    0.0014912   -0.2706800  
C   -3.2941063    0.0012872   -2.9038249  
C   -3.9928916    0.0012412   -1.7448261  
C   -5.3903264    0.0018076   -2.1493951  
C   -5.3503921    0.0022631   -3.6275657  
N   -4.1243027    0.0018801   -4.0755540  
C   -6.5485029    0.0028439   -4.4210497  
C   -7.7326786    0.0025753   -3.7675488  
O   -8.9284315    0.0030579   -4.3809134  
C   -7.8059015    0.0017435   -2.2766437  
O   -8.9180020    0.0016639   -1.7489566  
C   -6.5627954    0.0012025   -1.4850558  
H   -3.6076315    0.0007785   -0.7395145  
H   -9.5790584    0.0026678   -3.6557672  
H   -6.6586511    0.0004895   -0.4075398  
C   -3.8807315   -2.1038151   -7.2010356  
C   -4.3709536   -1.6386628   -8.3789110  
C   -5.4575219   -0.7433782   -8.0584884  
C   -5.5608625   -0.7249200   -6.5868327  
N   -4.5775041   -1.5703863   -6.1273960  
C   -6.4685325    0.0035662   -5.8888729  
C   -7.4063975    0.8240473   -6.6370408  
O   -8.2616258    1.5159364   -6.1002211  
C   -7.3152824    0.8195629   -8.1963619  
O   -8.0997931    1.5061643   -8.8369730  
C   -6.2939595   -0.0065210   -8.8353741  
H   -4.0124416   -1.8937577   -9.3602412  
H   -6.2373751   -0.0038921   -9.9154275  
H   -3.0692053   -2.7915857   -7.0270045  
H   -4.3929657   -1.7677801   -5.1609443  
C    3.2798086   -0.0005857    2.9199648  
C    2.5571146   -0.0005566    4.0696553  
C    1.1637436   -0.0001548    3.6910360  
C    1.1336965    0.0000200    2.2159470  
N    2.4483514    0.0001428    1.8102719  
C    0.0000000    0.0000000    1.4700000  
C   -1.2757367    0.0000186    2.1664417  
O   -2.3524596    0.0000640    1.5842315  
C   -1.2676493    0.0000873    3.7284083  
O   -2.3355761    0.0004100    4.3257297  
C    0.0181563   -0.0001760    4.4216297  
H    2.9547357   -0.0006076    5.0689105  
H    0.0150794   -0.0003319    5.5031631  
H    4.3498549   -0.0008612    2.7900019  
H    2.7563627   -0.0012824    0.8551938  
