60

C   -3.3003548    0.0018919   -1.4738969  
C   -2.5232825    0.0015001   -2.6090733  
C   -1.1623208    0.0009839   -2.1820094  
C   -1.1711891    0.0008003   -0.7636130  
N   -2.4852286    0.0033138   -0.3662345  
C    0.0000000    0.0000000    0.0000000  
C    1.2020379   -0.0009333   -0.6806481  
O    2.3759235   -0.0020914    0.0157739  
C    1.2314644   -0.0003917   -2.0955509  
O    2.5054372   -0.0010333   -2.6250184  
C    0.0764506    0.0006710   -2.8495194  
H   -2.8919961    0.0026821   -3.6205285  
H   -2.8036323   -0.0067627    0.5858680  
H    3.0835622   -0.0022955   -0.6418826  
H    2.4360033   -0.0006334   -3.5845928  
H    0.1304089    0.0012463   -3.9319084  
C   -6.7690617    0.0040220   -4.2725592  
C   -5.4996714    0.0037069   -3.8032749  
C   -5.6352797    0.0039648   -2.3547894  
C   -7.0947601    0.0045546   -2.1170927  
N   -7.7645144    0.0045100   -3.2375478  
C   -7.6497391    0.0049085   -0.7915422  
C   -6.7859632    0.0042944    0.2492387  
O   -7.1644538    0.0045358    1.5387290  
C   -5.3077369    0.0033192    0.0418565  
O   -4.5810503    0.0029224    1.0354093  
C   -4.7630504    0.0030164   -1.3275378  
H   -4.5843350    0.0032540   -4.3700507  
H   -8.7202876    0.0055446   -0.6471949  
H   -6.3302569    0.0039249    2.0419868  
C   -6.3821476    0.0050641   -6.7802796  
C   -7.1017915    0.0070355   -7.9318802  
C   -8.4961605    0.0076120   -7.5569544  
C   -8.5301177    0.0058311   -6.0819519  
N   -7.2165433    0.0039390   -5.6727948  
C   -9.6657869    0.0061614   -5.3390109  
C  -10.9396722    0.0081955   -6.0388299  
O  -12.0179340    0.0085850   -5.4594744  
C  -10.9274450    0.0098514   -7.6007685  
O  -11.9937849    0.0112629   -8.2009178  
C   -9.6398067    0.0095933   -8.2905804  
H   -6.7015232    0.0077958   -8.9300782  
H   -9.6686525    0.0049622   -4.2578541  
H   -9.6400170    0.0109520   -9.3721173  
H   -5.3124495    0.0041215   -6.6474819  
C    0.0000000    0.0000000    1.4700000  
C    1.0541688    0.0001722    2.3260392  
C    0.5103138    0.0000454    3.6635956  
C   -0.9576371   -0.0002459    3.5155732  
N   -1.2018458    0.0001392    2.1615969  
C   -1.8348311   -0.0008317    4.5510609  
C   -1.2972847   -0.0009736    5.9014604  
O   -2.0050672   -0.0014265    6.9001319  
C    0.2542623   -0.0004184    6.0817573  
O    0.7184670   -0.0002256    7.2139121  
C    1.0974552   -0.0000873    4.8889129  
H    2.0940752    0.0005483    2.0517982  
H   -2.9081052   -0.0011668    4.4207061  
H    2.1707277    0.0000911    5.0223670  
H   -2.1128194   -0.0014912    1.7406791  
