58

C    5.9083926   -1.1080646   -3.0964865  
C    6.1137444   -1.9808153   -2.0765787  
C    7.5303603   -2.2574885   -2.0380312  
C    8.1378433   -1.4687069   -3.1268734  
N    7.1012490   -0.7946568   -3.7302124  
C    9.4627258   -1.4562759   -3.4205367  
C   10.3495313   -2.2745414   -2.6102558  
O   11.5581664   -2.3311942   -2.7954290  
C    9.7278247   -3.1181741   -1.4519942  
O   10.4644995   -3.8111471   -0.7632560  
C    8.2853220   -3.0492517   -1.2322508  
H    5.3589585   -2.3848263   -1.4256660  
H    9.8879581   -0.8704322   -4.2235775  
H    7.8627635   -3.6362405   -0.4281292  
H    7.1968370   -0.1695978   -4.5094499  
C    3.4164198   -0.7248700   -3.0395971  
C    4.6504340   -0.5074365   -3.5630537  
C    4.4860925    0.4201609   -4.6573073  
C    3.0448512    0.7275403   -4.7289398  
N    2.4521483    0.0014840   -3.7217481  
C    2.4820252    1.5683543   -5.6333529  
C    3.3539029    2.2134706   -6.6009225  
O    2.9430855    2.9872366   -7.4557999  
C    4.8835164    1.9023314   -6.5436505  
O    5.6273706    2.4393195   -7.3533345  
C    5.3721319    0.9788730   -5.5227047  
H    1.4224211    1.7802520   -5.6686794  
H    6.4325781    0.7689071   -5.4896562  
H    3.1302853   -1.3547903   -2.2130277  
C    0.0000000    0.0000000    0.0000000  
C    1.0662923   -0.0000101   -0.8334270  
C    0.4961873    0.0000065   -2.1718887  
C   -0.9663854   -0.0000848   -1.9540250  
N   -1.2632773   -0.0000083   -0.6828660  
C   -1.8985359   -0.0000514   -3.0477261  
C   -1.3925770    0.0004566   -4.3020547  
O   -2.1456378    0.0005414   -5.4151314  
C    0.0786240    0.0009326   -4.5545000  
O    0.4683767    0.0012591   -5.7221100  
C    1.0143171    0.0008444   -3.4159031  
H    2.1107200    0.0000633   -0.5721865  
H   -2.9622181   -0.0003268   -2.8593381  
H   -1.5042265    0.0009697   -6.1484419  
C    3.1301144    0.0010313    3.1728260  
C    2.5367765    0.0002768    1.9564670  
C    1.1089900   -0.0001027    2.2356185  
C    1.0177864    0.0004150    3.7115134  
N    2.1993570    0.0011613    4.2663826  
C   -0.2459220    0.0002880    4.3957118  
C   -1.3675327    0.0000606    3.6398520  
O   -2.6129319   -0.0000866    4.1448486  
C   -1.3083589   -0.0000910    2.1483229  
O   -2.3693264   -0.0004206    1.5241687  
C    0.0000000    0.0000000    1.4700000  
H    3.0096015    0.0001008    0.9892483  
H   -0.2829642    0.0004689    5.4753125  
H   -3.1967446   -0.0002093    3.3649027  
H    4.1849273    0.0015113    3.3971983  
