58

C   -1.7334752    0.0025762   -3.2500361  
C   -3.0913816    0.0078207   -3.2383135  
C   -3.5242764    0.0082503   -4.6157886  
C   -2.2984722    0.0027578   -5.4368640  
N   -1.2476716   -0.0000933   -4.5487769  
C   -2.2819937    0.0010686   -6.7938571  
C   -3.5566220    0.0051431   -7.4923143  
O   -3.6472720    0.0040909   -8.7130036  
C   -4.8674220    0.0112382   -6.6428608  
O   -5.9464820    0.0150115   -7.2198147  
C   -4.7574481    0.0122777   -5.1862355  
H   -3.7182397    0.0112053   -2.3644427  
H   -1.3716644   -0.0031088   -7.3771177  
H   -0.2773437   -0.0055383   -4.8046713  
C   -1.1319213    0.0033323   -0.8009271  
C   -0.7969996   -0.0000455   -2.1169402  
C    0.6453119   -0.0063632   -2.1842674  
C    1.1266657   -0.0064183   -0.7896031  
N    0.0000000    0.0000000    0.0000000  
C    2.4345838   -0.0119308   -0.4276300  
C    3.4349648   -0.0180038   -1.4820187  
O    4.6384042   -0.0231676   -1.2583923  
C    2.9478461   -0.0178057   -2.9661081  
O    3.7808749   -0.0225813   -3.8623778  
C    1.5113448   -0.0118484   -3.2312127  
H    2.7664303   -0.0119935    0.6013441  
H    1.1823119   -0.0119563   -4.2614850  
H   -2.1104161    0.0081926   -0.3488058  
C   -5.9239932    2.1144783   -1.4826756  
C   -5.2501592    1.6483074   -2.5655914  
C   -6.1432024    0.7544634   -3.2644131  
C   -7.4015837    0.7380053   -2.4943512  
N   -7.2032821    1.5824997   -1.4264580  
C   -8.4982200    0.0118868   -2.8287847  
C   -8.4348361   -0.8083214   -4.0270230  
O   -9.3696898   -1.4982519   -4.4121781  
C   -7.1120175   -0.8063186   -4.8576572  
O   -7.0467507   -1.4931839   -5.8682096  
C   -5.9974282    0.0177500   -4.3967298  
H   -4.2424457    1.9015428   -2.8430783  
H   -9.4115285    0.0140569   -2.2501878  
H   -5.5935715    2.8017298   -0.7208381  
H   -7.8838288    1.7831982   -0.7167944  
C    2.3971438    2.0127888    3.1728260  
C    1.9431056    1.6308205    1.9564670  
C    0.8496017    0.7127664    2.2356185  
C    0.7794028    0.6545384    3.7115134  
N    1.6840587    1.4146091    4.2663826  
C   -0.1885723   -0.1578550    4.3957118  
C   -1.0476298   -0.8789867    3.6398520  
O   -2.0015663   -1.6796266    4.1448486  
C   -1.0022026   -0.8410666    2.1483229  
O   -1.8147390   -1.5232959    1.5241687  
C    0.0000000    0.0000000    1.4700000  
H    2.3054237    1.9346118    0.9892483  
H   -0.2170646   -0.1815267    5.4753125  
H   -2.4487139   -2.0549881    3.3649027  
H    3.2048689    2.6911772    3.3971983  
