58

C    4.3047788   -2.1086500   -1.2859243  
C    5.3774559   -1.6442162   -1.9771117  
C    4.8701585   -0.7486138   -2.9897228  
C    3.4034918   -0.7291862   -2.8306572  
N    3.1250159   -1.5744517   -1.7814350  
C    2.5562217   -0.0001543   -3.6003001  
C    3.1269051    0.8199333   -4.6559103  
O    2.4474939    1.5122577   -5.4024942  
C    4.6776928    0.8144233   -4.8425425  
O    5.1696074    1.5006857   -5.7281637  
C    5.4870227   -0.0121793   -3.9505978  
H    6.4066157   -1.8999864   -1.7981563  
H    6.5600124   -0.0102599   -4.0862903  
H    2.2064273   -1.7712342   -1.4285628  
C    5.3385863   -3.6433851    0.4275033  
C    4.2666879   -3.0465534   -0.1546479  
C    3.0936464   -3.5096217    0.5484719  
C    3.5734488   -4.4317452    1.5955000  
N    4.9428748   -4.4695323    1.4684804  
C    2.7698279   -5.0804907    2.4758562  
C    1.3366743   -4.8556870    2.3860265  
O    0.5299622   -5.3933882    3.1332844  
C    0.8063960   -3.8833203    1.2846133  
O   -0.3982629   -3.6864643    1.1991418  
C    1.7704799   -3.2423172    0.3938218  
H    3.1421083   -5.7526664    3.2364462  
H    1.3952057   -2.5702930   -0.3659655  
H    6.3842964   -3.5493670    0.1834955  
H    5.5599734   -5.0119679    2.0446755  
C    0.0000000    0.0000000    0.0000000  
C    1.0541688   -0.0001719   -0.8560391  
C    0.5103141   -0.0000449   -2.1935955  
C   -0.9576367    0.0002461   -2.0455733  
N   -1.2018459   -0.0001392   -0.6915970  
C   -1.8348306    0.0008319   -3.0810611  
C   -1.2972842    0.0009739   -4.4314605  
O   -2.0050664    0.0014267   -5.4301321  
C    0.2542628    0.0004190   -4.6117571  
O    0.7184677    0.0002263   -5.7439119  
C    1.0974556    0.0000880   -3.4189127  
H    2.0940752   -0.0005479   -0.5817978  
H   -2.9081050    0.0011669   -2.9507065  
H   -2.1128195    0.0014911   -0.2706793  
C    1.1319247   -0.0015655    2.2709268  
C    0.7969915   -0.0034943    3.5869401  
C   -0.6453339   -0.0035710    3.6542670  
C   -1.1266833   -0.0015433    2.2596025  
N    0.0000000    0.0000000    1.4700000  
C   -2.4346130   -0.0013964    1.8976294  
C   -3.4350110   -0.0031408    2.9520183  
O   -4.6384611   -0.0030974    2.7283916  
C   -2.9478959   -0.0050506    4.4361073  
O   -3.7809380   -0.0062218    5.3323774  
C   -1.5113823   -0.0053090    4.7012123  
H    1.4821238   -0.0045407    4.4159191  
H   -2.7664565   -0.0000232    0.8686553  
H   -1.1823530   -0.0068408    5.7314848  
H    2.1104316   -0.0009391    1.8188057  
