62

C    1.1243403    0.0100071   -0.7919005  
C    0.7474063    0.0234641   -2.1148547  
C   -0.6787396    0.0234399   -2.1414694  
C   -1.1201751    0.0098444   -0.7935542  
N    0.0000000    0.0000000    0.0000000  
C   -2.4730821    0.0063381   -0.4408232  
C   -3.3971966    0.0170530   -1.4675050  
O   -4.7313526    0.0145634   -1.1793451  
C   -2.9763665    0.0303112   -2.8186312  
O   -4.0166498    0.0394585   -3.7247610  
C   -1.6418581    0.0335043   -3.1673475  
H   -2.8160161   -0.0041484    0.5845973  
H   -5.1938834    0.0230181   -2.0274363  
H   -3.6464700    0.0481814   -4.6127333  
H   -1.3497493    0.0435688   -4.2109226  
H    2.1062462    0.0053096   -0.3505414  
C    4.4933197   -2.1126525   -2.7414616  
C    4.8571183   -1.6937521   -3.9758651  
C    3.8033290   -0.7789764   -4.3872210  
C    2.8586066   -0.7630355   -3.2497547  
N    3.2578298   -1.5428581   -2.2820322  
C    1.6628931    0.0339120   -3.2649305  
C    1.4221061    0.7812715   -4.3662068  
O    0.3456096    1.5716373   -4.5162629  
C    2.3565579    0.7867817   -5.5302219  
O    2.0740526    1.4909726   -6.4995136  
C    3.5764102   -0.0392394   -5.4905466  
H    5.7325101   -1.9711769   -4.5378265  
H    0.4529351    1.9720177   -5.3979256  
H    5.0127321   -2.8009846   -2.0938636  
C    5.8912807   -3.2061678   -7.6356805  
C    5.0757944   -2.5317518   -6.7566968  
C    5.0825199   -1.1608607   -7.1506663  
C    5.9266270   -1.0582033   -8.2859515  
N    6.4027519   -2.3178965   -8.5525884  
C    6.1674513    0.1525806   -8.9423007  
C    5.5445721    1.2802242   -8.4436836  
O    5.7447098    2.4883222   -9.0465581  
C    4.6990961    1.1981050   -7.3117629  
O    4.1532258    2.4083634   -6.9367371  
C    4.4612771    0.0040176   -6.6635941  
H    4.5426371   -2.9733349   -5.9322325  
H    7.0181706   -2.5577062   -9.3087183  
H    6.8098302    0.2375074   -9.8079441  
H    5.2256371    3.1320408   -8.5471047  
H    3.5960536    2.2648299   -6.1656592  
H    6.1496845   -4.2502944   -7.6802485  
C    0.8400945    0.7047457    2.2710304  
C    0.0000000    0.0000000    1.4700000  
C   -0.8844236   -0.7423113    2.3369512  
C   -0.4878984   -0.4098547    3.7186280  
N    0.5629682    0.4714286    3.6095011  
C   -1.0836927   -0.9095027    4.8308716  
C   -2.1891196   -1.8367527    4.6554461  
O   -2.7906899   -2.3413415    5.5944904  
C   -2.6257283   -2.2031529    3.2011665  
O   -3.5549479   -2.9829990    3.0410059  
C   -1.9068976   -1.5999348    2.0816745  
H   -0.7774656   -0.6525820    5.8354244  
H   -2.2155208   -1.8586617    1.0779135  
H    1.6384792    1.3747609    1.9961646  
H    1.0518368    0.8833920    4.3830260  
