58

C    5.1951194   -1.0837498   -7.1687937  
C    5.9873243   -0.7499930   -8.2200273  
C    5.8349397    0.6707542   -8.4276139  
C    4.8822090    1.1407286   -7.4037874  
N    4.5318911    0.0286585   -6.6733988  
C    4.4751080    2.4279130   -7.2654820  
C    5.0108918    3.4163525   -8.1866008  
O    4.7059023    4.6010253   -8.1437943  
C    6.0211250    2.9409200   -9.2789372  
O    6.4786700    3.7640040  -10.0602463  
C    6.3841734    1.5268506   -9.3284898  
H    6.6075070   -1.4223678   -8.7856240  
H    3.7754360    2.7517369   -6.5075199  
H    7.0844099    1.2058296  -10.0876595  
H    5.0398472   -2.0488123   -6.7144426  
C    4.6190967   -2.0899187   -2.8279649  
C    3.4606683   -1.6280057   -2.2906061  
C    2.8761401   -0.7301694   -3.2586205  
C    3.7955634   -0.7067285   -4.4122676  
N    4.8319965   -1.5514033   -4.0878914  
C    3.5979916    0.0246978   -5.5381832  
C    2.3999527    0.8436571   -5.6190796  
O    2.1321349    1.5380348   -6.5908895  
C    1.4124499    0.8342975   -4.4088912  
O    0.4006155    1.5200500   -4.4654210  
C    1.7334695    0.0049281   -3.2500363  
H    3.0613134   -1.8865707   -1.3260992  
H    5.3352943   -2.7782579   -2.4094676  
H    5.6204864   -1.7480985   -4.6766544  
C    1.1319246    0.0015678   -0.8009268  
C    0.7969914    0.0034958   -2.1169401  
C   -0.6453340    0.0035696   -2.1842669  
C   -1.1266832    0.0015410   -0.7896025  
N    0.0000000    0.0000000    0.0000000  
C   -2.4346129    0.0013913   -0.4276292  
C   -3.4350111    0.0031335   -1.4820181  
O   -4.6384614    0.0030875   -1.2583914  
C   -2.9478961    0.0050442   -2.9661074  
O   -3.7809382    0.0062135   -3.8623773  
C   -1.5113825    0.0053055   -3.2312122  
H   -2.7664565    0.0000174    0.6013448  
H   -1.1823533    0.0068381   -4.2614848  
H    2.1104316    0.0009435   -0.3488059  
C    0.8400945    0.7047457    2.2710304  
C    0.0000000    0.0000000    1.4700000  
C   -0.8844236   -0.7423113    2.3369512  
C   -0.4878984   -0.4098547    3.7186280  
N    0.5629682    0.4714286    3.6095011  
C   -1.0836927   -0.9095027    4.8308716  
C   -2.1891196   -1.8367527    4.6554461  
O   -2.7906899   -2.3413415    5.5944904  
C   -2.6257283   -2.2031529    3.2011665  
O   -3.5549479   -2.9829990    3.0410059  
C   -1.9068976   -1.5999348    2.0816745  
H   -0.7774656   -0.6525820    5.8354244  
H   -2.2155208   -1.8586617    1.0779135  
H    1.6384792    1.3747609    1.9961646  
H    1.0518368    0.8833920    4.3830260  
