60

C    1.1188644    0.0008221   -0.8003800  
C    0.0000000    0.0000000    0.0000000  
C   -1.1323862    0.0008898   -0.8673528  
C   -0.6382657    0.0019678   -2.1969278  
N    0.7324022    0.0038479   -2.1202235  
C   -1.4770906    0.0027317   -3.3154808  
C   -2.8395468    0.0020943   -3.0876862  
O   -3.7039190    0.0024425   -4.1440357  
C   -3.3517866    0.0013930   -1.7684337  
O   -4.7300490    0.0012365   -1.7073132  
C   -2.5248543    0.0009123   -0.6644820  
H    1.3576320   -0.0056170   -2.9057037  
H   -4.5940019    0.0021828   -3.7685142  
H   -4.9934598    0.0007262   -0.7819929  
H   -2.9462579    0.0005602    0.3339648  
H    2.1619894    0.0009352   -0.5342066  
C    1.8643876   -2.0046421   -5.4763639  
C    1.0207151   -1.6242496   -4.4888941  
C    0.0877448   -0.7071218   -5.1252453  
C    0.5271961   -0.6476496   -6.5358937  
N    1.5681767   -1.4062512   -6.7477267  
C   -0.1489730    0.1643148   -7.5098529  
C   -1.2158991    0.8838465   -7.0935867  
O   -1.9402382    1.6839123   -7.8943796  
C   -1.6840051    0.8446417   -5.6767239  
O   -2.6620642    1.5254390   -5.3682834  
C   -0.9736284    0.0040463   -4.6965764  
H    1.0302558   -1.9285164   -3.4562241  
H   -2.6279609    2.0580956   -7.3145714  
H    2.7010000   -2.6819611   -5.4108473  
C    0.7664344   -0.8337957   -9.6557616  
C    0.3177231    0.1977995   -8.9034003  
C    0.3957209    1.3597330   -9.7753668  
C    0.9273224    0.8334682  -11.0509176  
N    1.1464871   -0.4517756  -10.9868507  
C    1.1541939    1.6818416  -12.1884055  
C    0.8628603    2.9961371  -12.0576899  
O    1.0252631    3.9019313  -13.0370789  
C    0.3247433    3.5574184  -10.7835029  
O    0.0821080    4.7632684  -10.7358045  
C    0.1007575    2.6667030   -9.6309489  
H    1.5437225    1.2703847  -13.1081230  
H    0.7338916    4.7451946  -12.6457195  
H   -0.2903286    3.1121475   -8.7260394  
H    0.8642986   -1.8695489   -9.3718396  
C    0.8400945    0.7047457    2.2710304  
C    0.0000000    0.0000000    1.4700000  
C   -0.8844236   -0.7423113    2.3369512  
C   -0.4878984   -0.4098547    3.7186280  
N    0.5629682    0.4714286    3.6095011  
C   -1.0836927   -0.9095027    4.8308716  
C   -2.1891196   -1.8367527    4.6554461  
O   -2.7906899   -2.3413415    5.5944904  
C   -2.6257283   -2.2031529    3.2011665  
O   -3.5549479   -2.9829990    3.0410059  
C   -1.9068976   -1.5999348    2.0816745  
H   -0.7774656   -0.6525820    5.8354244  
H   -2.2155208   -1.8586617    1.0779135  
H    1.6384792    1.3747609    1.9961646  
H    1.0518368    0.8833920    4.3830260  
