58

C   -3.9842539    0.7274599   -1.9451209  
C   -5.3215327    0.5112356   -2.0400278  
C   -5.5219228   -0.4153214   -3.1291425  
C   -4.1821622   -0.7234085   -3.6647869  
N   -3.2941077    0.0012869   -2.9038234  
C   -3.9439561   -1.5635947   -4.7035602  
C   -5.0831561   -2.2072390   -5.3363959  
O   -4.9726043   -2.9803461   -6.2789380  
C   -6.5111636   -1.8953301   -4.7856585  
O   -7.4779449   -2.4310782   -5.3106038  
C   -6.6412928   -0.9726601   -3.6606705  
H   -2.9533236   -1.7760304   -5.0809562  
H   -7.6334625   -0.7621531   -3.2851578  
H   -3.4448692    1.3563720   -1.2556112  
C    0.0000000    0.0000000    0.0000000  
C    1.0541686   -0.0001723   -0.8560392  
C    0.5103131   -0.0000457   -2.1935955  
C   -0.9576376    0.0002457   -2.0455728  
N   -1.2018463   -0.0001391   -0.6915967  
C   -1.8348316    0.0008313   -3.0810606  
C   -1.2972858    0.0009730   -4.4314603  
O   -2.0050684    0.0014259   -5.4301316  
C    0.2542618    0.0004177   -4.6117574  
O    0.7184662    0.0002248   -5.7439123  
C    1.0974548    0.0000868   -3.4189132  
H    2.0940753   -0.0005485   -0.5817987  
H    2.1707274   -0.0000914   -3.5523672  
H   -2.1128195    0.0014912   -0.2706788  
C   -6.3712416    2.4263686   -0.7482301  
C   -7.4631646    2.6715829    0.0209572  
C   -8.2153673    1.4409578    0.0886982  
C   -7.4667821    0.4515901   -0.7097761  
N   -6.3595340    1.1120644   -1.1900524  
C   -7.8502967   -0.8372099   -0.8931241  
C   -9.0827118   -1.2793558   -0.2620981  
O   -9.5128162   -2.4205012   -0.3674500  
C   -9.8916851   -0.2483769    0.5878719  
O  -10.9309753   -0.6090134    1.1236688  
C   -9.3768885    1.1129626    0.7127371  
H   -7.7132437    3.6077607    0.4874824  
H   -7.2865519   -1.5468736   -1.4825974  
H   -9.9428434    1.8206600    1.3031469  
H   -5.5742242    3.0952822   -1.0296677  
C    1.1319247   -0.0015655    2.2709268  
C    0.7969915   -0.0034943    3.5869401  
C   -0.6453339   -0.0035710    3.6542670  
C   -1.1266833   -0.0015433    2.2596025  
N    0.0000000    0.0000000    1.4700000  
C   -2.4346130   -0.0013964    1.8976294  
C   -3.4350110   -0.0031408    2.9520183  
O   -4.6384611   -0.0030974    2.7283916  
C   -2.9478959   -0.0050506    4.4361073  
O   -3.7809380   -0.0062218    5.3323774  
C   -1.5113823   -0.0053090    4.7012123  
H    1.4821238   -0.0045407    4.4159191  
H   -2.7664565   -0.0000232    0.8686553  
H   -1.1823530   -0.0068408    5.7314848  
H    2.1104316   -0.0009391    1.8188057  
