60

C    2.5562220   -0.0001552   -3.6003002  
C    3.5357961    0.0004086   -2.6598166  
C    4.7960234   -0.0001377   -3.3645601  
C    4.4679970   -0.0010433   -4.8030276  
N    3.0942345   -0.0014084   -4.8782987  
C    5.3873321   -0.0013582   -5.8012895  
C    6.7937423   -0.0009918   -5.4344811  
O    7.6974453   -0.0012924   -6.2600835  
C    7.1641097   -0.0002857   -3.9170388  
O    8.3448918   -0.0002790   -3.5960811  
C    6.0844253    0.0002815   -2.9331011  
H    3.3919682    0.0009429   -1.5940183  
H    5.1255390   -0.0018946   -6.8502769  
H    6.3492939    0.0009740   -1.8844985  
H    2.5641260   -0.0004665   -5.7303735  
C    0.0000000    0.0000000    0.0000000  
C    1.0541690   -0.0001722   -0.8560392  
C    0.5103143   -0.0000454   -2.1935956  
C   -0.9576365    0.0002459   -2.0455735  
N   -1.2018458   -0.0001391   -0.6915971  
C   -1.8348304    0.0008316   -3.0810614  
C   -1.2972839    0.0009736   -4.4314607  
O   -2.0050661    0.0014265   -5.4301325  
C    0.2542633    0.0004184   -4.6117571  
O    0.7184680    0.0002257   -5.7439119  
C    1.0974559    0.0000874   -3.4189129  
H    2.0940753   -0.0005483   -0.5817981  
H   -2.1128193    0.0014911   -0.2706794  
C   -4.4297978    2.1087665   -0.2339411  
C   -5.6380118    1.6447698   -0.6450381  
C   -5.3911866    0.7496337   -1.7507705  
C   -3.9296536    0.7300034   -1.9515868  
N   -3.4052342    1.5747183   -1.0006237  
C   -3.2941067    0.0012872   -2.9038248  
C   -4.1035792   -0.8182220   -3.7902184  
O   -3.6253047   -1.5102283   -4.6794218  
C   -5.6534077   -0.8124887   -3.5957858  
O   -6.3452672   -1.4982649   -4.3362601  
C   -6.2225095    0.0137336   -2.5340271  
H   -6.5931609    1.9005363   -0.2220875  
H   -7.2964259    0.0119722   -2.4058685  
H   -4.2016948    2.7960857    0.5644643  
H   -2.4284973    1.7712466   -0.8805878  
C    3.3041272   -0.0001177    3.0120429  
C    2.5845372    0.0004780    1.8395852  
C    1.2040006    0.0000008    2.1983588  
C    1.1422373   -0.0006037    3.6154372  
N    2.4348639   -0.0026109    4.0777464  
C   -0.0655181   -0.0008797    4.3197917  
C   -1.2321768   -0.0002324    3.5801400  
O   -2.4392816   -0.0001146    4.2172520  
C   -1.1911209    0.0000007    2.1655264  
O   -2.4371527    0.0002320    1.5732860  
C    0.0000000    0.0000000    1.4700000  
H    3.0031534    0.0000661    0.8477417  
H    2.7054629    0.0071099    5.0445261  
H   -0.1193549   -0.0014844    5.3997470  
H   -3.1132988    0.0000648    3.5251786  
H   -2.3200282    0.0004071    0.6183591  
H    4.3686625   -0.0004071    3.1724291  
