58

C    1.0965517    0.0001357   -0.8010303  
C    0.0000000    0.0000000    0.0000000  
C   -1.1546559    0.0001468   -0.8669513  
C   -0.6372014    0.0003518   -2.2486279  
N    0.7342875    0.0007336   -2.1395010  
C   -1.4147734    0.0001352   -3.3608717  
C   -2.8576047   -0.0001048   -3.1854460  
O   -3.6427777   -0.0002494   -4.1244909  
C   -3.4275841   -0.0000724   -1.7311669  
O   -4.6406823    0.0000332   -1.5710061  
C   -2.4891866   -0.0001090   -0.6116746  
H   -1.0150442    0.0001614   -4.3654247  
H   -2.8919121   -0.0002917    0.3920862  
H    2.1388273    0.0000661   -0.5261641  
C    4.5566859   -2.0943516   -2.8440014  
C    3.3981929   -1.6309283   -2.3080836  
C    2.8135377   -0.7361952   -3.2788908  
C    3.7329572   -0.7162214   -4.4326065  
N    4.7695091   -1.5597360   -4.1056005  
C    3.5352823    0.0116643   -5.5607961  
C    2.3371289    0.8302000   -5.6442437  
O    2.0692130    1.5215077   -6.6182129  
C    1.3496283    0.8244739   -4.4340310  
O    0.3376980    1.5099051   -4.4926968  
C    1.6707647   -0.0012347   -3.2725970  
H    2.9988748   -1.8865416   -1.3427751  
H    4.2221499    0.0120713   -6.3957353  
H    5.2729796   -2.7812829   -2.4233609  
C    6.5136495   -3.0623276   -5.1352583  
C    5.9245662   -1.8503893   -4.9671474  
C    6.6484212   -0.9123675   -5.7923660  
C    7.7151335   -1.6826952   -6.4598295  
N    7.5790779   -2.9787897   -6.0187883  
C    8.6176056   -1.1555514   -7.3254900  
C    8.5327914    0.2653799   -7.6192519  
O    9.2994960    0.8340862   -8.3854357  
C    7.4111123    1.1005754   -6.9234856  
O    7.3300385    2.2978260   -7.1628145  
C    6.4968611    0.4202927   -6.0095854  
H    9.3922208   -1.7382351   -7.8044062  
H    5.7228823    1.0056685   -5.5320765  
H    6.2592182   -4.0094269   -4.6878693  
H    8.1624867   -3.7462431   -6.2975279  
C    0.0000000    0.0000000    1.4700000  
C    1.0541688    0.0001722    2.3260392  
C    0.5103138    0.0000454    3.6635956  
C   -0.9576371   -0.0002459    3.5155732  
N   -1.2018458    0.0001392    2.1615969  
C   -1.8348311   -0.0008317    4.5510609  
C   -1.2972847   -0.0009736    5.9014604  
O   -2.0050672   -0.0014265    6.9001319  
C    0.2542623   -0.0004184    6.0817573  
O    0.7184670   -0.0002256    7.2139121  
C    1.0974552   -0.0000873    4.8889129  
H    2.0940752    0.0005483    2.0517982  
H   -2.9081052   -0.0011668    4.4207061  
H    2.1707277    0.0000911    5.0223670  
H   -2.1128194   -0.0014912    1.7406791  
