58

C    9.8462944   -0.7082143   -2.3053362  
C    8.8863521   -0.0041285   -2.9586724  
C    9.5475600    0.7364783   -4.0070717  
C   10.9816835    0.4037409   -3.9102935  
N   11.0963165   -0.4760609   -2.8587718  
C   11.9434535    0.9019287   -4.7279196  
C   11.5391752    1.8277914   -5.7728462  
O   12.3304224    2.3310146   -6.5596082  
C   10.0256385    2.1944616   -5.8935482  
O    9.6733903    2.9731489   -6.7692344  
C    9.0826944    1.5928738   -4.9539744  
H   12.9899140    0.6448278   -4.6400055  
H    8.0365029    1.8517771   -5.0444000  
H    9.7457428   -1.3769904   -1.4659809  
H   11.9554057   -0.8878218   -2.5433889  
C    6.7235404   -0.0015094    0.8630518  
C    5.4473217   -0.0011276    0.3990038  
C    5.5236520   -0.0015784   -1.0428730  
C    6.9592472   -0.0022882   -1.3832517  
N    7.6329843   -0.0018115   -0.1836821  
C    7.4493969   -0.0032604   -2.6487383  
C    6.4996351   -0.0034065   -3.7489599  
O    6.8417413   -0.0041910   -4.9242315  
C    4.9744857   -0.0024119   -3.4117302  
O    4.1654306   -0.0022185   -4.3297118  
C    4.5679461   -0.0016854   -2.0086701  
H    4.5543636   -0.0004092    0.9983692  
H    7.0761901   -0.0013786    1.8816429  
H    8.6315326   -0.0036616   -0.0839617  
C    3.1301149   -0.0010311   -1.7028252  
C    2.5367768   -0.0002767   -0.4864665  
C    1.1089904    0.0001028   -0.7656183  
C    1.0177872   -0.0004148   -2.2415132  
N    2.1993578   -0.0011611   -2.7963820  
C   -0.2459209   -0.0002877   -2.9257118  
C   -1.3675319   -0.0000605   -2.1698524  
O   -2.6129313    0.0000867   -2.6748490  
C   -1.3083584    0.0000910   -0.6783232  
O   -2.3693261    0.0004206   -0.0541692  
C    0.0000000    0.0000000    0.0000000  
H    3.0096017   -0.0001007    0.4807525  
H   -0.2829630   -0.0004687   -4.0053125  
H   -3.1967441    0.0002094   -1.8949034  
C    2.5528530    2.1414826    2.8079335  
C    2.0663498    1.7338582    4.0032312  
C    0.9804344    0.8229586    3.6752840  
C    0.9495562    0.7966882    2.1971295  
N    1.8690446    1.5676019    1.6831036  
C    0.0000000    0.0000000    1.4700000  
C   -0.8785127   -0.7372425    2.1869543  
O   -1.8187535   -1.5261249    1.6395491  
C   -0.8723269   -0.7321790    3.6796354  
O   -1.7010379   -1.4274584    4.2670412  
C    0.1115397    0.0933559    4.4024240  
H    2.4028853    2.0163452    4.9860947  
H   -2.2861435   -1.9184361    2.3990168  
H    0.0832434    0.0693689    5.4835595  
H    3.3664920    2.8238276    2.6198634  
