60

C    0.5438764   -0.7269789   -5.2249517  
C    0.2435449   -0.5104541   -6.5314703  
C   -0.8630385    0.4166032   -6.5610253  
C   -1.1850645    0.7246559   -5.1545426  
N   -0.2963289   -0.0005348   -4.3948470  
C   -2.1741700    1.5652353   -4.7585602  
C   -2.9751652    2.2093694   -5.7861948  
O   -3.8889529    2.9828540   -5.5312132  
C   -2.6518670    1.8975060   -7.2821978  
O   -3.3196710    2.4336645   -8.1561721  
C   -1.5609170    0.9743850   -7.5847347  
H    0.7403659   -0.9501387   -7.3779103  
H   -2.3938454    1.7776376   -3.7214791  
H   -1.3433394    0.7639124   -8.6230439  
H    1.3081767   -1.3562881   -4.7986825  
C    3.1301148   -0.0010315   -1.7028253  
C    2.5367766   -0.0002767   -0.4864666  
C    1.1089903    0.0001025   -0.7656183  
C    1.0177867   -0.0004153   -2.2415131  
N    2.1993574   -0.0011616   -2.7963821  
C   -0.2459218   -0.0002884   -2.9257117  
C   -1.3675324   -0.0000610   -2.1698519  
O   -2.6129318    0.0000862   -2.6748483  
C   -1.3083588    0.0000908   -0.6783229  
O   -2.3693264    0.0004202   -0.0541688  
C    0.0000000    0.0000000    0.0000000  
H    3.0096015   -0.0001006    0.4807520  
H   -3.1967441    0.0002093   -1.8949029  
C    6.7235401   -0.0015095    0.8630511  
C    5.4473218   -0.0011277    0.3990034  
C    5.5236514   -0.0015789   -1.0428735  
C    6.9592461   -0.0022888   -1.3832524  
N    7.6329843   -0.0018118   -0.1836828  
C    7.4493961   -0.0032614   -2.6487391  
C    6.4996346   -0.0034075   -3.7489606  
O    6.8417407   -0.0041923   -4.9242320  
C    4.9744853   -0.0024128   -3.4117305  
O    4.1654296   -0.0022195   -4.3297119  
C    4.5679459   -0.0016858   -2.0086704  
H    4.5543634   -0.0004090    0.9983689  
H    8.5062542   -0.0038999   -2.8766909  
H    7.0761900   -0.0013785    1.8816424  
H    8.6315326   -0.0036620   -0.0839629  
C    2.5311839    2.1237619    3.0120429  
C    1.9795631    1.6616747    1.8395852  
C    0.9223175    0.7739173    2.1983588  
C    0.8753926    0.7337535    3.6154372  
N    1.8668922    1.5631002    4.0777464  
C   -0.0496243   -0.0427881    4.3197917  
C   -0.9437528   -0.7922060    3.5801400  
O   -1.8685244   -1.5680278    4.2172520  
C   -0.9124520   -0.7656372    2.1655264  
O   -1.8671164   -1.5663939    1.5732860  
C    0.0000000    0.0000000    1.4700000  
H    2.3005065    1.9304404    0.8477417  
H    2.0679347    1.7444845    5.0445261  
H   -0.0904770   -0.0778569    5.3997470  
H   -2.3849669   -2.0011402    3.5251786  
H   -1.7775064   -1.4909735    0.6183591  
H    3.3468514    2.8078103    3.1724291  
