60

C    3.3041283    0.0001175   -1.5420408  
C    2.5845377   -0.0004781   -0.3695835  
C    1.2040014   -0.0000008   -0.7283582  
C    1.1422397    0.0006037   -2.1454366  
N    2.4348659    0.0026108   -2.6077451  
C   -0.0655161    0.0008798   -2.8497918  
C   -1.2321759    0.0002325   -2.1101407  
O   -2.4392793    0.0001148   -2.7472537  
C   -1.1911198   -0.0000007   -0.6955272  
O   -2.4371520   -0.0002319   -0.1032877  
C    0.0000000    0.0000000    0.0000000  
H    3.0031533   -0.0000663    0.6222602  
H    2.7054651   -0.0071100   -3.5745242  
H   -0.1193521    0.0014844   -3.9297473  
H   -3.1132976   -0.0000647   -2.0551805  
H   -2.3200292   -0.0004069    0.8516394  
C    6.9078740   -0.0012407    1.0804498  
C    5.6166933   -0.0005895    0.6749487  
C    5.6800161    0.0004031   -0.7784918  
C    7.1258522    0.0003164   -1.0885583  
N    7.8505616   -0.0007261   -0.0028393  
C    7.6141467    0.0011037   -2.4400963  
C    6.6996231    0.0015506   -3.4365807  
O    7.0134433    0.0023030   -4.7433163  
C    5.2335556    0.0012791   -3.1558579  
O    4.4583024    0.0018407   -4.1119974  
C    4.7577234    0.0005126   -1.7610430  
H    4.7307107   -0.0008518    1.2865944  
H    6.1552243    0.0024361   -5.2044164  
H    7.2868894   -0.0020581    2.0900639  
C   11.1717477   -2.0125608   -0.6644064  
C    9.8928787   -1.6304967   -0.8882397  
C    9.9674154   -0.7118464   -2.0138618  
C   11.4056077   -0.6534139   -2.3526430  
N   12.1165137   -1.4138882   -1.5650636  
C   11.9013154    0.1595572   -3.4289506  
C   11.0011426    0.8810462   -4.1349793  
O   11.3232352    1.6822361   -5.1647329  
C    9.5430505    0.8429326   -3.8176838  
O    8.7808684    1.5255102   -4.5020719  
C    9.0593767    0.0012713   -2.7088145  
H    9.0081949   -1.9345853   -0.3553781  
H   12.9575164    0.1833667   -3.6543032  
H   10.4746851    2.0577394   -5.4615724  
H   11.5400043   -2.6913405    0.0883342  
C    2.5128556    2.1077716    2.9199648  
C    1.9592212    1.6432552    4.0696553  
C    0.8915788    0.7479214    3.6910360  
C    0.8684491    0.7287414    2.2159470  
N    1.8754542    1.5738793    1.8102719  
C    0.0000000    0.0000000    1.4700000  
C   -0.9772830   -0.8200135    2.1664417  
O   -1.8021297   -1.5120829    1.5842315  
C   -0.9711318   -0.8147624    3.7284083  
O   -1.7894187   -1.5009653    4.3257297  
C    0.0140216    0.0115358    4.4216297  
H    2.2638494    1.8988021    5.0689105  
H    0.0117648    0.0094386    5.5031631  
H    3.3327358    2.7953732    2.7900019  
H    2.1123206    1.7707734    0.8551938  
