60

C    3.3041273    0.0001178   -1.5420433  
C    2.5845371   -0.0004779   -0.3695855  
C    1.2040005   -0.0000007   -0.7283590  
C    1.1422373    0.0006039   -2.1454374  
N    2.4348643    0.0026112   -2.6077462  
C   -0.0655181    0.0008799   -2.8497921  
C   -1.2321766    0.0002325   -2.1101401  
O   -2.4392815    0.0001147   -2.7472520  
C   -1.1911210   -0.0000007   -0.6955265  
O   -2.4371527   -0.0002321   -0.1032862  
C    0.0000000    0.0000000    0.0000000  
H    3.0031537   -0.0000660    0.6222583  
H    2.7054631   -0.0071096   -3.5745262  
H   -3.1132985   -0.0000648   -2.0551790  
H   -2.3200283   -0.0004072    0.8516409  
H    4.3686621    0.0004072   -1.7024296  
C   -0.1387080    0.0017018   -4.3179685  
C    0.8847660    0.0023482   -5.2034512  
C    0.2487269    0.0030114   -6.5118682  
C   -1.2011845    0.0025368   -6.2214537  
N   -1.4344179    0.0018496   -4.9370903  
C   -2.1866332    0.0030151   -7.2673871  
C   -1.7437544    0.0043151   -8.5453513  
O   -2.5513001    0.0048875   -9.6195538  
C   -0.2869473    0.0051951   -8.8707332  
O    0.0441878    0.0062441  -10.0563001  
C    0.7042754    0.0046374   -7.7801361  
H    1.9409052    0.0024621   -4.9945362  
H   -3.2396163    0.0024445   -7.0262734  
H   -1.9471958    0.0058404  -10.3838898  
C    4.1721048   -2.1032042   -6.1024882  
C    5.1411027   -1.6373705   -6.9320162  
C    4.5008721   -0.7413810   -7.8659027  
C    3.0691914   -0.7232519   -7.5098799  
N    2.9357890   -1.5695621   -6.4333798  
C    2.1250955    0.0057049   -8.1571895  
C    2.5471725    0.8270760   -9.2795690  
O    1.7725372    1.5194416   -9.9267706  
C    4.0584625    0.8229537   -9.6742717  
O    4.4255819    1.5103037  -10.6176880  
C    4.9815786   -0.0036998   -8.9007390  
H    6.1851862   -1.8924573   -6.8941504  
H    6.0263488   -0.0008153   -9.1803299  
H    4.2571174   -2.7916149   -5.2774105  
H    2.0735139   -1.7673563   -5.9596645  
C    2.5128556    2.1077716    2.9199648  
C    1.9592212    1.6432552    4.0696553  
C    0.8915788    0.7479214    3.6910360  
C    0.8684491    0.7287414    2.2159470  
N    1.8754542    1.5738793    1.8102719  
C    0.0000000    0.0000000    1.4700000  
C   -0.9772830   -0.8200135    2.1664417  
O   -1.8021297   -1.5120829    1.5842315  
C   -0.9711318   -0.8147624    3.7284083  
O   -1.7894187   -1.5009653    4.3257297  
C    0.0140216    0.0115358    4.4216297  
H    2.2638494    1.8988021    5.0689105  
H    0.0117648    0.0094386    5.5031631  
H    3.3327358    2.7953732    2.7900019  
H    2.1123206    1.7707734    0.8551938  
