60

C    3.3041274    0.0001181   -1.5420434  
C    2.5845372   -0.0004778   -0.3695856  
C    1.2040005   -0.0000006   -0.7283592  
C    1.1422372    0.0006041   -2.1454374  
N    2.4348641    0.0026115   -2.6077465  
C   -0.0655182    0.0008801   -2.8497921  
C   -1.2321768    0.0002327   -2.1101401  
O   -2.4392816    0.0001151   -2.7472519  
C   -1.1911210   -0.0000005   -0.6955263  
O   -2.4371523   -0.0002319   -0.1032864  
C    0.0000000    0.0000000    0.0000000  
H    3.0031537   -0.0000661    0.6222577  
H    2.7054629   -0.0071092   -3.5745263  
H   -3.1132988   -0.0000646   -2.0551790  
H   -2.3200280   -0.0004071    0.8516406  
H    4.3686616    0.0004075   -1.7024299  
C    2.3446864   -2.1385754   -5.7825621  
C    1.7992122   -1.7303697   -6.9519230  
C    0.7308347   -0.8198476   -6.5697990  
C    0.7735869   -0.7944094   -5.0919258  
N    1.7176438   -1.5654461   -4.6247553  
C   -0.1387083    0.0017023   -4.3179685  
C   -1.0519390    0.7391886   -4.9898745  
O   -1.9638776    1.5275968   -4.3958871  
C   -1.1200796    0.7349610   -6.4810152  
O   -1.9771139    1.4304208   -7.0260369  
C   -0.1732959   -0.0899936   -7.2523614  
H    2.0864369   -2.0122467   -7.9504836  
H   -2.4685604    1.9202491   -5.1309192  
H    3.1667832   -2.8208802   -5.6356228  
C    0.1597488   -3.2291539  -10.3396231  
C    0.1236895   -2.5470442   -9.1659530  
C   -0.1440787   -1.1656725   -9.4899086  
C   -0.2619366   -1.0984433  -10.9590512  
N   -0.0671787   -2.3822327  -11.4138518  
C   -0.5136498    0.0365978  -11.6590705  
C   -0.6793386    1.2746850  -10.9159544  
O   -0.9086782    2.3494762  -11.4549598  
C   -0.5583636    1.2268998   -9.3593919  
O   -0.6956648    2.2629978   -8.7230660  
C   -0.2848516   -0.0565834   -8.7177419  
H    0.2683581   -2.9639595   -8.1852048  
H   -0.5963786    0.0641714  -12.7367101  
H    0.3332219   -4.2792500  -10.5101964  
H   -0.0887855   -2.6613316  -12.3775348  
C    0.0000000    0.0000000    1.4700000  
C    1.0541688    0.0001722    2.3260392  
C    0.5103138    0.0000454    3.6635956  
C   -0.9576371   -0.0002459    3.5155732  
N   -1.2018458    0.0001392    2.1615969  
C   -1.8348311   -0.0008317    4.5510609  
C   -1.2972847   -0.0009736    5.9014604  
O   -2.0050672   -0.0014265    6.9001319  
C    0.2542623   -0.0004184    6.0817573  
O    0.7184670   -0.0002256    7.2139121  
C    1.0974552   -0.0000873    4.8889129  
H    2.0940752    0.0005483    2.0517982  
H   -2.9081052   -0.0011668    4.4207061  
H    2.1707277    0.0000911    5.0223670  
H   -2.1128194   -0.0014912    1.7406791  
