58

C   -1.0547456    0.2998953   -0.8010305  
C    0.0000000    0.0000000    0.0000000  
C    1.1105557   -0.3160646   -0.8669513  
C    0.6127905   -0.1746817   -2.2486280  
N   -0.7064683    0.2002017   -2.1395010  
C    1.3607508   -0.3872233   -3.3608717  
C    2.7485910   -0.7817632   -3.1854462  
O    3.5038421   -0.9964538   -4.1244910  
C    3.2968117   -0.9377457   -1.7311670  
O    4.4635906   -1.2697611   -1.5710063  
C    2.3942318   -0.6809569   -0.6116750  
H    0.9762674   -0.2778792   -4.3654242  
H    2.7816404   -0.7909706    0.3920860  
H   -2.0572302    0.5851375   -0.5261644  
C   -3.8097758    3.2611810   -2.8440010  
C   -2.8222860    2.4984681   -2.3080835  
C   -2.5047473    1.4779108   -3.2788909  
C   -3.3945475    1.7102599   -4.4326065  
N   -4.1607534    2.8051962   -4.1056004  
C   -3.4035712    0.9560640   -5.5607961  
C   -2.4750959   -0.1590619   -5.6442439  
O   -2.4065511   -0.8972941   -6.6182132  
C   -1.5237104   -0.4237429   -4.4340311  
O   -0.7379337   -1.3598915   -4.4926969  
C   -1.6066721    0.4583229   -3.2725972  
H   -2.3682675    2.6350705   -1.3427749  
H   -4.0643399    1.1436055   -6.3957349  
H   -4.8648926    3.2117884   -4.6937484  
C   -3.3325861    5.3256735    1.0022308  
C   -4.2712293    6.2958279    0.8545000  
C   -4.8744498    6.1038599   -0.4432324  
C   -4.2055195    4.9339360   -1.0437329  
N   -3.2814353    4.5090184   -0.1172325  
C   -4.4930295    4.4295095   -2.2703528  
C   -5.5303931    5.0825718   -3.0513277  
O   -5.8620909    4.7038747   -4.1670635  
C   -6.2518215    6.3234044   -2.4351447  
O   -7.1266527    6.8816577   -3.0834383  
C   -5.8549066    6.7738878   -1.1034631  
H   -4.5132801    7.0589649    1.5725862  
H   -6.3594298    7.6336163   -0.6838846  
H   -2.6737644    5.1387312    1.8346348  
H   -2.6661871    3.7250514   -0.2351848  
C    2.5128556    2.1077716    2.9199648  
C    1.9592212    1.6432552    4.0696553  
C    0.8915788    0.7479214    3.6910360  
C    0.8684491    0.7287414    2.2159470  
N    1.8754542    1.5738793    1.8102719  
C    0.0000000    0.0000000    1.4700000  
C   -0.9772830   -0.8200135    2.1664417  
O   -1.8021297   -1.5120829    1.5842315  
C   -0.9711318   -0.8147624    3.7284083  
O   -1.7894187   -1.5009653    4.3257297  
C    0.0140216    0.0115358    4.4216297  
H    2.2638494    1.8988021    5.0689105  
H    0.0117648    0.0094386    5.5031631  
H    3.3327358    2.7953732    2.7900019  
H    2.1123206    1.7707734    0.8551938  
