60

C    0.0000000    0.0000000    0.0000000  
C    1.0521656   -0.0012043   -0.8862351  
C    0.4917200   -0.0012020   -2.1979137  
C   -0.9187445    0.0003274   -2.0478677  
N   -1.1833177   -0.0009251   -0.7007905  
C   -1.7951725    0.0010595   -3.1372079  
C   -1.2375873    0.0005399   -4.4010417  
O   -2.0474259    0.0015643   -5.4997564  
C    0.1673544   -0.0013583   -4.5711967  
O    0.5673477   -0.0020758   -5.8915560  
C    1.0325744   -0.0023546   -3.4969900  
H    2.0953046   -0.0030932   -0.6200577  
H   -2.0989779    0.0102656   -0.2891810  
H   -1.4634938    0.0006700   -6.2693583  
H    1.5290660   -0.0033352   -5.9180057  
H    2.1042114   -0.0039890   -3.6584473  
C   -4.7114417    2.0140794   -0.4339566  
C   -3.5467357    1.6314859   -1.0072465  
C   -3.9343411    0.7149573   -2.0684898  
C   -5.4099524    0.6582045   -1.9914546  
N   -5.8711923    1.4177554   -1.0352486  
C   -6.1879822   -0.1524256   -2.8873535  
C   -5.5221693   -0.8732798   -3.8181580  
O   -6.1204783   -1.6723418   -4.7179179  
C   -4.0334893   -0.8368211   -3.9214197  
O   -3.4940551   -1.5187026   -4.7927805  
C   -3.2578679    0.0024482   -2.9908485  
H   -2.5479293    1.9339456   -0.7427094  
H   -5.3893233   -2.0479243   -5.2408934  
H   -4.8535640    2.6917474    0.3928087  
C   -9.0135413    3.0687346   -2.0949904  
C  -10.2004835    2.4190080   -2.1195701  
C   -9.8625229    1.0306925   -2.3931806  
C   -8.3883282    1.0216883   -2.5082990  
N   -7.8850566    2.2135159   -2.3343612  
C   -7.6537112   -0.1832057   -2.7796940  
C   -8.3596910   -1.3271739   -2.9289041  
O   -7.8043705   -2.5238692   -3.1849901  
C   -9.8480903   -1.3505776   -2.8180816  
O  -10.4254122   -2.4277039   -2.9654528  
C  -10.5787294   -0.1014602   -2.5391606  
H  -11.1839009    2.8309542   -1.9703581  
H   -8.5568961   -3.1404651   -3.2366362  
H  -11.6564216   -0.1606455   -2.4663239  
H   -8.8342245    4.1179113   -1.9216505  
C    1.1319247   -0.0015655    2.2709268  
C    0.7969915   -0.0034943    3.5869401  
C   -0.6453339   -0.0035710    3.6542670  
C   -1.1266833   -0.0015433    2.2596025  
N    0.0000000    0.0000000    1.4700000  
C   -2.4346130   -0.0013964    1.8976294  
C   -3.4350110   -0.0031408    2.9520183  
O   -4.6384611   -0.0030974    2.7283916  
C   -2.9478959   -0.0050506    4.4361073  
O   -3.7809380   -0.0062218    5.3323774  
C   -1.5113823   -0.0053090    4.7012123  
H    1.4821238   -0.0045407    4.4159191  
H   -2.7664565   -0.0000232    0.8686553  
H   -1.1823530   -0.0068408    5.7314848  
H    2.1104316   -0.0009391    1.8188057  
