58

C    7.7614509   -1.0599469   -4.0805014  
C    6.9410535    0.0185219   -4.1695466  
C    7.7740905    1.1568454   -4.4779365  
C    9.1569684    0.6495081   -4.5618880  
N    9.0808960   -0.7010532   -4.3107159  
C   10.2421462    1.4168474   -4.8362672  
C   10.0342667    2.8372395   -5.0638804  
O   10.9474492    3.6118066   -5.3177415  
C    8.5781605    3.3962248   -4.9796550  
O    8.3908515    4.5904913   -5.1691346  
C    7.4895303    2.4704712   -4.6768108  
H   11.2481080    1.0248133   -4.8933599  
H    6.4842637    2.8654298   -4.6204885  
H    7.5131817   -2.0866793   -3.8658564  
H    9.8631070   -1.3295827   -4.2987045  
C    4.3630981   -2.0949037   -1.3110654  
C    3.1522514   -1.6320804   -1.7156885  
C    3.3924175   -0.7354493   -2.8216759  
C    4.8529074   -0.7137077   -3.0297340  
N    5.3832069   -1.5581154   -2.0817639  
C    5.4827050    0.0162381   -3.9848456  
C    4.6677391    0.8352837   -4.8666221  
O    5.1406430    1.5283993   -5.7578308  
C    3.1189447    0.8277106   -4.6641774  
O    2.4225435    1.5135518   -5.4003220  
C    2.5562217   -0.0001543   -3.6003001  
H    2.1995749   -1.8892847   -1.2880586  
H    4.5960548   -2.7827973   -0.5145584  
H    6.3605504   -1.7557299   -1.9686510  
C    0.0000000    0.0000000    0.0000000  
C    1.0541688   -0.0001719   -0.8560391  
C    0.5103141   -0.0000449   -2.1935955  
C   -0.9576367    0.0002461   -2.0455733  
N   -1.2018459   -0.0001392   -0.6915970  
C   -1.8348306    0.0008319   -3.0810611  
C   -1.2972842    0.0009739   -4.4314605  
O   -2.0050664    0.0014267   -5.4301321  
C    0.2542628    0.0004190   -4.6117571  
O    0.7184677    0.0002263   -5.7439119  
C    1.0974556    0.0000880   -3.4189127  
H    2.0940752   -0.0005479   -0.5817978  
H   -2.9081050    0.0011669   -2.9507065  
H   -2.1128195    0.0014911   -0.2706793  
C    0.0000000    0.0000000    1.4700000  
C    1.0541688    0.0001722    2.3260392  
C    0.5103138    0.0000454    3.6635956  
C   -0.9576371   -0.0002459    3.5155732  
N   -1.2018458    0.0001392    2.1615969  
C   -1.8348311   -0.0008317    4.5510609  
C   -1.2972847   -0.0009736    5.9014604  
O   -2.0050672   -0.0014265    6.9001319  
C    0.2542623   -0.0004184    6.0817573  
O    0.7184670   -0.0002256    7.2139121  
C    1.0974552   -0.0000873    4.8889129  
H    2.0940752    0.0005483    2.0517982  
H   -2.9081052   -0.0011668    4.4207061  
H    2.1707277    0.0000911    5.0223670  
H   -2.1128194   -0.0014912    1.7406791  
