62

C    1.1243408    0.0100056   -0.7919008  
C    0.7474067    0.0234632   -2.1148548  
C   -0.6787390    0.0234407   -2.1414700  
C   -1.1201747    0.0098459   -0.7935548  
N    0.0000000    0.0000000    0.0000000  
C   -2.4730819    0.0063413   -0.4408237  
C   -3.3971961    0.0170574   -1.4675059  
O   -4.7313524    0.0145692   -1.1793460  
C   -2.9763661    0.0303149   -2.8186318  
O   -4.0166491    0.0394637   -3.7247618  
C   -1.6418573    0.0335064   -3.1673481  
H   -2.8160162   -0.0041448    0.5845969  
H   -5.1938829    0.0230244   -2.0274372  
H   -3.6464693    0.0481856   -4.6127338  
H   -1.3497485    0.0435706   -4.2109230  
H    2.1062463    0.0053069   -0.3505414  
C    4.6035529   -2.0932529   -2.9144229  
C    3.4418015   -1.6363687   -2.3364458  
C    2.8380886   -0.7400636   -3.2674499  
C    3.6839049   -0.6895631   -4.4049781  
N    4.7475347   -1.5212494   -4.1567713  
C    3.3988640    0.0972320   -5.5250200  
C    2.2386904    0.8464661   -5.4963344  
O    1.9119637    1.6320618   -6.5636212  
C    1.3821852    0.8096665   -4.3703401  
O    0.2664555    1.6116303   -4.4942146  
C    1.6628938    0.0339099   -3.2649306  
H    3.0751949   -1.9140038   -1.3630436  
H    5.5069137   -1.6969031   -4.7895987  
H    1.0769086    2.0631860   -6.3398370  
H   -0.2581469    1.5289153   -3.6919962  
H    5.3415862   -2.7807890   -2.5381780  
C    4.2697642    0.1556561   -6.7078213  
C    5.4406254   -0.4912778   -6.9415635  
C    5.8906694   -0.0867771   -8.2525464  
C    4.8787819    0.8556246   -8.7670882  
N    3.9226531    0.9592382   -7.7832327  
C    4.9401990    1.4637537   -9.9787443  
C    6.0787954    1.1703632  -10.8331777  
O    6.2250094    1.6675147  -11.9421244  
C    7.1623099    0.1750532  -10.3086209  
O    8.1252570   -0.0798995  -11.0192486  
C    6.9863848   -0.4171764   -8.9849267  
H    5.9327702   -1.1740781   -6.2720931  
H    4.1873212    2.1519925  -10.3370897  
H    7.7411774   -1.1051717   -8.6290125  
H    3.1004791    1.5320961   -7.8371843  
C    0.0000000    0.0000000    1.4700000  
C    1.0541688    0.0001722    2.3260392  
C    0.5103138    0.0000454    3.6635956  
C   -0.9576371   -0.0002459    3.5155732  
N   -1.2018458    0.0001392    2.1615969  
C   -1.8348311   -0.0008317    4.5510609  
C   -1.2972847   -0.0009736    5.9014604  
O   -2.0050672   -0.0014265    6.9001319  
C    0.2542623   -0.0004184    6.0817573  
O    0.7184670   -0.0002256    7.2139121  
C    1.0974552   -0.0000873    4.8889129  
H    2.0940752    0.0005483    2.0517982  
H   -2.9081052   -0.0011668    4.4207061  
H    2.1707277    0.0000911    5.0223670  
H   -2.1128194   -0.0014912    1.7406791  
