60

C   -3.3041260    0.0033774   -1.5420424  
C   -2.5845355    0.0032119   -0.3695849  
C   -1.2040001    0.0012743   -0.7283588  
C   -1.1422383    0.0006046   -2.1454367  
N   -2.4348661   -0.0000353   -2.6077461  
C    0.0655164   -0.0009491   -2.8497919  
C    1.2321751   -0.0015358   -2.1101403  
O    2.4392791   -0.0026949   -2.7472524  
C    1.1911196   -0.0012592   -0.6955267  
O    2.4371513   -0.0023461   -0.1032866  
C    0.0000000    0.0000000    0.0000000  
H   -3.0031518    0.0032428    0.6222587  
H   -2.7054547    0.0099717   -3.5745256  
H    0.1193526   -0.0016107   -3.9297469  
H    3.1132966   -0.0032284   -2.0551792  
H    2.3200274   -0.0020471    0.8516405  
C   -6.7370815    0.0079519    1.2348673  
C   -5.4910136    0.0065016    0.6950639  
C   -5.6537408    0.0057471   -0.7396327  
C   -7.1071751    0.0069142   -0.9932415  
N   -7.7077059    0.0078259    0.2446002  
C   -7.6723898    0.0070501   -2.2270312  
C   -6.7903701    0.0057489   -3.3822686  
O   -7.2023940    0.0056975   -4.5348911  
C   -5.2477315    0.0042475   -3.1371777  
O   -4.4952278    0.0028380   -4.1020597  
C   -4.7577205    0.0045199   -1.7610453  
H   -4.5636942    0.0058333    1.2397584  
H   -8.7410224    0.0080446   -2.3911450  
H   -8.6984691    0.0102847    0.4040666  
C   -4.5793069    0.0101366    5.1346681  
C   -4.8223879    0.0086310    3.8033194  
C   -6.2725353    0.0092203    3.6868145  
C   -6.7586365    0.0110625    5.0833405  
N   -5.7706378    0.0116876    5.9364803  
C   -8.1600980    0.0121716    5.4011329  
C   -9.0361219    0.0118608    4.3706391  
O  -10.3715945    0.0127852    4.5208193  
C   -8.5766426    0.0103875    2.9504149  
O   -9.4298152    0.0100577    2.0631062  
C   -7.1337728    0.0092248    2.6503299  
H   -4.1060931    0.0073766    2.9995809  
H   -8.4871046    0.0133062    6.4306835  
H  -10.7232729    0.0122844    3.6122624  
H   -3.6241757    0.0102737    5.6353657  
C    2.5128556    2.1077716    2.9199648  
C    1.9592212    1.6432552    4.0696553  
C    0.8915788    0.7479214    3.6910360  
C    0.8684491    0.7287414    2.2159470  
N    1.8754542    1.5738793    1.8102719  
C    0.0000000    0.0000000    1.4700000  
C   -0.9772830   -0.8200135    2.1664417  
O   -1.8021297   -1.5120829    1.5842315  
C   -0.9711318   -0.8147624    3.7284083  
O   -1.7894187   -1.5009653    4.3257297  
C    0.0140216    0.0115358    4.4216297  
H    2.2638494    1.8988021    5.0689105  
H    0.0117648    0.0094386    5.5031631  
H    3.3327358    2.7953732    2.7900019  
H    2.1123206    1.7707734    0.8551938  
