58

C    0.8807936   -0.7246962   -5.2251244  
C    0.6214206   -0.5080868   -6.5403739  
C   -0.4848681    0.4175800   -6.6044198  
C   -0.8513572    0.7247246   -5.2086625  
N    0.0139735    0.0003890   -4.4216236  
C   -1.8534975    1.5639108   -4.8437156  
C   -2.6226020    2.2073964   -5.8958279  
O   -3.5449423    2.9796333   -5.6694646  
C   -2.2520211    1.8964740   -7.3810220  
O   -2.8926946    2.4320980   -8.2753954  
C   -1.1509204    0.9748422   -7.6493937  
H   -2.1059483    1.7756663   -3.8139886  
H   -0.9005297    0.7650142   -8.6804132  
H    1.6321133   -1.3531890   -4.7752298  
C    3.2798085    0.0005863   -1.4499651  
C    2.5571140    0.0005574   -2.5996556  
C    1.1637432    0.0001555   -2.2210361  
C    1.1336965   -0.0000197   -0.7459472  
N    2.4483511   -0.0001424   -0.3402720  
C    0.0000000    0.0000000    0.0000000  
C   -1.2757369   -0.0000184   -0.6964411  
O   -2.3524596   -0.0000641   -0.1142310  
C   -1.2676496   -0.0000869   -2.2584080  
O   -2.3355766   -0.0004093   -2.8557289  
C    0.0181558    0.0001767   -2.9516295  
H    2.9547351    0.0006085   -3.5989110  
H    4.3498549    0.0008618   -1.3200024  
H    2.7563629    0.0012825    0.6148060  
C    1.7754114   -2.4217115   -7.7423343  
C    2.4041879   -2.6658645   -8.9209370  
C    2.3775709   -1.4349166   -9.6751882  
C    1.6767462   -0.4465158   -8.8333453  
N    1.3373173   -1.1078018   -7.6755983  
C    1.4464042    0.8422564   -9.1907163  
C    1.9201683    1.2853903  -10.4913761  
O    1.7615998    2.4265935  -10.9046718  
C    2.6646779    0.2554451  -11.3995185  
O    3.0678378    0.6169187  -12.4968144  
C    2.8532432   -1.1059638  -10.9046847  
H    2.8370682   -3.6015429   -9.2270986  
H    0.9304082    1.5512023   -8.5582187  
H    3.3698948   -1.8129422  -11.5394910  
H    1.5950277   -3.0911525   -6.9169861  
C    2.4951002    2.0940188    2.9809380  
C    1.9440701    1.6314916    1.8291961  
C    0.8759964    0.7350050    2.2038498  
C    0.8497377    0.7130254    3.6788474  
N    1.8560616    1.5571714    4.0882609  
C   -0.0205033   -0.0168748    4.4215661  
C   -0.9962600   -0.8356168    3.7214979  
O   -1.8224391   -1.5286685    4.3006425  
C   -0.9864710   -0.8277881    2.1595606  
O   -1.8030528   -1.5133726    1.5592035  
C    0.0000000    0.0000000    1.4700000  
H    2.2509283    1.8888011    0.8310761  
H   -0.0229599   -0.0187323    5.5027230  
H    3.3143982    2.7817323    3.1139444  
H    2.0889452    1.7545833    5.0442112  
