58

C   -0.5362333   -0.5527270   -9.5142404  
C   -0.3214079   -0.4860373  -10.8534473  
C   -0.5305440    0.8877966  -11.2454651  
C   -0.8873502    1.6212888  -10.0160479  
N   -0.8736498    0.6910471   -9.0024636  
C   -1.1622907    2.9492757   -9.9654266  
C   -1.1030374    3.7066664  -11.2045325  
O   -1.3339170    4.9073235  -11.2630053  
C   -0.7274694    2.9502291  -12.5185176  
O   -0.6747258    3.5773108  -13.5679200  
C   -0.4520454    1.5174454  -12.4469303  
H   -0.0478536   -1.3057398  -11.4936586  
H   -1.4218237    3.4680675   -9.0530622  
H   -0.1925325    1.0011383  -13.3611534  
H   -0.4766531   -1.4058928   -8.8581545  
C    0.9350737   -0.7259376   -5.2319053  
C    0.6347947   -0.5089063   -6.5383532  
C   -0.4715638    0.4184292   -6.5675990  
C   -0.7935152    0.7260932   -5.1610144  
N    0.0950446    0.0004351   -4.4015596  
C   -1.7824164    1.5667807   -4.7647533  
C   -2.5832557    2.2114503   -5.7921734  
O   -3.4968556    2.9850717   -5.5369355  
C   -2.2600327    1.9000044   -7.2882799  
O   -2.9277074    2.4366153   -8.1620764  
C   -1.1693072    0.9767197   -7.5911240  
H    1.1315090   -0.9484305   -7.3849382  
H   -2.0020405    1.7788925   -3.7276013  
H    1.6992215   -1.3555734   -4.8058458  
C    3.3321173    0.0004713   -1.3379338  
C    2.6974181    0.0000116   -2.5332314  
C    1.2800438   -0.0002119   -2.2052841  
C    1.2395034    0.0000643   -0.7271299  
N    2.4394062    0.0005460   -0.2131038  
C    0.0000000    0.0000000    0.0000000  
C   -1.1468702    0.0000634   -0.7169543  
O   -2.3742203    0.0000074   -0.1695487  
C   -1.1388770    0.0001607   -2.2096355  
O   -2.2206234    0.0000905   -2.7970411  
C    0.1454522    0.0001815   -2.9324241  
H    3.1367984   -0.0000653   -3.5160950  
H   -2.9844346    0.0001026   -0.9290167  
H    4.3940038    0.0007618   -1.1498640  
C    0.0000000    0.0000000    1.4700000  
C    1.0662921    0.0000102    2.3034270  
C    0.4961870   -0.0000064    3.6418889  
C   -0.9663858    0.0000850    3.4240247  
N   -1.2632773    0.0000084    2.1528658  
C   -1.8985362    0.0000517    4.5177257  
C   -1.3925775   -0.0004564    5.7720543  
O   -2.1456383   -0.0005410    6.8851312  
C    0.0786232   -0.0009323    6.0245000  
O    0.4683759   -0.0012588    7.1921102  
C    1.0143166   -0.0008442    4.8859032  
H    2.1107198   -0.0000632    2.0421868  
H   -2.9622183    0.0003270    4.3293377  
H   -1.5042274   -0.0009692    7.6184419  
H    2.0724152   -0.0013148    5.1109744  
