60

C    1.1243405    0.0100579   -0.7919005  
C    0.7474061    0.0234979   -2.1148545  
C   -0.6787397    0.0234092   -2.1414699  
C   -1.1201752    0.0097939   -0.7935547  
N    0.0000000    0.0000000    0.0000000  
C   -2.4730815    0.0062265   -0.4408247  
C   -3.3971972    0.0169000   -1.4675061  
O   -4.7313521    0.0143498   -1.1793474  
C   -2.9763670    0.0301768   -2.8186327  
O   -4.0166498    0.0392772   -3.7247625  
C   -1.6418585    0.0334300   -3.1673483  
H   -2.8160167   -0.0042754    0.5845968  
H   -5.1938833    0.0227837   -2.0274383  
H   -3.6464701    0.0480163   -4.6127342  
H   -1.3497495    0.0435080   -4.2109232  
H    2.1062464    0.0054047   -0.3505410  
C    4.5576540   -2.0608770   -2.9109854  
C    3.4088896   -1.6040004   -2.3491312  
C    2.8058657   -0.6998634   -3.2997804  
C    3.7039031   -0.6672365   -4.4699318  
N    4.7468755   -1.5131505   -4.1707198  
C    3.4850151    0.0720187   -5.5867552  
C    2.2849643    0.8903122   -5.6397499  
O    1.9987076    1.5913464   -6.6014719  
C    1.3198855    0.8712925   -4.4117158  
O    0.3065736    1.5563984   -4.4447247  
C    1.6628930    0.0339871   -3.2649301  
H    3.0275645   -1.8698619   -1.3793263  
H    4.1564149    0.0816022   -6.4341283  
H    5.2820356   -2.7514593   -2.5106644  
C    6.4977610   -2.9813170   -5.2743552  
C    5.8860981   -1.7939264   -5.0562918  
C    6.6024833   -0.8436999   -5.8931673  
C    7.6434742   -1.6502582   -6.5657637  
N    7.5869569   -2.9040913   -6.2070186  
C    8.5758744   -1.0692413   -7.4921199  
C    8.4727572    0.2571559   -7.7357833  
O    9.2760707    0.9304400   -8.5768635  
C    7.4326493    1.0979832   -7.0729509  
O    7.3972037    2.2986623   -7.3419004  
C    6.4878483    0.4785731   -6.1265847  
H    9.3265506   -1.6823891   -7.9690315  
H    8.9584881    1.8507176   -8.5396734  
H    5.7492105    1.1219358   -5.6675342  
H    6.2624041   -3.9394506   -4.8389687  
C    0.8400945    0.7047457    2.2710304  
C    0.0000000    0.0000000    1.4700000  
C   -0.8844236   -0.7423113    2.3369512  
C   -0.4878984   -0.4098547    3.7186280  
N    0.5629682    0.4714286    3.6095011  
C   -1.0836927   -0.9095027    4.8308716  
C   -2.1891196   -1.8367527    4.6554461  
O   -2.7906899   -2.3413415    5.5944904  
C   -2.6257283   -2.2031529    3.2011665  
O   -3.5549479   -2.9829990    3.0410059  
C   -1.9068976   -1.5999348    2.0816745  
H   -0.7774656   -0.6525820    5.8354244  
H   -2.2155208   -1.8586617    1.0779135  
H    1.6384792    1.3747609    1.9961646  
H    1.0518368    0.8833920    4.3830260  
