58

C    9.0957056   -0.0045213   -0.0376073  
C    9.8427536   -0.0056562    1.0964090  
C   11.2277297   -0.0083129    0.6881596  
C   11.2263115   -0.0086059   -0.7872349  
N    9.9033054   -0.0066374   -1.1647801  
C   12.3438401   -0.0104413   -1.5571906  
C   13.6341380   -0.0124751   -0.8881148  
O   14.6981966   -0.0142767   -1.4931557  
C   13.6593632   -0.0124567    0.6736693  
O   14.7397853   -0.0144656    1.2480789  
C   12.3886375   -0.0100963    1.3941550  
H    9.4665355   -0.0049194    2.1039169  
H   12.3207818   -0.0104926   -2.6381060  
H   12.4147807   -0.0098940    2.4753769  
H    9.5749970   -0.0047630   -2.1130722  
C    6.7235404   -0.0015093    0.8630518  
C    5.4473217   -0.0011276    0.3990038  
C    5.5236520   -0.0015784   -1.0428731  
C    6.9592462   -0.0022881   -1.3832516  
N    7.6329838   -0.0018113   -0.1836820  
C    7.4493969   -0.0032604   -2.6487383  
C    6.4996351   -0.0034064   -3.7489599  
O    6.8417413   -0.0041910   -4.9242315  
C    4.9744858   -0.0024119   -3.4117300  
O    4.1654306   -0.0022186   -4.3297118  
C    4.5679461   -0.0016854   -2.0086701  
H    4.5543632   -0.0004090    0.9983693  
H    8.5062545   -0.0038988   -2.8766899  
H    7.0761896   -0.0013784    1.8816430  
C    3.1301149   -0.0010311   -1.7028252  
C    2.5367768   -0.0002767   -0.4864665  
C    1.1089904    0.0001028   -0.7656183  
C    1.0177872   -0.0004148   -2.2415132  
N    2.1993578   -0.0011611   -2.7963820  
C   -0.2459209   -0.0002877   -2.9257118  
C   -1.3675319   -0.0000605   -2.1698524  
O   -2.6129313    0.0000867   -2.6748490  
C   -1.3083584    0.0000910   -0.6783232  
O   -2.3693261    0.0004206   -0.0541692  
C    0.0000000    0.0000000    0.0000000  
H    3.0096017   -0.0001007    0.4807525  
H   -0.2829630   -0.0004687   -4.0053125  
H   -3.1967441    0.0002094   -1.8949034  
C    0.8681109    0.7263879    2.2709268  
C    0.6127770    0.5096195    3.5869401  
C   -0.4920590   -0.4175482    3.6542670  
C   -0.8620974   -0.7254003    2.2596025  
N    0.0000000    0.0000000    1.4700000  
C   -1.8641242   -1.5660088    1.8976294  
C   -2.6293522   -2.2103885    2.9520183  
O   -3.5512764   -2.9839180    2.7283916  
C   -2.2549728   -1.8987399    4.4361073  
O   -2.8923672   -2.4351063    5.3323774  
C   -1.1543735   -0.9755647    4.7012123  
H    1.1382914    0.9492124    4.4159191  
H   -2.1192137   -1.7782617    0.8686553  
H   -0.9013378   -0.7652422    5.7314848  
H    1.6172880    1.3558399    1.8188057  
