58

C    0.1596511   -1.1208904   -9.6381406  
C    0.0171479   -0.0595767   -8.8030473  
C   -0.2359471    1.0962536   -9.6305942  
C   -0.2291938    0.6178845  -11.0262689  
N    0.0163621   -0.7343249  -10.9620641  
C   -0.4318655    1.4080021  -12.1108623  
C   -0.6725033    2.8240923  -11.8887891  
O   -0.8659636    3.6178328  -12.8002990  
C   -0.6837748    3.3525758  -10.4189650  
O   -0.8850298    4.5429630  -10.2196274  
C   -0.4529366    2.4039659   -9.3323634  
H   -0.4229860    1.0370399  -13.1263515  
H   -0.4625390    2.7778676   -8.3175579  
H    0.3575046   -2.1528672   -9.3977924  
H    0.0795279   -1.3464800  -11.7547332  
C    2.6001989   -2.1411816   -5.8266046  
C    2.0730546   -1.7332818   -7.0044479  
C    0.9991589   -0.8222833   -6.6393046  
C    1.0189899   -0.7962635   -5.1609565  
N    1.9554493   -1.5673975   -4.6788913  
C    0.0950446    0.0004351   -4.4015596  
C   -0.8074266    0.7379268   -5.0878442  
O   -1.7282259    1.5268492   -4.5083866  
C   -0.8524305    0.7331199   -6.5798603  
O   -1.7006931    1.4286189   -7.1383869  
C    0.1059497   -0.0924311   -7.3360995  
H    2.3756471   -2.0156472   -7.9983212  
H   -2.2213255    1.9193581   -5.2513151  
H    3.4197068   -2.8236756   -5.6666595  
C    3.3321173    0.0004713   -1.3379338  
C    2.6974181    0.0000116   -2.5332314  
C    1.2800438   -0.0002119   -2.2052841  
C    1.2395034    0.0000643   -0.7271299  
N    2.4394062    0.0005460   -0.2131038  
C    0.0000000    0.0000000    0.0000000  
C   -1.1468702    0.0000634   -0.7169543  
O   -2.3742203    0.0000074   -0.1695487  
C   -1.1388770    0.0001607   -2.2096355  
O   -2.2206234    0.0000905   -2.7970411  
C    0.1454522    0.0001815   -2.9324241  
H    3.1367984   -0.0000653   -3.5160950  
H   -2.9844346    0.0001026   -0.9290167  
H    4.3940038    0.0007618   -1.1498640  
C    2.4951002    2.0940188    2.9809380  
C    1.9440701    1.6314916    1.8291961  
C    0.8759964    0.7350050    2.2038498  
C    0.8497377    0.7130254    3.6788474  
N    1.8560616    1.5571714    4.0882609  
C   -0.0205033   -0.0168748    4.4215661  
C   -0.9962600   -0.8356168    3.7214979  
O   -1.8224391   -1.5286685    4.3006425  
C   -0.9864710   -0.8277881    2.1595606  
O   -1.8030528   -1.5133726    1.5592035  
C    0.0000000    0.0000000    1.4700000  
H    2.2509283    1.8888011    0.8310761  
H   -0.0229599   -0.0187323    5.5027230  
H    3.3143982    2.7817323    3.1139444  
H    2.0889452    1.7545833    5.0442112  
