58

C    1.7761541   -2.0808172   -5.3136694  
C    0.9000098   -1.6207329   -4.3837409  
C   -0.0050993   -0.7252870   -5.0647621  
C    0.4185757   -0.7012562   -6.4778125  
N    1.5032976   -1.5433414   -6.5624319  
C   -0.1857986    0.0284159   -7.4494171  
C   -1.3297800    0.8447303   -7.0786437  
O   -1.9418767    1.5373870   -7.8810563  
C   -1.7956192    0.8347030   -5.5877717  
O   -2.7573919    1.5182351   -5.2636784  
C   -1.0641728    0.0073893   -4.6315342  
H    0.8891415   -1.8790047   -3.3398100  
H    2.5983399   -2.7671371   -5.1917401  
H    2.0163266   -1.7390561   -7.4023993  
C    1.1319248    0.0015676   -0.8009268  
C    0.7969919    0.0034957   -2.1169401  
C   -0.6453334    0.0035701   -2.1842673  
C   -1.1266831    0.0015417   -0.7896029  
N    0.0000000    0.0000000    0.0000000  
C   -2.4346127    0.0013924   -0.4276300  
C   -3.4350108    0.0031351   -1.4820188  
O   -4.6384606    0.0030895   -1.2583924  
C   -2.9478954    0.0050456   -2.9661079  
O   -3.7809375    0.0062155   -3.8623779  
C   -1.5113816    0.0053066   -3.2312128  
H    1.4821243    0.0045434   -2.9459190  
H   -2.7664566    0.0000186    0.6013445  
H    2.1104317    0.0009430   -0.3488055  
C    1.2475820   -3.1913998  -10.0688722  
C    1.4734484   -2.4762924  -11.2009856  
C    1.1246919   -1.1057361  -10.9098162  
C    0.6739237   -1.0808039   -9.5051891  
N    0.7720678   -2.3764099   -9.0527931  
C    0.2582221    0.0330194   -8.8507469  
C    0.2543091    1.2911953   -9.5784235  
O   -0.1024278    2.3494277   -9.0772406  
C    0.7274023    1.2881124  -11.0670391  
O    0.7281661    2.3413300  -11.6899308  
C    1.1529906    0.0244181  -11.6635324  
H    1.8421064   -2.8646232  -12.1336720  
H    1.4793025    0.0308616  -12.6946499  
H    1.3882981   -4.2452490   -9.8914157  
H    0.5366493   -2.6823968   -8.1265111  
C    0.0000000    0.0000000    1.4700000  
C    1.0662921    0.0000102    2.3034270  
C    0.4961870   -0.0000064    3.6418889  
C   -0.9663858    0.0000850    3.4240247  
N   -1.2632773    0.0000084    2.1528658  
C   -1.8985362    0.0000517    4.5177257  
C   -1.3925775   -0.0004564    5.7720543  
O   -2.1456383   -0.0005410    6.8851312  
C    0.0786232   -0.0009323    6.0245000  
O    0.4683759   -0.0012588    7.1921102  
C    1.0143166   -0.0008442    4.8859032  
H    2.1107198   -0.0000632    2.0421868  
H   -2.9622183    0.0003270    4.3293377  
H   -1.5042274   -0.0009692    7.6184419  
H    2.0724152   -0.0013148    5.1109744  
