58

C    4.4474965    0.6890244   -8.4343945  
C    5.5349180   -0.1224435   -8.4901551  
C    6.0457338   -0.0497560   -9.8387170  
C    5.1604414    0.8772449  -10.5692763  
N    4.2120960    1.2896362   -9.6618269  
C    5.3087364    1.2129393  -11.8758069  
C    6.4139067    0.6216125  -12.6116513  
O    6.6318426    0.8607302  -13.7921707  
C    7.3638333   -0.3630050  -11.8580120  
O    8.2975510   -0.8672827  -12.4672234  
C    7.1024509   -0.6471049  -10.4491772  
H    5.9335917   -0.7055467   -7.6791908  
H    4.6482055    1.8951016  -12.3927818  
H    7.7649390   -1.3297487   -9.9345604  
H    3.4653259    1.9300107   -9.8600759  
C    4.4169312   -0.7262694   -4.2519975  
C    4.7208617   -0.5096739   -5.5576727  
C    3.7394659    0.4171465   -6.0702171  
C    2.8323825    0.7249833   -4.9480648  
N    3.2973506   -0.0000934   -3.8752374  
C    1.7696619    1.5653070   -5.0267138  
C    1.5012130    2.2093743   -6.3017228  
O    0.5680989    2.9826340   -6.4739687  
C    2.4487560    1.8977358   -7.5037413  
O    2.2325065    2.4338408   -8.5822068  
C    3.5619541    0.9748829   -7.2964135  
H    5.5390513   -0.9491631   -6.0999166  
H    1.1167870    1.7775543   -4.1914796  
H    4.9165188   -1.3554571   -3.5333699  
C    3.3321174    0.0004714   -1.3379332  
C    2.6974186    0.0000115   -2.5332308  
C    1.2800441   -0.0002119   -2.2052838  
C    1.2395035    0.0000643   -0.7271293  
N    2.4394063    0.0005458   -0.2131034  
C    0.0000000    0.0000000    0.0000000  
C   -1.1468701    0.0000634   -0.7169542  
O   -2.3742201    0.0000072   -0.1695492  
C   -1.1388767    0.0001606   -2.2096354  
O   -2.2206229    0.0000903   -2.7970413  
C    0.1454526    0.0001815   -2.9324239  
H   -2.9844344    0.0001023   -0.9290168  
H    0.1083580    0.0003680   -4.0135594  
H    4.3940040    0.0007617   -1.1498630  
C    0.0000000    0.0000000    1.4700000  
C    1.0662921    0.0000102    2.3034270  
C    0.4961870   -0.0000064    3.6418889  
C   -0.9663858    0.0000850    3.4240247  
N   -1.2632773    0.0000084    2.1528658  
C   -1.8985362    0.0000517    4.5177257  
C   -1.3925775   -0.0004564    5.7720543  
O   -2.1456383   -0.0005410    6.8851312  
C    0.0786232   -0.0009323    6.0245000  
O    0.4683759   -0.0012588    7.1921102  
C    1.0143166   -0.0008442    4.8859032  
H    2.1107198   -0.0000632    2.0421868  
H   -2.9622183    0.0003270    4.3293377  
H   -1.5042274   -0.0009692    7.6184419  
H    2.0724152   -0.0013148    5.1109744  
