58

C    0.2061598   -0.7036419   -5.1601146  
C   -0.8712831    0.0001717   -4.7267109  
C   -1.3732628    0.7415437   -5.8595038  
C   -0.4936607    0.4095520   -6.9965486  
N    0.4432944   -0.4705930   -6.5062924  
C   -0.6365255    0.9085798   -8.2504486  
C   -1.7294265    1.8346248   -8.4965046  
O   -1.9416990    2.3385830   -9.5916149  
C   -2.6731496    2.2005149   -7.3068339  
O   -3.5965355    2.9793482   -7.5018700  
C   -2.4185408    1.5980502   -6.0006709  
H   -3.0766713    1.8564175   -5.1822366  
H    0.8470305   -1.3727966   -4.6092911  
H    1.1839311   -0.8820064   -7.0441060  
C    1.0965514    0.0001361   -0.8010307  
C    0.0000000    0.0000000    0.0000000  
C   -1.1546565    0.0001473   -0.8669513  
C   -0.6372015    0.0003522   -2.2486279  
N    0.7342867    0.0007340   -2.1395015  
C   -1.4147743    0.0001358   -3.3608715  
C   -2.8576051   -0.0001045   -3.1854458  
O   -3.6427784   -0.0002486   -4.1244904  
C   -3.4275839   -0.0000724   -1.7311664  
O   -4.6406833    0.0000336   -1.5710056  
C   -2.4891867   -0.0001091   -0.6116741  
H   -2.8919125   -0.0002917    0.3920868  
H    2.1388272    0.0000665   -0.5261651  
H    1.3735871   -0.0006095   -2.9130265  
C    1.2347676   -2.8925363   -9.4939163  
C    0.5220736   -1.9359328   -8.8450301  
C    0.7229617   -0.7004330   -9.5647653  
C    1.6175018   -1.0179409  -10.6942677  
N    1.8912651   -2.3625416  -10.5943054  
C    2.0463714   -0.1155067  -11.6126304  
C    1.5971090    1.2603580  -11.4796073  
O    1.9278728    2.1470758  -12.2558982  
C    0.6495880    1.6191704  -10.2908000  
O    0.2650594    2.7743388  -10.1683902  
C    0.2556694    0.5597434   -9.3654377  
H   -0.0759563   -2.0793852   -7.9627631  
H    2.7023810   -0.3691800  -12.4337336  
H    1.3358016   -3.9400532   -9.2606988  
H    2.4760858   -2.8796555  -11.2248799  
C    0.0000000    0.0000000    1.4700000  
C    1.0662921    0.0000102    2.3034270  
C    0.4961870   -0.0000064    3.6418889  
C   -0.9663858    0.0000850    3.4240247  
N   -1.2632773    0.0000084    2.1528658  
C   -1.8985362    0.0000517    4.5177257  
C   -1.3925775   -0.0004564    5.7720543  
O   -2.1456383   -0.0005410    6.8851312  
C    0.0786232   -0.0009323    6.0245000  
O    0.4683759   -0.0012588    7.1921102  
C    1.0143166   -0.0008442    4.8859032  
H    2.1107198   -0.0000632    2.0421868  
H   -2.9622183    0.0003270    4.3293377  
H   -1.5042274   -0.0009692    7.6184419  
H    2.0724152   -0.0013148    5.1109744  
