64

C    5.9071324   -2.1224385   -4.5070223  
C    5.7365515   -1.6242144   -5.7779050  
C    4.6105082   -0.7497128   -5.7346240  
C    4.1312171   -0.7540643   -4.3996377  
N    4.9399006   -1.5992754   -3.6811211  
C    3.0267438   -0.0008951   -3.9901699  
C    2.3947819    0.7709585   -4.9457033  
O    1.3115941    1.5260769   -4.5999943  
C    2.8578549    0.7882375   -6.2828947  
O    2.1221352    1.6061780   -7.1153807  
C    3.9472181    0.0452595   -6.6876135  
H    4.8491910   -1.7951602   -2.7006202  
H    1.0273566    1.9799842   -5.4040106  
H    2.5005421    1.5604818   -7.9987397  
H    4.2787225    0.0785432   -7.7188635  
H    6.6413440   -2.8106947   -4.1246680  
C    7.5411796   -5.4264121   -7.1363927  
C    8.1542775   -4.9361965   -8.2661127  
C    7.8566608   -3.5426574   -8.3299390  
C    7.0518686   -3.2368838   -7.2026699  
N    6.8778429   -4.4034149   -6.5001473  
C    6.5711555   -1.9498460   -6.9433660  
C    6.9092840   -0.9532704   -7.8381755  
O    6.4669041    0.3215294   -7.6327518  
C    7.7109595   -1.2387213   -8.9689499  
O    7.9600764   -0.1400632   -9.7653380  
C    8.1853192   -2.5082386   -9.2255307  
H    8.7426231   -5.5123702   -8.9595583  
H    6.3585653   -4.4943569   -5.6457104  
H    6.8115667    0.8512227   -8.3634344  
H    8.5073894   -0.4189710  -10.5057880  
H    8.7971786   -2.6966277  -10.0999550  
H    7.5233871   -6.4251332   -6.7348970  
C    3.3003547    0.0005277   -1.4738986  
C    2.5232816    0.0003497   -2.6090746  
C    1.1623203   -0.0001319   -2.1820102  
C    1.1711884    0.0000584   -0.7636141  
N    2.4852301   -0.0014919   -0.3662359  
C    0.0000000    0.0000000    0.0000000  
C   -1.2020383    0.0000520   -0.6806479  
O   -2.3759248    0.0003493    0.0157745  
C   -1.2314655   -0.0005115   -2.0955511  
O   -2.5054388   -0.0008040   -2.6250184  
C   -0.0764513   -0.0007274   -2.8495195  
H    2.8036266    0.0088183    0.5858662  
H   -3.0835639    0.0000346   -0.6418822  
H   -2.4360043   -0.0011529   -3.5845924  
H   -0.1304091   -0.0013423   -3.9319089  
H    4.3715553    0.0004897   -1.3667133  
C    0.8400945    0.7047457    2.2710304  
C    0.0000000    0.0000000    1.4700000  
C   -0.8844236   -0.7423113    2.3369512  
C   -0.4878984   -0.4098547    3.7186280  
N    0.5629682    0.4714286    3.6095011  
C   -1.0836927   -0.9095027    4.8308716  
C   -2.1891196   -1.8367527    4.6554461  
O   -2.7906899   -2.3413415    5.5944904  
C   -2.6257283   -2.2031529    3.2011665  
O   -3.5549479   -2.9829990    3.0410059  
C   -1.9068976   -1.5999348    2.0816745  
H   -0.7774656   -0.6525820    5.8354244  
H   -2.2155208   -1.8586617    1.0779135  
H    1.6384792    1.3747609    1.9961646  
H    1.0518368    0.8833920    4.3830260  
