58

C    2.1999228   -1.8451564   -8.4467073  
C    3.1664844   -2.6589131   -8.9443359  
C    3.0759566   -2.5887760  -10.3836837  
C    1.9695096   -1.6607775  -10.6859825  
N    1.4802400   -1.2454319   -9.4690211  
C    1.5664075   -1.3268443  -11.9380609  
C    2.2690521   -1.9212546  -13.0630072  
O    1.9812144   -1.6839005  -14.2288163  
C    3.4438190   -2.9069767  -12.7662221  
O    4.0425948   -3.4138455  -13.7052717  
C    3.7861452   -3.1889694  -11.3744097  
H    3.8632329   -3.2419279   -8.3687946  
H    0.7524449   -0.6439063  -12.1379877  
H    4.6009184   -3.8723957  -11.1774388  
H    0.7190604   -0.6037495   -9.3429394  
C    2.5049804   -2.0931563   -5.9399565  
C    1.9571818   -1.6308520   -4.7865848  
C    0.8879545   -0.7344212   -5.1580690  
C    0.8574976   -0.7122318   -6.6329822  
N    1.8627392   -1.5562151   -7.0453792  
C   -0.0149276    0.0176857   -7.3731171  
C   -0.9887728    0.8362264   -6.6701578  
O   -1.8166673    1.5292763   -7.2468494  
C   -0.9745395    0.8281734   -5.1082557  
O   -1.7894805    1.5135873   -4.5054790  
C    0.0139741    0.0003876   -4.4216236  
H    2.2669048   -1.8882737   -3.7893787  
H   -0.0204602    0.0196988   -8.4542617  
H    3.3239675   -2.7807662   -6.0753923  
C    3.2798085    0.0005853   -1.4499648  
C    2.5571144    0.0005562   -2.5996554  
C    1.1637436    0.0001546   -2.2210360  
C    1.1336965   -0.0000201   -0.7459470  
N    2.4483513   -0.0001430   -0.3402717  
C    0.0000000    0.0000000    0.0000000  
C   -1.2757367   -0.0000188   -0.6964414  
O   -2.3524597   -0.0000640   -0.1142313  
C   -1.2676494   -0.0000875   -2.2584081  
O   -2.3355762   -0.0004102   -2.8557294  
C    0.0181562    0.0001757   -2.9516296  
H    2.9547357    0.0006072   -3.5989105  
H    4.3498550    0.0008609   -1.3200021  
H    2.7563627    0.0012824    0.6148063  
C    0.8400945    0.7047457    2.2710304  
C    0.0000000    0.0000000    1.4700000  
C   -0.8844236   -0.7423113    2.3369512  
C   -0.4878984   -0.4098547    3.7186280  
N    0.5629682    0.4714286    3.6095011  
C   -1.0836927   -0.9095027    4.8308716  
C   -2.1891196   -1.8367527    4.6554461  
O   -2.7906899   -2.3413415    5.5944904  
C   -2.6257283   -2.2031529    3.2011665  
O   -3.5549479   -2.9829990    3.0410059  
C   -1.9068976   -1.5999348    2.0816745  
H   -0.7774656   -0.6525820    5.8354244  
H   -2.2155208   -1.8586617    1.0779135  
H    1.6384792    1.3747609    1.9961646  
H    1.0518368    0.8833920    4.3830260  
