60

C    1.1243353    0.0105905   -0.7919006  
C    0.7473943    0.0238517   -2.1148545  
C   -0.6787511    0.0230872   -2.1414699  
C   -1.1201797    0.0092629   -0.7935547  
N    0.0000000    0.0000000    0.0000000  
C   -2.4730852    0.0050546   -0.4408234  
C   -3.3972050    0.0152897   -1.4675052  
O   -4.7313597    0.0121079   -1.1793461  
C   -2.9763814    0.0287659   -2.8186319  
O   -4.0166691    0.0373733   -3.7247613  
C   -1.6418747    0.0326515   -3.1673479  
H   -2.8160142   -0.0056097    0.5845976  
H   -5.1938938    0.0203222   -2.0274371  
H   -3.6464943    0.0462878   -4.6127335  
H   -1.3497712    0.0428676   -4.2109230  
H    2.1062430    0.0064026   -0.3505409  
C    2.8198362   -0.6677298   -3.3744987  
C    1.6628757    0.0347745   -3.2649302  
C    1.5099691    0.7874339   -4.4876153  
C    2.6810671    0.4634926   -5.3245033  
N    3.4363134   -0.4232432   -4.5922515  
C    2.9070243    0.9740368   -6.5614318  
C    1.9318251    1.9048656   -7.1046434  
O    2.0453930    2.4190888   -8.2096216  
C    0.6841112    2.2623883   -6.2356244  
O   -0.1435483    3.0451486   -6.6823093  
C    0.5500224    1.6476767   -4.9172916  
H    3.7725231    0.7232275   -7.1588572  
H   -0.3168598    1.9003083   -4.3219628  
H    3.2740801   -1.3433136   -2.6680015  
C    4.9461155   -4.4827174   -4.1140619  
C    6.1491816   -4.4136420   -4.7300482  
C    6.2535463   -3.0394783   -5.1961833  
C    4.9910607   -2.4023920   -4.7639398  
N    4.2206921   -3.2434787   -4.1290423  
C    4.7029616   -1.0214503   -5.0379549  
C    5.6339382   -0.3092265   -5.7127543  
O    5.4973857    0.9879410   -6.0364066  
C    6.9179880   -0.9236350   -6.1620619  
O    7.7194971   -0.2157364   -6.7717210  
C    7.1900882   -2.3420622   -5.8688880  
H    6.8760669   -5.1982642   -4.8528543  
H    6.3184639    1.2130854   -6.5100023  
H    8.1318746   -2.7495020   -6.2113230  
H    4.4942177   -5.3356803   -3.6332126  
C    0.0000000    0.0000000    1.4700000  
C    1.0541688    0.0001722    2.3260392  
C    0.5103138    0.0000454    3.6635956  
C   -0.9576371   -0.0002459    3.5155732  
N   -1.2018458    0.0001392    2.1615969  
C   -1.8348311   -0.0008317    4.5510609  
C   -1.2972847   -0.0009736    5.9014604  
O   -2.0050672   -0.0014265    6.9001319  
C    0.2542623   -0.0004184    6.0817573  
O    0.7184670   -0.0002256    7.2139121  
C    1.0974552   -0.0000873    4.8889129  
H    2.0940752    0.0005483    2.0517982  
H   -2.9081052   -0.0011668    4.4207061  
H    2.1707277    0.0000911    5.0223670  
H   -2.1128194   -0.0014912    1.7406791  
