58

C    4.8298522   -1.1036128   -4.9087183  
C    5.6244384   -1.9769519   -4.2379082  
C    6.7582758   -2.2530684   -5.0882063  
C    6.5576965   -1.4633188   -6.3181871  
N    5.3706764   -0.7892966   -6.1462376  
C    7.4132509   -1.4501495   -7.3715434  
C    8.6114936   -2.2685853   -7.2883882  
O    9.4433787   -2.3246192   -8.1845604  
C    8.8440613   -3.1132377   -5.9952216  
O    9.8491621   -3.8063624   -5.9139059  
C    7.8504256   -3.0450531   -4.9266288  
H    5.4375111   -2.3817026   -3.2592105  
H    7.2474587   -0.8636012   -8.2645070  
H    8.0189840   -3.6327461   -4.0344809  
H    4.9614052   -0.1636842   -6.8156800  
C    2.9127944   -0.7214797   -3.3153362  
C    3.5543783   -0.5031937   -4.4921099  
C    2.7457297    0.4250582   -5.2466109  
C    1.5720421    0.7318925   -4.4069087  
N    1.7334695    0.0049281   -3.2500363  
C    0.5691430    1.5730721   -4.7651197  
C    0.6510615    2.2191848   -6.0644901  
O   -0.2019644    2.9933463   -6.4784003  
C    1.8850639    1.9086368   -6.9703614  
O    1.9647776    2.4464642   -8.0665592  
C    2.9022259    0.9847054   -6.4747973  
H   -0.2829824    1.7845577   -4.1341953  
H    3.7535956    0.7751533   -7.1080283  
H    3.2021854   -1.3520628   -2.4904076  
C    1.1319246    0.0015678   -0.8009268  
C    0.7969914    0.0034958   -2.1169401  
C   -0.6453340    0.0035696   -2.1842669  
C   -1.1266832    0.0015410   -0.7896025  
N    0.0000000    0.0000000    0.0000000  
C   -2.4346129    0.0013913   -0.4276292  
C   -3.4350111    0.0031335   -1.4820181  
O   -4.6384614    0.0030875   -1.2583914  
C   -2.9478961    0.0050442   -2.9661074  
O   -3.7809382    0.0062135   -3.8623773  
C   -1.5113825    0.0053055   -3.2312122  
H   -2.7664565    0.0000174    0.6013448  
H   -1.1823533    0.0068381   -4.2614848  
H    2.1104316    0.0009435   -0.3488059  
C    0.0000000    0.0000000    1.4700000  
C    1.0662921    0.0000102    2.3034270  
C    0.4961870   -0.0000064    3.6418889  
C   -0.9663858    0.0000850    3.4240247  
N   -1.2632773    0.0000084    2.1528658  
C   -1.8985362    0.0000517    4.5177257  
C   -1.3925775   -0.0004564    5.7720543  
O   -2.1456383   -0.0005410    6.8851312  
C    0.0786232   -0.0009323    6.0245000  
O    0.4683759   -0.0012588    7.1921102  
C    1.0143166   -0.0008442    4.8859032  
H    2.1107198   -0.0000632    2.0421868  
H   -2.9622183    0.0003270    4.3293377  
H   -1.5042274   -0.0009692    7.6184419  
H    2.0724152   -0.0013148    5.1109744  
