60

C   -3.3003090   -0.0171687   -1.4738997  
C   -2.5232464   -0.0130727   -2.6090755  
C   -1.1623051   -0.0057288   -2.1820104  
C   -1.1711731   -0.0059637   -0.7636142  
N   -2.4852058   -0.0110393   -0.3662366  
C    0.0000000    0.0000000    0.0000000  
C    1.2020235    0.0060090   -0.6806472  
O    2.3758965    0.0116306    0.0157757  
C    1.2314485    0.0067205   -2.0955503  
O    2.5054043    0.0134367   -2.6250165  
C    0.0764482    0.0011127   -2.8495194  
H   -2.8919602   -0.0140202   -3.6205310  
H   -2.8035463   -0.0229546    0.5858655  
H    3.0835257    0.0155133   -0.6418803  
H    2.4359703    0.0134356   -3.5845910  
H    0.1304025    0.0019997   -3.9319083  
C   -6.5322608   -0.0358339   -4.4466898  
C   -7.6042747   -0.0405540   -3.6131201  
C   -7.0888190   -0.0370711   -2.2643692  
C   -5.6180856   -0.0298542   -2.3813360  
N   -5.3453136   -0.0298416   -3.7298482  
C   -4.7629867   -0.0244920   -1.3275418  
C   -5.3289504   -0.0261503    0.0111956  
O   -4.6424445   -0.0217509    1.0246013  
C   -6.8839412   -0.0340120    0.1586628  
O   -7.3719662   -0.0357787    1.2807542  
C   -7.7017225   -0.0390465   -1.0517345  
H   -8.7775633   -0.0442741   -0.9409923  
H   -6.5094774   -0.0364457   -5.5243587  
H   -4.4256657   -0.0241002   -4.1314209  
C   -9.0174196   -0.0480682   -4.0179237  
C   -9.5249796   -0.0515983   -5.2724949  
C  -10.9686673   -0.0588193   -5.0930131  
C  -11.1619875   -0.0588124   -3.6269943  
N  -10.0217505   -0.0524442   -2.9915345  
C  -12.4700802   -0.0650169   -3.0320641  
C  -13.5365676   -0.0705693   -3.8638732  
O  -14.8139699   -0.0766972   -3.4464441  
C  -13.3741180   -0.0703624   -5.3477098  
O  -14.3892413   -0.0757338   -6.0439258  
C  -12.0218907   -0.0639808   -5.9336828  
H   -8.9862330   -0.0494644   -6.2046019  
H  -12.5818895   -0.0650677   -1.9576300  
H  -15.3422909   -0.0795721   -4.2649924  
H  -11.9468833   -0.0639261   -7.0128510  
C    0.8400945    0.7047457    2.2710304  
C    0.0000000    0.0000000    1.4700000  
C   -0.8844236   -0.7423113    2.3369512  
C   -0.4878984   -0.4098547    3.7186280  
N    0.5629682    0.4714286    3.6095011  
C   -1.0836927   -0.9095027    4.8308716  
C   -2.1891196   -1.8367527    4.6554461  
O   -2.7906899   -2.3413415    5.5944904  
C   -2.6257283   -2.2031529    3.2011665  
O   -3.5549479   -2.9829990    3.0410059  
C   -1.9068976   -1.5999348    2.0816745  
H   -0.7774656   -0.6525820    5.8354244  
H   -2.2155208   -1.8586617    1.0779135  
H    1.6384792    1.3747609    1.9961646  
H    1.0518368    0.8833920    4.3830260  
