58

C    1.1497552   -1.0636056   -7.3615220  
C    2.1362880   -1.9379683   -7.0354571  
C    2.8701428   -2.2158006   -8.2475225  
C    2.2256767   -1.4259424   -9.3140956  
N    1.1896267   -0.7502255   -8.7116853  
C    2.6259082   -1.4141260  -10.6107758  
C    3.7674672   -2.2342360  -10.9806380  
O    4.2043641   -2.2915673  -12.1226253  
C    4.4651378   -3.0790328   -9.8673646  
O    5.4270029   -3.7735607  -10.1668775  
C    3.9426107   -3.0092992   -8.5050307  
H    2.3279204   -2.3423177   -6.0575043  
H    2.1393319   -0.8274705  -11.3775809  
H    4.4314471   -3.5971035   -7.7400143  
H    0.5607244   -0.1241317   -9.1802319  
C   -0.0202922   -0.6967075   -5.1400949  
C   -1.0641734    0.0073898   -4.6315339  
C   -1.6428387    0.7514421   -5.7253202  
C   -0.8448102    0.4207138   -6.9213806  
N    0.1229396   -0.4613330   -6.4990735  
C   -1.0739327    0.9222830   -8.1613948  
C   -2.1802191    1.8499248   -8.3291652  
O   -2.4675345    2.3561930   -9.4059405  
C   -3.0385140    2.2145170   -7.0760863  
O   -3.9723192    2.9946744   -7.2050168  
C   -2.6944049    1.6092961   -5.7918944  
H   -0.4766432    0.6666084   -9.0255627  
H   -3.2937360    1.8667795   -4.9292078  
H    0.6565472   -1.3675745   -4.6363937  
C    1.1319248    0.0015675   -0.8009270  
C    0.7969916    0.0034959   -2.1169404  
C   -0.6453336    0.0035703   -2.1842672  
C   -1.1266831    0.0015415   -0.7896027  
N    0.0000000    0.0000000    0.0000000  
C   -2.4346129    0.0013924   -0.4276297  
C   -3.4350110    0.0031352   -1.4820184  
O   -4.6384610    0.0030897   -1.2583919  
C   -2.9478958    0.0050460   -2.9661075  
O   -3.7809377    0.0062160   -3.8623775  
C   -1.5113821    0.0053068   -3.2312125  
H    1.4821240    0.0045436   -2.9459192  
H   -2.7664565    0.0000185    0.6013447  
H    2.1104318    0.0009428   -0.3488058  
C    0.8400945    0.7047457    2.2710304  
C    0.0000000    0.0000000    1.4700000  
C   -0.8844236   -0.7423113    2.3369512  
C   -0.4878984   -0.4098547    3.7186280  
N    0.5629682    0.4714286    3.6095011  
C   -1.0836927   -0.9095027    4.8308716  
C   -2.1891196   -1.8367527    4.6554461  
O   -2.7906899   -2.3413415    5.5944904  
C   -2.6257283   -2.2031529    3.2011665  
O   -3.5549479   -2.9829990    3.0410059  
C   -1.9068976   -1.5999348    2.0816745  
H   -0.7774656   -0.6525820    5.8354244  
H   -2.2155208   -1.8586617    1.0779135  
H    1.6384792    1.3747609    1.9961646  
H    1.0518368    0.8833920    4.3830260  
