58

C   -8.1392608   -0.5342863   -2.5872502  
C   -8.3100638    0.3083698   -1.5361406  
C   -9.7243839    0.3395454   -1.2470695  
C  -10.3681632   -0.5604977   -2.2229084  
N   -9.3527389   -1.0580294   -3.0066591  
C  -11.7019296   -0.8043069   -2.2806155  
C  -12.5607315   -0.1354623   -1.3174737  
O  -13.7746961   -0.2894397   -1.2878096  
C  -11.9004539    0.8222697   -0.2750783  
O  -12.6134071    1.3911962    0.5405688  
C  -10.4515865    1.0047308   -0.3117394  
H   -7.5338933    0.8468169   -1.0220908  
H  -12.1539194   -1.4682515   -3.0043513  
H  -10.0021977    1.6693655    0.4135422  
H   -9.4742155   -1.7038589   -3.7650753  
C   -4.0230211    0.6852477   -1.8410565  
C   -3.3460097   -0.0004262   -2.7913647  
C   -4.3652414   -0.7461030   -3.5136064  
C   -5.6347339   -0.3825697   -2.8481622  
N   -5.4404330    0.4562399   -1.8670223  
C   -6.8979173   -0.9192523   -3.2741038  
C   -6.8931414   -1.7796800   -4.3176440  
O   -7.9981919   -2.3562936   -4.8200580  
C   -5.6284695   -2.1658222   -5.0102183  
O   -5.6989686   -2.9542261   -5.9529108  
C   -4.3454707   -1.6017431   -4.5545291  
H   -7.6764567   -2.9130446   -5.5519513  
H   -3.4519528   -1.9064880   -5.0827208  
H   -3.6257280    1.3575928   -1.0973603  
C    0.0000000    0.0000000    0.0000000  
C    1.0662919   -0.0000103   -0.8334272  
C    0.4961868    0.0000066   -2.1718889  
C   -0.9663860   -0.0000849   -1.9540248  
N   -1.2632775   -0.0000084   -0.6828659  
C   -1.8985364   -0.0000515   -3.0477258  
C   -1.3925778    0.0004567   -4.3020543  
O   -2.1456385    0.0005412   -5.4151314  
C    0.0786229    0.0009326   -4.5544999  
O    0.4683756    0.0012594   -5.7221104  
C    1.0143162    0.0008443   -3.4159034  
H    2.1107195    0.0000631   -0.5721869  
H   -1.5042277    0.0009692   -6.1484420  
H    2.0724151    0.0013151   -3.6409746  
C    3.1301144    0.0010313    3.1728260  
C    2.5367765    0.0002768    1.9564670  
C    1.1089900   -0.0001027    2.2356185  
C    1.0177864    0.0004150    3.7115134  
N    2.1993570    0.0011613    4.2663826  
C   -0.2459220    0.0002880    4.3957118  
C   -1.3675327    0.0000606    3.6398520  
O   -2.6129319   -0.0000866    4.1448486  
C   -1.3083589   -0.0000910    2.1483229  
O   -2.3693264   -0.0004206    1.5241687  
C    0.0000000    0.0000000    1.4700000  
H    3.0096015    0.0001008    0.9892483  
H   -0.2829642    0.0004689    5.4753125  
H   -3.1967446   -0.0002093    3.3649027  
H    4.1849273    0.0015113    3.3971983  
