60

C   -3.9882954    0.7031701   -1.8236365  
C   -3.3460098   -0.0004261   -2.7913644  
C   -4.3538743   -0.7419633   -3.5118971  
C   -5.6452436   -0.4103055   -2.8801080  
N   -5.3545713    0.4698233   -1.8633619  
C   -6.8443197   -0.9095665   -3.2733774  
C   -6.8643129   -1.8355277   -4.3935249  
O   -7.8938502   -2.3396792   -4.8226925  
C   -5.5084415   -2.2010659   -5.0774840  
O   -5.5127437   -2.9798257   -6.0212932  
C   -4.2807772   -1.5983711   -4.5642089  
H   -7.7800877   -0.6532465   -2.7963579  
H   -3.3462066   -1.8564947   -5.0434518  
H   -3.5784438    1.3723570   -1.0846505  
H   -6.0310091    0.8810393   -1.2466113  
C    0.0000000    0.0000000    0.0000000  
C    1.0662918   -0.0000103   -0.8334272  
C    0.4961866    0.0000066   -2.1718888  
C   -0.9663862   -0.0000848   -1.9540246  
N   -1.2632777   -0.0000084   -0.6828658  
C   -1.8985367   -0.0000514   -3.0477256  
C   -1.3925783    0.0004569   -4.3020543  
O   -2.1456389    0.0005417   -5.4151310  
C    0.0786225    0.0009329   -4.5544999  
O    0.4683752    0.0012595   -5.7221105  
C    1.0143159    0.0008446   -3.4159033  
H    2.1107193    0.0000632   -0.5721869  
H   -1.5042282    0.0009699   -6.1484418  
C    4.4498795   -2.0927815   -1.5965452  
C    3.2085335   -1.6305557   -1.8956818  
C    3.3524531   -0.7335190   -3.0179328  
C    4.7897013   -0.7108880   -3.3504922  
N    5.3998252   -1.5552206   -2.4517479  
C    5.3348503    0.0196507   -4.3558928  
C    4.4468014    0.8384418   -5.1642773  
O    4.8411361    1.5320450   -6.0925637  
C    2.9210843    0.8299300   -4.8297324  
O    2.1637287    1.5155491   -5.5032300  
C    2.4521470    0.0014842   -3.7217487  
H    2.2961906   -1.8884107   -1.3879863  
H    6.3918361    0.0219796   -4.5832383  
H    4.7506774   -2.7807342   -0.8231556  
H    6.3833783   -1.7523011   -2.4229417  
C    1.1188642   -0.0008217    2.2703808  
C    0.0000000    0.0000000    1.4700000  
C   -1.1323862   -0.0008904    2.3373528  
C   -0.6382662   -0.0019682    3.6669281  
N    0.7324016   -0.0038477    3.5902241  
C   -1.4770914   -0.0027325    4.7854808  
C   -2.8395474   -0.0020958    4.5576857  
O   -3.7039201   -0.0024443    5.6140350  
C   -3.3517868   -0.0013946    3.2384331  
O   -4.7300496   -0.0012389    3.1773122  
C   -2.5248543   -0.0009135    2.1344818  
H    1.3576314    0.0056174    4.3757045  
H   -1.1067570   -0.0036993    5.8013813  
H   -4.5940033   -0.0021850    5.2385129  
H   -4.9934601   -0.0007286    2.2519915  
H   -2.9462578   -0.0005617    1.1360343  
H    2.1619896   -0.0009344    2.0042067  
