58

C    1.6748845   -1.0738457   -7.2212415  
C    2.6193396   -1.9473279   -6.7863752  
C    3.4833147   -2.2265727   -7.9090535  
C    2.9610576   -1.4385028   -9.0417416  
N    1.8643475   -0.7623677   -8.5590847  
C    3.5027925   -1.4283602  -10.2859794  
C    4.6785755   -2.2485133  -10.5256012  
O    5.2395894   -2.3072831  -11.6119289  
C    5.2485361   -3.0914328   -9.3405121  
O    6.2378925   -3.7859798   -9.5303567  
C    4.5779509   -3.0199838   -8.0447260  
H    2.7013026   -2.3502063   -5.7926029  
H    3.1042160   -0.8430003  -11.1029253  
H    4.9789724   -3.6064942   -7.2293051  
H    1.2911972   -0.1372057   -9.0954788  
C    0.2653132   -0.7042848   -5.1440086  
C   -0.8287665    0.0000939   -4.7555305  
C   -1.2825959    0.7423471   -5.9078912  
C   -0.3566076    0.4102563   -7.0074599  
N    0.5584965   -0.4707814   -6.4790213  
C   -0.4467552    0.9099661   -8.2659782  
C   -1.5278136    1.8369017   -8.5569043  
O   -1.6939218    2.3415180   -9.6596606  
C   -2.5200361    2.2029121   -7.4074103  
O   -3.4339548    2.9824918   -7.6403694  
C   -2.3204911    1.5996618   -6.0920689  
H    0.2428631    0.6533158   -9.0581061  
H   -3.0119746    1.8581180   -5.3016419  
H    0.8822124   -1.3741499   -4.5672891  
C    1.0672569   -0.0000698   -0.8321910  
C    0.0000000    0.0000000    0.0000000  
C   -1.1601223   -0.0000736   -0.8778472  
C   -0.5938729   -0.0000768   -2.2438435  
N    0.7113367   -0.0001553   -2.2234123  
C   -1.4286985   -0.0001877   -3.4135239  
C   -2.7683113   -0.0006798   -3.2270524  
O   -3.6653902   -0.0008302   -4.2276970  
C   -3.3702024   -0.0010610   -1.8610774  
O   -4.5974910   -0.0013779   -1.7662963  
C   -2.4926825   -0.0008943   -0.6770658  
H   -4.5324245   -0.0012258   -3.7833954  
H   -2.9677772   -0.0012974    0.2947961  
H    2.1134391   -0.0000547   -0.5705119  
C    0.8681109    0.7263879    2.2709268  
C    0.6127770    0.5096195    3.5869401  
C   -0.4920590   -0.4175482    3.6542670  
C   -0.8620974   -0.7254003    2.2596025  
N    0.0000000    0.0000000    1.4700000  
C   -1.8641242   -1.5660088    1.8976294  
C   -2.6293522   -2.2103885    2.9520183  
O   -3.5512764   -2.9839180    2.7283916  
C   -2.2549728   -1.8987399    4.4361073  
O   -2.8923672   -2.4351063    5.3323774  
C   -1.1543735   -0.9755647    4.7012123  
H    1.1382914    0.9492124    4.4159191  
H   -2.1192137   -1.7782617    0.8686553  
H   -0.9013378   -0.7652422    5.7314848  
H    1.6172880    1.3558399    1.8188057  
