64

C    5.6781998   -2.1507676   -4.8062447  
C    4.8322905   -1.6772295   -3.8301983  
C    3.9133766   -0.7927567   -4.4688723  
C    4.2502405   -0.7663051   -5.8464606  
N    5.3273091   -1.6003055   -6.0167060  
C    3.5514907    0.0035824   -6.7812392  
C    2.4932129    0.7603219   -6.3169421  
O    1.7765738    1.5301403   -7.1868969  
C    2.1420060    0.7474442   -4.9460650  
O    1.0653090    1.5541059   -4.6405098  
C    2.8310662   -0.0116220   -4.0232752  
H    4.8732706   -1.9364494   -2.7861105  
H    3.8033243    0.0282020   -7.8325120  
H    1.0939352    1.9700463   -6.6636835  
H    0.8940125    1.4879154   -3.6961153  
H    6.5049775   -2.8365149   -4.7344948  
C    6.9900277   -5.3514569   -7.7926245  
C    6.3940292   -4.4364807   -6.9559230  
C    6.4305599   -3.1763837   -7.6233225  
C    7.0657831   -3.3861226   -8.8740934  
N    7.3944494   -4.7171821   -8.9439229  
C    7.2740608   -2.3579618   -9.7983743  
C    6.8327781   -1.0951251   -9.4538587  
O    7.0103814   -0.0548898  -10.3195271  
C    6.1971080   -0.8658597   -8.2104042  
O    5.8155598    0.4454096   -8.0146057  
C    5.9915468   -1.8796400   -7.2979793  
H    5.9844275   -4.6506662   -5.9836350  
H    7.8473732   -5.1631318   -9.7210776  
H    7.7576739   -2.5112652  -10.7532650  
H    6.6359794    0.7250400   -9.8896468  
H    5.3945995    0.5141514   -7.1522422  
H    7.1599235   -6.4060402   -7.6586455  
C    3.3041270    0.0001177   -1.5420434  
C    2.5845372   -0.0004781   -0.3695856  
C    1.2040006   -0.0000008   -0.7283592  
C    1.1422371    0.0006037   -2.1454375  
N    2.4348636    0.0026109   -2.6077467  
C   -0.0655183    0.0008798   -2.8497920  
C   -1.2321770    0.0002326   -2.1101400  
O   -2.4392818    0.0001147   -2.7472520  
C   -1.1911210   -0.0000007   -0.6955263  
O   -2.4371527   -0.0002320   -0.1032859  
C    0.0000000    0.0000000    0.0000000  
H    3.0031533   -0.0000660    0.6222577  
H   -0.1193553    0.0014844   -3.9297472  
H   -3.1132989   -0.0000648   -2.0551784  
H   -2.3200282   -0.0004069    0.8516410  
H    4.3686624    0.0004070   -1.7024294  
C    2.4951002    2.0940188    2.9809380  
C    1.9440701    1.6314916    1.8291961  
C    0.8759964    0.7350050    2.2038498  
C    0.8497377    0.7130254    3.6788474  
N    1.8560616    1.5571714    4.0882609  
C   -0.0205033   -0.0168748    4.4215661  
C   -0.9962600   -0.8356168    3.7214979  
O   -1.8224391   -1.5286685    4.3006425  
C   -0.9864710   -0.8277881    2.1595606  
O   -1.8030528   -1.5133726    1.5592035  
C    0.0000000    0.0000000    1.4700000  
H    2.2509283    1.8888011    0.8310761  
H   -0.0229599   -0.0187323    5.5027230  
H    3.3143982    2.7817323    3.1139444  
H    2.0889452    1.7545833    5.0442112  
