62

C    0.0000000    0.0000000    0.0000000  
C    1.0521663   -0.0011902   -0.8862345  
C    0.4917215   -0.0011956   -2.1979133  
C   -0.9187430    0.0003149   -2.0478683  
N   -1.1833172   -0.0009411   -0.7007910  
C   -1.7951704    0.0010351   -3.1372088  
C   -1.2375840    0.0005226   -4.4010423  
O   -2.0474221    0.0015361   -5.4997580  
C    0.1673576   -0.0013565   -4.5711965  
O    0.5673516   -0.0020685   -5.8915550  
C    1.0325767   -0.0023411   -3.4969892  
H    2.0953056   -0.0030649   -0.6200563  
H   -2.0989778    0.0102372   -0.2891821  
H   -1.4634890    0.0006499   -6.2693592  
H    1.5290706   -0.0033151   -5.9180044  
C   -4.5382432    2.1273441   -0.3186947  
C   -3.4269652    1.6642215   -0.9843126  
C   -3.8900509    0.7769057   -2.0005914  
C   -5.3047972    0.7380662   -1.9061941  
N   -5.6653153    1.5677425   -0.8735850  
C   -6.0984769   -0.0377255   -2.7564927  
C   -5.4522252   -0.7877412   -3.7198273  
O   -6.1789713   -1.5628758   -4.5765772  
C   -4.0414998   -0.7624929   -3.8295256  
O   -3.5480024   -1.5637039   -4.8384183  
C   -3.2578654    0.0024039   -2.9908502  
H   -2.4078449    1.9320309   -0.7637133  
H   -6.6071042    1.7500065   -0.5772840  
H   -7.1771657   -0.0717845   -2.6896186  
H   -5.5421618   -1.9965803   -5.1593622  
H   -2.5888282   -1.4891819   -4.8443292  
H   -4.6159809    2.8114593    0.5088938  
C    3.4023822   -0.7104410   -3.0044229  
C    2.4861696   -0.0045381   -3.7159924  
C    3.2127735    0.7364354   -4.7199054  
C    4.6376152    0.4019327   -4.5335606  
N    4.6849701   -0.4791374   -3.4779269  
C    5.6494172    0.8998900   -5.2885440  
C    5.3126247    1.8273495   -6.3557487  
O    6.1523074    2.3305063   -7.0906414  
C    3.8100685    2.1959025   -6.5709217  
O    3.5144055    2.9759438   -7.4661199  
C    2.8092773    1.5943917   -5.6931673  
H    6.6880025    0.6414826   -5.1353254  
H    1.7711204    1.8546040   -5.8488738  
H    3.2485433   -1.3800073   -2.1738181  
H    5.5220885   -0.8922336   -3.1096445  
C    1.0965515   -0.0001358    2.2710304  
C    0.0000000    0.0000000    1.4700000  
C   -1.1546562   -0.0001469    2.3369512  
C   -0.6372014   -0.0003519    3.7186280  
N    0.7342871   -0.0007337    3.6095011  
C   -1.4147739   -0.0001353    4.8308716  
C   -2.8576048    0.0001048    4.6554461  
O   -3.6427778    0.0002493    5.5944904  
C   -3.4275839    0.0000726    3.2011665  
O   -4.6406829   -0.0000333    3.0410059  
C   -2.4891866    0.0001091    2.0816745  
H   -1.0150448   -0.0001615    5.8354244  
H   -2.8919121    0.0002919    1.0779135  
H    2.1388271   -0.0000662    1.9961646  
H    1.3735872    0.0006099    4.3830260  
