60

C   -3.2727231   -0.4544674   -1.5420440  
C   -2.5600509   -0.3549264   -0.3695864  
C   -1.1925632   -0.1655615   -0.7283595  
C   -1.1313037   -0.1576672   -2.1454379  
N   -2.4113746   -0.3374045   -2.6077472  
C    0.0650171    0.0081380   -2.8497926  
C    1.2205040    0.1692066   -2.1101404  
O    2.4161248    0.3353123   -2.7472522  
C    1.1798052    0.1637919   -0.6955269  
O    2.4139686    0.3353629   -0.1032864  
C    0.0000000    0.0000000    0.0000000  
H   -2.9746339   -0.4128984    0.6222578  
H    0.1184254    0.0149423   -3.9297475  
H    3.0837148    0.4281742   -2.0551784  
H    2.2979324    0.3194304    0.8516404  
H   -4.3271056   -0.6011384   -1.7024300  
C   -2.8057703   -0.3777886   -4.0232762  
C   -4.0399695   -0.5479479   -4.5635287  
C   -3.8805813   -0.5090772   -5.9980739  
C   -2.4420362   -0.3008597   -6.2511045  
N   -1.8461208   -0.2292712   -5.0131019  
C   -1.8839051   -0.2077211   -7.4846028  
C   -2.7584127   -0.3198233   -8.6401135  
O   -2.3518526   -0.2491355   -9.7925078  
C   -4.2853119   -0.5403086   -8.3956323  
O   -5.0314261   -0.6358696   -9.3607448  
C   -4.7687894   -0.6246410   -7.0197724  
H   -4.9573571   -0.6848678   -4.0192250  
H   -0.8261760   -0.0549984   -7.6482942  
H   -0.8649052   -0.0924516   -4.8532769  
C   -7.4403117    1.1242872   -4.0546895  
C   -8.6248735    0.5467345   -4.3626269  
C   -8.3365288   -0.3197293   -5.4951455  
C   -6.8906858   -0.1369947   -5.7456045  
N   -6.3599101    0.7082697   -4.9042997  
C   -6.2075272   -0.8325443   -6.8013467  
C   -6.9355856   -1.6727573   -7.5716110  
O   -6.4280480   -2.3859028   -8.5913510  
C   -8.3963186   -1.8787925   -7.3436431  
O   -8.9961143   -2.6586329   -8.0834513  
C   -9.0742073   -1.1537215   -6.2543019  
H   -9.5767497    0.6908155   -3.8807058  
H   -7.1853725   -2.8864610   -8.9449802  
H  -10.1331655   -1.3306626   -6.1219010  
H   -7.2317714    1.8346906   -3.2705904  
C    2.5128556    2.1077716    2.9199648  
C    1.9592212    1.6432552    4.0696553  
C    0.8915788    0.7479214    3.6910360  
C    0.8684491    0.7287414    2.2159470  
N    1.8754542    1.5738793    1.8102719  
C    0.0000000    0.0000000    1.4700000  
C   -0.9772830   -0.8200135    2.1664417  
O   -1.8021297   -1.5120829    1.5842315  
C   -0.9711318   -0.8147624    3.7284083  
O   -1.7894187   -1.5009653    4.3257297  
C    0.0140216    0.0115358    4.4216297  
H    2.2638494    1.8988021    5.0689105  
H    0.0117648    0.0094386    5.5031631  
H    3.3327358    2.7953732    2.7900019  
H    2.1123206    1.7707734    0.8551938  
