60

C    1.1243411    0.0099243   -0.7919006  
C    0.7474080    0.0234091   -2.1148544  
C   -0.6787376    0.0234901   -2.1414695  
C   -1.1201742    0.0099270   -0.7935543  
N    0.0000000    0.0000000    0.0000000  
C   -2.4730817    0.0065204   -0.4408231  
C   -3.3971953    0.0173039   -1.4675054  
O   -4.7313513    0.0149120   -1.1793453  
C   -2.9763642    0.0305307   -2.8186311  
O   -4.0166464    0.0397549   -3.7247608  
C   -1.6418558    0.0336257   -3.1673474  
H   -2.8160166   -0.0039406    0.5845978  
H   -5.1938814    0.0234010   -2.0274364  
H   -3.6464663    0.0484503   -4.6127329  
H   -1.3497461    0.0436686   -4.2109227  
H    2.1062466    0.0051544   -0.3505413  
C    4.5316458   -2.0782506   -2.8537113  
C    4.8145576   -1.6024192   -4.0937195  
C    3.7435725   -0.7035952   -4.4541939  
C    2.8068217   -0.6946980   -3.3143653  
N    3.3419281   -1.5485144   -2.3775898  
C    1.6628959    0.0337896   -3.2649305  
C    1.3321238    0.8643634   -4.4109115  
O    0.3242791    1.5570833   -4.4627600  
C    2.3096985    0.8701065   -5.6291562  
O    2.0415749    1.5652518   -6.5997971  
C    3.5120828    0.0430159   -5.5655543  
H    5.6751772   -1.8526685   -4.6881292  
H    4.1838754    0.0527636   -6.4130938  
H    2.9324186   -1.7535205   -1.4846613  
C    6.4933472   -3.6200771   -2.3923422  
C    6.9452799   -4.4442351   -1.4122424  
C    5.9840873   -4.3855333   -0.3363717  
C    4.9275359   -3.4529540   -0.7731626  
N    5.2959352   -3.0236743   -2.0273119  
C    3.8360734   -3.1274890   -0.0352689  
C    3.6924626   -3.7361544    1.2767667  
O    2.7450379   -3.5071385    2.0171987  
C    4.7995489   -4.7265645    1.7597283  
O    4.6896029   -5.2449420    2.8626595  
C    5.9293994   -4.9989131    0.8747895  
H    7.8489559   -5.0266685   -1.4397308  
H    3.0725828   -2.4411802   -0.3743442  
H    6.6915417   -5.6859788    1.2165556  
H    6.9344110   -3.3980611   -3.3504973  
C    0.8681109    0.7263879    2.2709268  
C    0.6127770    0.5096195    3.5869401  
C   -0.4920590   -0.4175482    3.6542670  
C   -0.8620974   -0.7254003    2.2596025  
N    0.0000000    0.0000000    1.4700000  
C   -1.8641242   -1.5660088    1.8976294  
C   -2.6293522   -2.2103885    2.9520183  
O   -3.5512764   -2.9839180    2.7283916  
C   -2.2549728   -1.8987399    4.4361073  
O   -2.8923672   -2.4351063    5.3323774  
C   -1.1543735   -0.9755647    4.7012123  
H    1.1382914    0.9492124    4.4159191  
H   -2.1192137   -1.7782617    0.8686553  
H   -0.9013378   -0.7652422    5.7314848  
H    1.6172880    1.3558399    1.8188057  
