60

C   -3.3002794   -0.0223200   -1.4738975  
C   -2.5232245   -0.0170111   -2.6090737  
C   -1.1622959   -0.0075430   -2.1820094  
C   -1.1711628   -0.0077918   -0.7636135  
N   -2.4851861   -0.0149181   -0.3662351  
C    0.0000000    0.0000000    0.0000000  
C    1.2020127    0.0078850   -0.6806478  
O    2.3758749    0.0153388    0.0157740  
C    1.2314351    0.0086424   -2.0955507  
O    2.5053784    0.0173469   -2.6250181  
C    0.0764446    0.0012319   -2.8495193  
H   -2.8035074   -0.0273303    0.5858668  
H    3.0834965    0.0203259   -0.6418813  
H    2.4359429    0.0172374   -3.5845921  
H    0.1303967    0.0022029   -3.9319081  
H   -4.3714567   -0.0293549   -1.3667122  
C   -3.0266843   -0.0190908   -3.9901688  
C   -4.3102568   -0.0274553   -4.4333923  
C   -4.2574057   -0.0256950   -5.8763195  
C   -2.8275741   -0.0155757   -6.2400093  
N   -2.1344213   -0.0115780   -5.0515598  
C   -2.3580942   -0.0115305   -7.5133029  
C   -3.3256131   -0.0173184   -8.5979262  
O   -3.0026862   -0.0142655   -9.7786079  
C   -4.8450384   -0.0278005   -8.2359275  
O   -5.6689089   -0.0324353   -9.1406243  
C   -5.2286797   -0.0316414   -6.8264395  
H   -5.1933219   -0.0339179   -3.8195778  
H   -1.3051105   -0.0042227   -7.7584188  
H   -1.1343944   -0.0062822   -4.9681011  
C   -6.6613089   -0.0417930   -6.4972428  
C   -7.2595128   -0.0467530   -5.2781436  
C   -8.6848569   -0.0565189   -5.5086488  
C   -8.8693341   -0.0568733   -6.9724656  
N   -7.6044706   -0.0473184   -7.5136851  
C  -10.0749351   -0.0652585   -7.5954899  
C  -11.2706228   -0.0743286   -6.7691837  
O  -12.4024062   -0.0822014   -7.2353446  
C  -11.0988809   -0.0738713   -5.2166664  
O  -12.0983000   -0.0811538   -4.5107128  
C   -9.7475361   -0.0646793   -4.6620186  
H   -6.7593654   -0.0437142   -4.3260631  
H  -10.1882448   -0.0654869   -8.6706977  
H   -9.6372463   -0.0646289   -3.5861188  
H   -7.3982487   -0.0467155   -8.4957847  
C    0.8400945    0.7047457    2.2710304  
C    0.0000000    0.0000000    1.4700000  
C   -0.8844236   -0.7423113    2.3369512  
C   -0.4878984   -0.4098547    3.7186280  
N    0.5629682    0.4714286    3.6095011  
C   -1.0836927   -0.9095027    4.8308716  
C   -2.1891196   -1.8367527    4.6554461  
O   -2.7906899   -2.3413415    5.5944904  
C   -2.6257283   -2.2031529    3.2011665  
O   -3.5549479   -2.9829990    3.0410059  
C   -1.9068976   -1.5999348    2.0816745  
H   -0.7774656   -0.6525820    5.8354244  
H   -2.2155208   -1.8586617    1.0779135  
H    1.6384792    1.3747609    1.9961646  
H    1.0518368    0.8833920    4.3830260  
