58

C   -3.2798026    0.0065823   -1.4499638  
C   -2.5571104    0.0050320   -2.5996551  
C   -1.1637419    0.0023886   -2.2210357  
C   -1.1336939    0.0024976   -0.7459472  
N   -2.4483453    0.0054937   -0.3402718  
C    0.0000000    0.0000000    0.0000000  
C    1.2757335   -0.0027695   -0.6964417  
O    2.3524537   -0.0050774   -0.1142319  
C    1.2676461   -0.0026833   -2.2584090  
O    2.3355706   -0.0046945   -2.8557305  
C   -0.0181570   -0.0001364   -2.9516296  
H   -0.0150808   -0.0002990   -4.0331634  
H   -4.3498468    0.0086456   -1.3200009  
H   -2.7563587    0.0047418    0.6148068  
C   -3.1006008    0.0061501   -3.9654941  
C   -4.3994731    0.0078065   -4.3456348  
C   -4.3646223    0.0082667   -5.8000372  
C   -2.9251353    0.0068038   -6.1383550  
N   -2.1793068    0.0054785   -5.0670354  
C   -2.4633998    0.0067174   -7.4991953  
C   -3.3972598    0.0076436   -8.4775821  
O   -3.1090880    0.0076906   -9.7902115  
C   -4.8575494    0.0087564   -8.1682050  
O   -5.6513757    0.0096880   -9.1089809  
C   -5.3059779    0.0088669   -6.7643401  
H   -5.2733087    0.0085260   -3.7167579  
H   -1.4054369    0.0058394   -7.7174227  
H   -3.9761709    0.0084291  -10.2344189  
C   -7.7599111    2.1180793   -3.7957085  
C   -8.9866971    1.6544142   -4.1479663  
C   -8.7937836    0.7590301   -5.2641688  
C   -7.3436457    0.7388929   -5.5352502  
N   -6.7736942    1.5835809   -4.6108328  
C   -6.7550056    0.0098251   -6.5169161  
C   -7.6065553   -0.8095545   -7.3630930  
O   -7.1719519   -1.5018515   -8.2742169  
C   -9.1451981   -0.8032864   -7.0941258  
O   -9.8721907   -1.4889492   -7.8002488  
C   -9.6621563    0.0232823   -6.0062884  
H   -9.9202501    1.9105563   -3.6794755  
H  -10.7286407    0.0218905   -5.8264738  
H   -7.4933407    2.8054452   -3.0093511  
H   -5.7922414    1.7798089   -4.5380866  
C    2.4951002    2.0940188    2.9809380  
C    1.9440701    1.6314916    1.8291961  
C    0.8759964    0.7350050    2.2038498  
C    0.8497377    0.7130254    3.6788474  
N    1.8560616    1.5571714    4.0882609  
C   -0.0205033   -0.0168748    4.4215661  
C   -0.9962600   -0.8356168    3.7214979  
O   -1.8224391   -1.5286685    4.3006425  
C   -0.9864710   -0.8277881    2.1595606  
O   -1.8030528   -1.5133726    1.5592035  
C    0.0000000    0.0000000    1.4700000  
H    2.2509283    1.8888011    0.8310761  
H   -0.0229599   -0.0187323    5.5027230  
H    3.3143982    2.7817323    3.1139444  
H    2.0889452    1.7545833    5.0442112  
