58

C    0.0000000    0.0000000    0.0000000  
C    1.0541693   -0.0001721   -0.8560389  
C    0.5103146   -0.0000453   -2.1935956  
C   -0.9576361    0.0002459   -2.0455734  
N   -1.2018454   -0.0001390   -0.6915973  
C   -1.8348302    0.0008319   -3.0810614  
C   -1.2972832    0.0009738   -4.4314609  
O   -2.0050656    0.0014267   -5.4301325  
C    0.2542641    0.0004187   -4.6117571  
O    0.7184691    0.0002259   -5.7439122  
C    1.0974562    0.0000874   -3.4189126  
H    2.0940753   -0.0005483   -0.5817979  
H    2.1707291   -0.0000911   -3.5523664  
H   -2.1128190    0.0014913   -0.2706797  
C   -4.3137495    2.1424312   -0.2077343  
C   -5.5591243    1.7353211   -0.5466770  
C   -5.3648100    0.8246403   -1.6644436  
C   -3.9011707    0.7979208   -1.8733231  
N   -3.2797683    1.5684038   -1.0223210  
C   -3.2941063    0.0012876   -2.9038251  
C   -4.1120047   -0.7354735   -3.6896749  
O   -3.6822278   -1.5242476   -4.6892580  
C   -5.5930489   -0.7299487   -3.5035615  
O   -6.2763249   -1.4248014   -4.2555819  
C   -6.1916574    0.0955196   -2.4395156  
H   -4.4926424   -1.9161854   -5.0617706  
H   -7.2683261    0.0718761   -2.3372602  
H   -4.0287176    2.8244777    0.5774679  
C   -7.2958835    5.5163547    1.0507883  
C   -6.4324015    4.6380467    0.4899374  
C   -7.1396020    3.3666857    0.4870488  
C   -8.4512934    3.6684431    1.0994137  
N   -8.5487402    4.9270095    1.4318363  
C   -9.4569433    2.6580080    1.2804575  
C   -9.1656083    1.4032407    0.8681248  
O  -10.0096528    0.3629888    0.9753878  
C   -7.8509041    1.0672916    0.2461500  
O   -7.6541706   -0.0958051   -0.1055926  
C   -6.8358058    2.1213106    0.0713809  
H   -5.4383581    4.8293099    0.1233694  
H  -10.4066954    2.9066418    1.7310807  
H   -9.5223269   -0.3916238    0.5982597  
H   -7.1474701    6.5687131    1.2337874  
C    3.2798086   -0.0005857    2.9199648  
C    2.5571146   -0.0005566    4.0696553  
C    1.1637436   -0.0001548    3.6910360  
C    1.1336965    0.0000200    2.2159470  
N    2.4483514    0.0001428    1.8102719  
C    0.0000000    0.0000000    1.4700000  
C   -1.2757367    0.0000186    2.1664417  
O   -2.3524596    0.0000640    1.5842315  
C   -1.2676493    0.0000873    3.7284083  
O   -2.3355761    0.0004100    4.3257297  
C    0.0181563   -0.0001760    4.4216297  
H    2.9547357   -0.0006076    5.0689105  
H    0.0150794   -0.0003319    5.5031631  
H    4.3498549   -0.0008612    2.7900019  
H    2.7563627   -0.0012824    0.8551938  
