58

C    0.0298374   -0.0618532   -8.8233015  
C    0.8125723   -0.7194917   -9.7171205  
C    0.3571754   -0.3409911  -11.0340059  
C   -0.7630449    0.5978195  -10.8326811  
N   -0.9111287    0.7243866   -9.4707184  
C   -1.4647809    1.1838911  -11.8355733  
C   -1.0920030    0.8688513  -13.2046320  
O   -1.6629582    1.3453144  -14.1768936  
C    0.0911607   -0.1230866  -13.4412493  
O    0.4138613   -0.3961338  -14.5895392  
C    0.7715732   -0.6906136  -12.2798684  
H    1.6170297   -1.3930318   -9.4808913  
H   -2.2830959    1.8698972  -11.6662619  
H    1.5898976   -1.3764301  -12.4522775  
H   -1.5958352    1.3008524   -9.0169438  
C    2.5185218   -2.1418784   -5.7664424  
C    2.0285784   -1.7344768   -6.9604095  
C    0.9435064   -0.8236411   -6.6295061  
C    0.9168306   -0.7971603   -5.1512739  
N    1.8378571   -1.5679055   -4.6397540  
C   -0.0307352   -0.0004646   -4.4215603  
C   -0.9113598    0.7365842   -5.1361191  
O   -1.8501209    1.5254492   -4.5861545  
C   -0.9094201    0.7313057   -6.6288110  
O   -1.7398703    1.4264153   -7.2139569  
C    0.0724714   -0.0942326   -7.3542764  
H    2.3623455   -2.0170710   -7.9441861  
H   -2.3197101    1.9176029   -5.3443463  
H    3.3327630   -2.8241129   -5.5805892  
C    3.2573670   -0.0002920   -1.5109380  
C    2.5379468   -0.0001709   -0.3591961  
C    1.1435043    0.0000332   -0.7338500  
C    1.1092609   -0.0000082   -2.2088477  
N    2.4227562    0.0001909   -2.6182613  
C   -0.0265532   -0.0002522   -2.9515663  
C   -1.3003035   -0.0002639   -2.2514981  
O   -2.3786784   -0.0004131   -2.8306429  
C   -1.2877725    0.0000312   -0.6895608  
O   -2.3539958    0.0003307   -0.0892036  
C    0.0000000    0.0000000    0.0000000  
H    2.9384091   -0.0000369    0.6389239  
H    4.3270394   -0.0004765   -1.6439446  
H    2.7280494   -0.0013406   -3.5742113  
C    0.0000000    0.0000000    1.4700000  
C    1.0662921    0.0000102    2.3034270  
C    0.4961870   -0.0000064    3.6418889  
C   -0.9663858    0.0000850    3.4240247  
N   -1.2632773    0.0000084    2.1528658  
C   -1.8985362    0.0000517    4.5177257  
C   -1.3925775   -0.0004564    5.7720543  
O   -2.1456383   -0.0005410    6.8851312  
C    0.0786232   -0.0009323    6.0245000  
O    0.4683759   -0.0012588    7.1921102  
C    1.0143166   -0.0008442    4.8859032  
H    2.1107198   -0.0000632    2.0421868  
H   -2.9622183    0.0003270    4.3293377  
H   -1.5042274   -0.0009692    7.6184419  
H    2.0724152   -0.0013148    5.1109744  
