60

C    3.3041268    0.0001186   -1.5420437  
C    2.5845371   -0.0004775   -0.3695863  
C    1.2040003   -0.0000004   -0.7283592  
C    1.1422368    0.0006048   -2.1454375  
N    2.4348632    0.0026121   -2.6077469  
C   -0.0655188    0.0008807   -2.8497919  
C   -1.2321774    0.0002332   -2.1101395  
O   -2.4392822    0.0001156   -2.7472514  
C   -1.1911212   -0.0000004   -0.6955259  
O   -2.4371526   -0.0002318   -0.1032858  
C    0.0000000    0.0000000    0.0000000  
H    3.0031536   -0.0000659    0.6222571  
H    2.7054619   -0.0071085   -3.5745269  
H   -3.1132992   -0.0000643   -2.0551780  
H   -2.3200279   -0.0004073    0.8516411  
H    4.3686614    0.0004080   -1.7024305  
C    0.6366692   -0.6835170   -5.1902309  
C   -0.1387092    0.0017031   -4.3179684  
C   -1.0703988    0.7474291   -5.1500426  
C   -0.7050169    0.3844183   -6.5361532  
N    0.2949319   -0.4541525   -6.5660152  
C   -1.4022849    0.9213000   -7.6722260  
C   -2.4186296    1.7814191   -7.4343750  
O   -3.1551543    2.3581693   -8.3992230  
C   -2.8115384    2.1670324   -6.0469005  
O   -3.7463652    2.9551774   -5.9049579  
C   -2.0808439    1.6027575   -4.8981605  
H   -3.7968976    2.9146218   -7.9220662  
H   -2.3963422    1.9071172   -3.9091933  
H    1.4504351   -1.3557451   -4.9691702  
C   -0.6374243   -0.7385858   -9.4323773  
C   -0.3306077   -0.7668363  -10.7549280  
C   -0.5125510    0.5742852  -11.2580438  
C   -0.9536508    1.3920462  -10.1119695  
N   -1.0097458    0.5368555   -9.0356829  
C   -1.2318095    2.7187897  -10.1758850  
C   -1.0873053    3.3858094  -11.4591379  
O   -1.3139350    4.5779705  -11.6194283  
C   -0.6216387    2.5392052  -12.6864196  
O   -0.4966980    3.0898023  -13.7720041  
C   -0.3514115    1.1166892  -12.4933453  
H   -0.0132432   -1.6288315  -11.3142654  
H   -1.5539033    3.3002116   -9.3231755  
H   -0.0292096    0.5376118  -13.3480847  
H   -0.6230722   -1.5422578   -8.7141882  
C    0.0000000    0.0000000    1.4700000  
C    1.0541688    0.0001722    2.3260392  
C    0.5103138    0.0000454    3.6635956  
C   -0.9576371   -0.0002459    3.5155732  
N   -1.2018458    0.0001392    2.1615969  
C   -1.8348311   -0.0008317    4.5510609  
C   -1.2972847   -0.0009736    5.9014604  
O   -2.0050672   -0.0014265    6.9001319  
C    0.2542623   -0.0004184    6.0817573  
O    0.7184670   -0.0002256    7.2139121  
C    1.0974552   -0.0000873    4.8889129  
H    2.0940752    0.0005483    2.0517982  
H   -2.9081052   -0.0011668    4.4207061  
H    2.1707277    0.0000911    5.0223670  
H   -2.1128194   -0.0014912    1.7406791  
