60

C    1.1188649    0.0008221   -0.8003802  
C    0.0000000    0.0000000    0.0000000  
C   -1.1323859    0.0008896   -0.8673533  
C   -0.6382652    0.0019677   -2.1969281  
N    0.7324026    0.0038479   -2.1202233  
C   -1.4770899    0.0027312   -3.3154813  
C   -2.8395462    0.0020934   -3.0876865  
O   -3.7039184    0.0024415   -4.1440362  
C   -3.3517863    0.0013921   -1.7684342  
O   -4.7300485    0.0012355   -1.7073142  
C   -2.5248541    0.0009117   -0.6644823  
H    1.3576328   -0.0056170   -2.9057035  
H   -4.5940013    0.0021811   -3.7685148  
H   -4.9934594    0.0007251   -0.7819936  
H   -2.9462582    0.0005599    0.3339643  
H    2.1619894    0.0009359   -0.5342059  
C    0.0908008   -0.6992464   -5.1618156  
C   -0.9736275    0.0040455   -4.6965765  
C   -1.5084774    0.7463560   -5.8136025  
C   -0.6623457    0.4154826   -6.9760886  
N    0.2885861   -0.4649760   -6.5141241  
C   -0.8417373    0.9156024   -8.2248497  
C   -1.9414381    1.8417252   -8.4381333  
O   -2.1855815    2.3466256   -9.5261459  
C   -2.8501332    2.2064419   -7.2211451  
O   -3.7788887    2.9853289   -7.3885002  
C   -2.5575116    1.6028535   -5.9234911  
H   -3.1915414    1.8604119   -5.0859984  
H    0.7475173   -1.3688065   -4.6304947  
H    1.0132794   -0.8758185   -7.0736555  
C    0.9586179   -2.8908899   -9.4709139  
C    1.6102413   -2.4762878  -10.5878591  
C    1.3491216   -1.0630763  -10.7274514  
C    0.4857912   -0.6856276   -9.5921173  
N    0.2857574   -1.8386353   -8.8686191  
C    0.0176259    0.5678670   -9.3656721  
C    0.3886290    1.6150908  -10.3028029  
O    0.0177445    2.7757134  -10.1857509  
C    1.3019293    1.2379031  -11.5125211  
O    1.6206236    2.1110892  -12.3082846  
C    1.7438074   -0.1475675  -11.6506006  
H    2.2057066   -3.0904033  -11.2397001  
H    2.3761120   -0.4004547  -12.4908166  
H    0.9131629   -3.8766549   -9.0372192  
H   -0.2627052   -1.9050335   -8.0308677  
C    0.8681109    0.7263879    2.2709268  
C    0.6127770    0.5096195    3.5869401  
C   -0.4920590   -0.4175482    3.6542670  
C   -0.8620974   -0.7254003    2.2596025  
N    0.0000000    0.0000000    1.4700000  
C   -1.8641242   -1.5660088    1.8976294  
C   -2.6293522   -2.2103885    2.9520183  
O   -3.5512764   -2.9839180    2.7283916  
C   -2.2549728   -1.8987399    4.4361073  
O   -2.8923672   -2.4351063    5.3323774  
C   -1.1543735   -0.9755647    4.7012123  
H    1.1382914    0.9492124    4.4159191  
H   -2.1192137   -1.7782617    0.8686553  
H   -0.9013378   -0.7652422    5.7314848  
H    1.6172880    1.3558399    1.8188057  
