62

C   -3.2727231   -0.4544674   -1.5420440  
C   -2.5600509   -0.3549264   -0.3695864  
C   -1.1925632   -0.1655615   -0.7283595  
C   -1.1313037   -0.1576672   -2.1454379  
N   -2.4113746   -0.3374045   -2.6077472  
C    0.0650171    0.0081380   -2.8497926  
C    1.2205040    0.1692066   -2.1101404  
O    2.4161248    0.3353123   -2.7472522  
C    1.1798052    0.1637919   -0.6955269  
O    2.4139686    0.3353629   -0.1032864  
C    0.0000000    0.0000000    0.0000000  
H   -2.9746339   -0.4128984    0.6222578  
H    0.1184254    0.0149423   -3.9297475  
H    3.0837148    0.4281742   -2.0551784  
H    2.2979324    0.3194304    0.8516404  
H   -4.3271056   -0.6011384   -1.7024300  
C   -2.8057703   -0.3777886   -4.0232762  
C   -4.0399695   -0.5479479   -4.5635287  
C   -3.8805813   -0.5090772   -5.9980739  
C   -2.4420362   -0.3008597   -6.2511045  
N   -1.8461208   -0.2292712   -5.0131019  
C   -1.8839051   -0.2077211   -7.4846028  
C   -2.7584127   -0.3198233   -8.6401135  
O   -2.3518526   -0.2491355   -9.7925078  
C   -4.2853119   -0.5403086   -8.3956323  
O   -5.0314261   -0.6358696   -9.3607448  
C   -4.7687894   -0.6246410   -7.0197724  
H   -4.9573571   -0.6848678   -4.0192250  
H   -0.8261760   -0.0549984   -7.6482942  
H   -0.8649052   -0.0924516   -4.8532769  
C   -6.2075272   -0.8325443   -6.8013467  
C   -6.9186892   -0.9459028   -5.6292262  
C   -8.2857777   -1.1371641   -5.9885150  
C   -8.3483606   -1.1319216   -7.4055480  
N   -7.0694353   -0.9428770   -7.8673158  
C   -9.5447044   -1.2957005   -8.1103361  
C  -10.6988532   -1.4682125   -7.3711769  
O  -11.8944330   -1.6329239   -8.0087291  
C  -10.6568244   -1.4759908   -5.9566130  
O  -11.8897497   -1.6579181   -5.3648848  
C   -9.4769958   -1.3142057   -5.2606558  
H   -6.5033856   -0.8956898   -4.6372616  
H   -6.8011025   -0.9051306   -8.8340394  
H   -9.5991177   -1.2925191   -9.1902586  
H  -12.5609970   -1.7348957   -7.3169501  
H  -11.7728636   -1.6505494   -4.4099570  
H   -9.4759609   -1.3244333   -4.1769710  
C    2.4951002    2.0940188    2.9809380  
C    1.9440701    1.6314916    1.8291961  
C    0.8759964    0.7350050    2.2038498  
C    0.8497377    0.7130254    3.6788474  
N    1.8560616    1.5571714    4.0882609  
C   -0.0205033   -0.0168748    4.4215661  
C   -0.9962600   -0.8356168    3.7214979  
O   -1.8224391   -1.5286685    4.3006425  
C   -0.9864710   -0.8277881    2.1595606  
O   -1.8030528   -1.5133726    1.5592035  
C    0.0000000    0.0000000    1.4700000  
H    2.2509283    1.8888011    0.8310761  
H   -0.0229599   -0.0187323    5.5027230  
H    3.3143982    2.7817323    3.1139444  
H    2.0889452    1.7545833    5.0442112  
