62

C    3.3041270    0.0001179   -1.5420432  
C    2.5845370   -0.0004779   -0.3695854  
C    1.2040009   -0.0000006   -0.7283591  
C    1.1422369    0.0006040   -2.1454372  
N    2.4348635    0.0026113   -2.6077467  
C   -0.0655189    0.0008801   -2.8497917  
C   -1.2321774    0.0002327   -2.1101396  
O   -2.4392820    0.0001150   -2.7472519  
C   -1.1911208   -0.0000006   -0.6955264  
O   -2.4371530   -0.0002319   -0.1032859  
C    0.0000000    0.0000000    0.0000000  
H    3.0031535   -0.0000660    0.6222579  
H    2.7054620   -0.0071094   -3.5745263  
H   -0.1193551    0.0014848   -3.9297474  
H   -3.1132992   -0.0000645   -2.0551781  
H   -2.3200280   -0.0004071    0.8516410  
C    6.7068650   -0.0034178    1.2828887  
C    7.7136024   -0.0021474    0.3453678  
C    7.0885452   -0.0007419   -0.9367794  
C    5.6872996   -0.0009460   -0.7166944  
N    5.4901252   -0.0045361    0.6418806  
C    4.7577218    0.0005131   -1.7610465  
C    5.2516914    0.0025163   -3.0510727  
O    4.3881525    0.0043532   -4.1081029  
C    6.6464196    0.0023767   -3.2909673  
O    6.9801786    0.0041006   -4.6296031  
C    7.5640502    0.0006645   -2.2611725  
H    8.7687015   -0.0033295    0.5592770  
H    4.5960834    0.0050497    1.0985850  
H    4.9330444    0.0052563   -4.9058229  
H    7.9393883    0.0039074   -4.7039033  
H    6.7604658   -0.0050604    2.3581023  
C    9.9561310   -0.7056895   -1.8883209  
C    9.0049382    0.0003328   -2.5522783  
C    9.6799329    0.7436022   -3.5899526  
C   11.1126111    0.4103165   -3.4753061  
N   11.2133264   -0.4723129   -2.4247294  
C   12.0850817    0.9104908   -4.2789426  
C   11.6946666    1.8392222   -5.3265921  
O   12.4962262    2.3443838   -6.1015850  
C   10.1829015    2.2065200   -5.4661088  
O    9.8422734    2.9876144   -6.3442453  
C    9.2276419    1.6026170   -4.5405648  
H   13.1302592    0.6529440   -4.1780302  
H    8.1827666    1.8619729   -4.6439804  
H    9.8444917   -1.3766840   -1.0521434  
H   12.0681459   -0.8850885   -2.0992335  
C    2.5128556    2.1077716    2.9199648  
C    1.9592212    1.6432552    4.0696553  
C    0.8915788    0.7479214    3.6910360  
C    0.8684491    0.7287414    2.2159470  
N    1.8754542    1.5738793    1.8102719  
C    0.0000000    0.0000000    1.4700000  
C   -0.9772830   -0.8200135    2.1664417  
O   -1.8021297   -1.5120829    1.5842315  
C   -0.9711318   -0.8147624    3.7284083  
O   -1.7894187   -1.5009653    4.3257297  
C    0.0140216    0.0115358    4.4216297  
H    2.2638494    1.8988021    5.0689105  
H    0.0117648    0.0094386    5.5031631  
H    3.3327358    2.7953732    2.7900019  
H    2.1123206    1.7707734    0.8551938  
