62

C   -3.3012638   -0.1375356   -1.5420425  
C   -2.5823209   -0.1070128   -0.3695849  
C   -1.2029591   -0.0500735   -0.7283585  
C   -1.1412248   -0.0481087   -2.1454371  
N   -2.4326489   -0.1038742   -2.6077460  
C    0.0654976    0.0018458   -2.8497917  
C    1.2311205    0.0510136   -2.1101399  
O    2.4371751    0.1013346   -2.7472521  
C    1.1900899    0.0495392   -0.6955264  
O    2.4350340    0.1015925   -0.1032865  
C    0.0000000    0.0000000    0.0000000  
H   -3.0005579   -0.1248346    0.6222591  
H   -2.7034182   -0.1054160   -3.5745256  
H    0.1193131    0.0034808   -3.9297471  
H    3.1106022    0.1295462   -2.0551789  
H    2.3180042    0.0968962    0.8516406  
C   -5.7026298   -0.2543985   -0.7673027  
C   -6.9530792   -0.3181688   -1.3371935  
C   -6.7674264   -0.3024582   -2.7513668  
C   -5.3706981   -0.2278830   -2.9869805  
N   -4.7535847   -0.1983852   -1.7610452  
C   -4.8212945   -0.1938531   -4.2721991  
C   -5.6978327   -0.2361786   -5.3390014  
O   -5.2149672   -0.2060579   -6.6153047  
C   -7.0946858   -0.3103070   -5.1242398  
O   -7.8349239   -0.3447089   -6.2879447  
C   -7.6374018   -0.3436412   -3.8566141  
H   -7.8845317   -0.3685707   -0.7997463  
H   -3.7576882   -0.1368928   -4.4584756  
H   -5.9837586   -0.2441660   -7.1990620  
H   -8.7668589   -0.3945377   -6.0542395  
H   -5.4127064   -0.2429943    0.2694105  
C  -10.2178515    1.6545494   -0.9693988  
C  -11.4409958    1.1837110   -1.3067529  
C  -11.2020389    0.2884372   -2.4283073  
C   -9.7395786    0.3394487   -2.6408892  
N   -9.1572865    1.1385477   -1.7886182  
C   -9.0942089   -0.4205395   -3.6757812  
C   -9.8743248   -1.1965243   -4.4622936  
O   -9.4063273   -1.9580952   -5.4658019  
C  -11.3531119   -1.2695366   -4.2725120  
O  -12.0009059   -1.9967114   -5.0253739  
C  -11.9914650   -0.4804264   -3.2039917  
H  -12.3883812    1.4152566   -0.8507669  
H  -10.1960019   -2.3907935   -5.8377421  
H  -13.0651267   -0.5610090   -3.0991701  
H   -9.9669884    2.3478790   -0.1824203  
C    0.8400945    0.7047457    2.2710304  
C    0.0000000    0.0000000    1.4700000  
C   -0.8844236   -0.7423113    2.3369512  
C   -0.4878984   -0.4098547    3.7186280  
N    0.5629682    0.4714286    3.6095011  
C   -1.0836927   -0.9095027    4.8308716  
C   -2.1891196   -1.8367527    4.6554461  
O   -2.7906899   -2.3413415    5.5944904  
C   -2.6257283   -2.2031529    3.2011665  
O   -3.5549479   -2.9829990    3.0410059  
C   -1.9068976   -1.5999348    2.0816745  
H   -0.7774656   -0.6525820    5.8354244  
H   -2.2155208   -1.8586617    1.0779135  
H    1.6384792    1.3747609    1.9961646  
H    1.0518368    0.8833920    4.3830260  
