60

C    2.4521484    0.0014842   -3.7217481  
C    3.5087820    0.0024555   -2.8687537  
C    4.7039150    0.0027665   -3.6789965  
C    4.2537131    0.0019197   -5.0840259  
N    2.8785577    0.0007668   -5.0411852  
C    5.0840338    0.0023144   -6.1574656  
C    6.5167227    0.0034371   -5.9126443  
O    7.3462793    0.0038069   -6.8127195  
C    7.0158847    0.0040952   -4.4325625  
O    8.2198450    0.0047346   -4.2140697  
C    6.0245765    0.0038618   -3.3596409  
H    3.4569035    0.0027207   -1.7945466  
H    4.7332282    0.0018078   -7.1801314  
H    6.3784128    0.0045265   -2.3376217  
H    2.2773151    0.0015478   -5.8446488  
C    0.0000000    0.0000000    0.0000000  
C    1.0662922   -0.0000101   -0.8334266  
C    0.4961875    0.0000066   -2.1718886  
C   -0.9663853   -0.0000848   -1.9540248  
N   -1.2632772   -0.0000083   -0.6828658  
C   -1.8985359   -0.0000514   -3.0477260  
C   -1.3925768    0.0004568   -4.3020543  
O   -2.1456378    0.0005413   -5.4151314  
C    0.0786238    0.0009327   -4.5544999  
O    0.4683768    0.0012594   -5.7221098  
C    1.0143171    0.0008446   -3.4159030  
H    2.1107199    0.0000634   -0.5721863  
H   -1.5042266    0.0009697   -6.1484425  
C   -4.0230208    0.6852479   -1.8410567  
C   -3.3460091   -0.0004261   -2.7913651  
C   -4.3652407   -0.7461027   -3.5136068  
C   -5.6347335   -0.3825694   -2.8481626  
N   -5.4404327    0.4562401   -1.8670228  
C   -6.8979169   -0.9192519   -3.2741043  
C   -6.8931413   -1.7796796   -4.3176445  
O   -7.9981917   -2.3562935   -4.8200586  
C   -5.6284689   -2.1658222   -5.0102187  
O   -5.6989684   -2.9542263   -5.9529116  
C   -4.3454701   -1.6017426   -4.5545295  
H   -7.8101235   -0.6363580   -2.7693670  
H   -7.6764564   -2.9130444   -5.5519517  
H   -3.4519522   -1.9064878   -5.0827211  
H   -3.6257278    1.3575929   -1.0973605  
C    3.3041272   -0.0001177    3.0120429  
C    2.5845372    0.0004780    1.8395852  
C    1.2040006    0.0000008    2.1983588  
C    1.1422373   -0.0006037    3.6154372  
N    2.4348639   -0.0026109    4.0777464  
C   -0.0655181   -0.0008797    4.3197917  
C   -1.2321768   -0.0002324    3.5801400  
O   -2.4392816   -0.0001146    4.2172520  
C   -1.1911209    0.0000007    2.1655264  
O   -2.4371527    0.0002320    1.5732860  
C    0.0000000    0.0000000    1.4700000  
H    3.0031534    0.0000661    0.8477417  
H    2.7054629    0.0071099    5.0445261  
H   -0.1193549   -0.0014844    5.3997470  
H   -3.1132988    0.0000648    3.5251786  
H   -2.3200282    0.0004071    0.6183591  
H    4.3686625   -0.0004071    3.1724291  
