60

C    3.3041269    0.0001181   -1.5420435  
C    2.5845374   -0.0004780   -0.3695858  
C    1.2040005   -0.0000006   -0.7283589  
C    1.1422371    0.0006039   -2.1454373  
N    2.4348634    0.0026113   -2.6077468  
C   -0.0655187    0.0008799   -2.8497917  
C   -1.2321773    0.0002325   -2.1101393  
O   -2.4392817    0.0001147   -2.7472515  
C   -1.1911209   -0.0000006   -0.6955265  
O   -2.4371526   -0.0002320   -0.1032855  
C    0.0000000    0.0000000    0.0000000  
H    3.0031535   -0.0000658    0.6222581  
H   -0.1193554    0.0014847   -3.9297468  
H   -3.1132989   -0.0000648   -2.0551776  
H   -2.3200276   -0.0004072    0.8516410  
H    4.3686618    0.0004076   -1.7024298  
C    3.8860202   -0.7395022   -4.5524255  
C    3.9939094   -0.5373176   -5.8909157  
C    2.9441496    0.3812284   -6.2638940  
C    2.2105941    0.6999149   -5.0240854  
N    2.8310656   -0.0116215   -4.0232754  
C    1.1445011    1.5368001   -4.9549938  
C    0.6890259    2.1654510   -6.1837637  
O   -0.2623541    2.9344952   -6.2255529  
C    1.4508803    1.8421335   -7.5084708  
O    1.0763526    2.3652242   -8.5493196  
C    2.5861423    0.9243305   -7.4567932  
H    4.7252832   -0.9811462   -6.5426234  
H    0.6206113    1.7571758   -4.0352746  
H    4.4883012   -1.3591726   -3.9080993  
C    3.2959769    0.6273878   -8.7093348  
C    4.3627035   -0.1856101   -8.8901862  
C    4.6538623   -0.1113068  -10.3136347  
C    3.6374380    0.8168431  -10.8540082  
N    2.8387072    1.2531669   -9.9182514  
C    3.5848669    1.1594788  -12.2486135  
C    4.5060764    0.6006122  -13.0661547  
O    4.5744637    0.8311033  -14.3883643  
C    5.5448115   -0.3394434  -12.5509009  
O    6.3516401   -0.8106796  -13.3522653  
C    5.5778771   -0.6751944  -11.1162923  
H    4.8872673   -0.7642007   -8.1491453  
H    2.8310667    1.8403801  -12.6161306  
H    5.3284202    0.2955325  -14.6947403  
H    6.3460320   -1.3599795  -10.7827700  
C    0.8400945    0.7047457    2.2710304  
C    0.0000000    0.0000000    1.4700000  
C   -0.8844236   -0.7423113    2.3369512  
C   -0.4878984   -0.4098547    3.7186280  
N    0.5629682    0.4714286    3.6095011  
C   -1.0836927   -0.9095027    4.8308716  
C   -2.1891196   -1.8367527    4.6554461  
O   -2.7906899   -2.3413415    5.5944904  
C   -2.6257283   -2.2031529    3.2011665  
O   -3.5549479   -2.9829990    3.0410059  
C   -1.9068976   -1.5999348    2.0816745  
H   -0.7774656   -0.6525820    5.8354244  
H   -2.2155208   -1.8586617    1.0779135  
H    1.6384792    1.3747609    1.9961646  
H    1.0518368    0.8833920    4.3830260  
