60

C    1.1243411    0.0099384   -0.7919005  
C    0.7474078    0.0234185   -2.1148545  
C   -0.6787380    0.0234814   -2.1414695  
C   -1.1201744    0.0099129   -0.7935545  
N    0.0000000    0.0000000    0.0000000  
C   -2.4730816    0.0064892   -0.4408227  
C   -3.3971956    0.0172606   -1.4675042  
O   -4.7313519    0.0148525   -1.1793452  
C   -2.9763646    0.0304928   -2.8186314  
O   -4.0166473    0.0397038   -3.7247606  
C   -1.6418560    0.0336045   -3.1673474  
H    1.4178719    0.0310291   -2.9571215  
H   -2.8160170   -0.0039761    0.5845978  
H   -5.1938815    0.0233353   -2.0274368  
H   -3.6464666    0.0484034   -4.6127327  
H    2.1062466    0.0051810   -0.3505416  
C    1.5730300   -2.0887848   -5.2038814  
C    1.4267762   -1.6687573   -6.4820699  
C    0.2927987   -0.7579470   -6.4501483  
C   -0.1353540   -0.7452959   -5.0348361  
N    0.6114327   -1.5234734   -4.2994866  
C   -1.2456325    0.0472319   -4.5828760  
C   -1.8982682    0.7935083   -5.5029158  
O   -2.9511347    1.5798712   -5.2215853  
C   -1.4899754    0.8022658   -6.9386666  
O   -2.1295772    1.5052428   -7.7209412  
C   -0.3478308   -0.0192423   -7.3774776  
H    2.0157328   -1.9430474   -7.3405396  
H   -3.1964582    1.9804925   -6.0750903  
H   -0.0836671    0.0148443   -8.4259461  
C    2.5718208   -3.0242898   -4.6670879  
C    3.5581232   -3.6650295   -5.3365953  
C    4.2429594   -4.4578335   -4.3271592  
C    3.5188642   -4.1677457   -3.0709267  
N    2.5381796   -3.3281146   -3.2639719  
C    3.8947737   -4.7673271   -1.8202149  
C    4.9460150   -5.6183321   -1.8243624  
O    5.4056034   -6.2488186   -0.7301475  
C    5.6967670   -5.9316141   -3.0759162  
O    6.6434249   -6.7152660   -3.0055661  
C    5.2917827   -5.3037860   -4.3462483  
H    3.7919899   -3.6069260   -6.3858839  
H    3.3479478   -4.5371410   -0.9174938  
H    6.1562453   -6.7822066   -1.0482474  
H    5.8612125   -5.5568885   -5.2305095  
C    2.5128556    2.1077716    2.9199648  
C    1.9592212    1.6432552    4.0696553  
C    0.8915788    0.7479214    3.6910360  
C    0.8684491    0.7287414    2.2159470  
N    1.8754542    1.5738793    1.8102719  
C    0.0000000    0.0000000    1.4700000  
C   -0.9772830   -0.8200135    2.1664417  
O   -1.8021297   -1.5120829    1.5842315  
C   -0.9711318   -0.8147624    3.7284083  
O   -1.7894187   -1.5009653    4.3257297  
C    0.0140216    0.0115358    4.4216297  
H    2.2638494    1.8988021    5.0689105  
H    0.0117648    0.0094386    5.5031631  
H    3.3327358    2.7953732    2.7900019  
H    2.1123206    1.7707734    0.8551938  
