58

C    0.0745464   -0.0597308   -8.8233823  
C    0.8572809   -0.7171117   -9.7173911  
C    0.4018840   -0.3382309  -11.0341672  
C   -0.7183359    0.6005221  -10.8325714  
N   -0.8664195    0.7266961   -9.4705732  
C   -1.4200717    1.1868833  -11.8352935  
C   -1.0472940    0.8722385  -13.2044440  
O   -1.6182491    1.3489823  -14.1765680  
C    0.1358693   -0.1196317  -13.4413477  
O    0.4585696   -0.3923476  -14.5897163  
C    0.8162816   -0.6874941  -12.2801316  
H    1.6617380   -1.3907203   -9.4813554  
H   -2.2383864    1.8728408  -11.6657840  
H    1.6346057   -1.3732611  -12.4527376  
H   -1.5511257    1.3030313   -9.0166313  
C    2.5632301   -2.1406391   -5.7671238  
C    2.0732868   -1.7328928   -6.9609732  
C    0.9882152   -0.8221522   -6.6298070  
C    0.9615395   -0.7960979   -5.1515671  
N    1.8825657   -1.5669911   -4.6402698  
C    0.0139741    0.0003876   -4.4216236  
C   -0.8666503    0.7376429   -5.1359697  
O   -1.8054110    1.5263495   -4.5857773  
C   -0.8647107    0.7327951   -6.6286630  
O   -1.6951606    1.4280739   -7.2136082  
C    0.1171805   -0.0925341   -7.3543666  
H    2.4070537   -2.0152032   -7.9448313  
H   -2.2750001    1.9187222   -5.3438559  
H    3.3774711   -2.8229275   -5.5814675  
C    3.2798085    0.0005853   -1.4499648  
C    2.5571144    0.0005562   -2.5996554  
C    1.1637436    0.0001546   -2.2210360  
C    1.1336965   -0.0000201   -0.7459470  
N    2.4483513   -0.0001430   -0.3402717  
C    0.0000000    0.0000000    0.0000000  
C   -1.2757367   -0.0000188   -0.6964414  
O   -2.3524597   -0.0000640   -0.1142313  
C   -1.2676494   -0.0000875   -2.2584081  
O   -2.3355762   -0.0004102   -2.8557294  
C    0.0181562    0.0001757   -2.9516296  
H    2.9547357    0.0006072   -3.5989105  
H    4.3498550    0.0008609   -1.3200021  
H    2.7563627    0.0012824    0.6148063  
C    2.3971438    2.0127888    3.1728260  
C    1.9431056    1.6308205    1.9564670  
C    0.8496017    0.7127664    2.2356185  
C    0.7794028    0.6545384    3.7115134  
N    1.6840587    1.4146091    4.2663826  
C   -0.1885723   -0.1578550    4.3957118  
C   -1.0476298   -0.8789867    3.6398520  
O   -2.0015663   -1.6796266    4.1448486  
C   -1.0022026   -0.8410666    2.1483229  
O   -1.8147390   -1.5232959    1.5241687  
C    0.0000000    0.0000000    1.4700000  
H    2.3054237    1.9346118    0.9892483  
H   -0.2170646   -0.1815267    5.4753125  
H   -2.4487139   -2.0549881    3.3649027  
H    3.2048689    2.6911772    3.3971983  
