60

C   -4.3987273    2.0900783   -0.0683234  
C   -3.3607175    1.6285360   -0.8123588  
C   -3.9158680    0.7332932   -1.7998729  
C   -5.3728405    0.7109705   -1.5685245  
N   -5.6005093    1.5537502   -0.5051433  
C   -6.2559203   -0.0180276   -2.2968353  
C   -5.7367219   -0.8353674   -3.3807745  
O   -6.4510507   -1.5275304   -4.0941782  
C   -4.1970126   -0.8271529   -3.6435198  
O   -3.7482417   -1.5115598   -4.5531635  
C   -3.3460098   -0.0004261   -2.7913644  
H   -2.3243865    1.8857149   -0.6839420  
H   -7.3209368   -0.0201577   -2.1107081  
H   -4.3868359    2.7767304    0.7624936  
H   -6.5012031    1.7506263   -0.1088629  
C    0.0000000    0.0000000    0.0000000  
C    1.0662918   -0.0000103   -0.8334272  
C    0.4961866    0.0000066   -2.1718888  
C   -0.9663862   -0.0000848   -1.9540246  
N   -1.2632777   -0.0000084   -0.6828658  
C   -1.8985367   -0.0000514   -3.0477256  
C   -1.3925783    0.0004569   -4.3020543  
O   -2.1456389    0.0005417   -5.4151310  
C    0.0786225    0.0009329   -4.5544999  
O    0.4683752    0.0012595   -5.7221105  
C    1.0143159    0.0008446   -3.4159033  
H    2.1107193    0.0000632   -0.5721869  
H   -1.5042282    0.0009699   -6.1484418  
C    4.2926939   -2.1403416   -1.5040825  
C    5.3604699   -1.7320207   -2.2284491  
C    4.8134469   -0.8208702   -3.2219631  
C    3.3612062   -0.7952317   -2.9446121  
N    3.0500060   -1.5667024   -1.9386414  
C    2.4521470    0.0014842   -3.7217487  
C    2.9703718    0.7393572   -4.7298763  
O    2.2390450    1.5283422   -5.5352977  
C    4.4316761    0.7349409   -5.0343922  
O    4.8335641    1.4307763   -5.9668731  
C    5.3436383   -0.0906362   -4.2228059  
H    6.3919426   -2.0142022   -2.1038967  
H    2.8845110    1.9211532   -6.1502982  
H    6.3952192   -0.0661685   -4.4754112  
H    4.2782624   -2.8230633   -0.6694231  
C    1.1243417   -0.0099156    2.2619005  
C    0.7474090   -0.0234034    3.5848544  
C   -0.6787367   -0.0234952    3.6114698  
C   -1.1201739   -0.0099357    2.2635546  
N    0.0000000    0.0000000    1.4700000  
C   -2.4730812   -0.0065396    1.9108239  
C   -3.3971947   -0.0173298    2.9375057  
O   -4.7313508   -0.0149487    2.6493466  
C   -2.9763630   -0.0305536    4.2886322  
O   -4.0166453   -0.0397858    5.1947621  
C   -1.6418541   -0.0336380    4.6373480  
H    1.4178735   -0.0310004    4.4271209  
H   -2.8160170    0.0039190    0.8854031  
H   -5.1938803   -0.0234410    3.4974381  
H   -3.6464643   -0.0484781    6.0827341  
H   -1.3497443   -0.0436789    5.6809233  
H    2.1062470   -0.0051382    1.8205408  
