58

C    2.1999228   -1.8451564   -8.4467073  
C    3.1664844   -2.6589131   -8.9443359  
C    3.0759566   -2.5887760  -10.3836837  
C    1.9695096   -1.6607775  -10.6859825  
N    1.4802400   -1.2454319   -9.4690211  
C    1.5664075   -1.3268443  -11.9380609  
C    2.2690521   -1.9212546  -13.0630072  
O    1.9812144   -1.6839005  -14.2288163  
C    3.4438190   -2.9069767  -12.7662221  
O    4.0425948   -3.4138455  -13.7052717  
C    3.7861452   -3.1889694  -11.3744097  
H    3.8632329   -3.2419279   -8.3687946  
H    0.7524449   -0.6439063  -12.1379877  
H    4.6009184   -3.8723957  -11.1774388  
H    0.7190604   -0.6037495   -9.3429394  
C    2.5049804   -2.0931563   -5.9399565  
C    1.9571818   -1.6308520   -4.7865848  
C    0.8879545   -0.7344212   -5.1580690  
C    0.8574976   -0.7122318   -6.6329822  
N    1.8627392   -1.5562151   -7.0453792  
C   -0.0149276    0.0176857   -7.3731171  
C   -0.9887728    0.8362264   -6.6701578  
O   -1.8166673    1.5292763   -7.2468494  
C   -0.9745395    0.8281734   -5.1082557  
O   -1.7894805    1.5135873   -4.5054790  
C    0.0139741    0.0003876   -4.4216236  
H    2.2669048   -1.8882737   -3.7893787  
H   -0.0204602    0.0196988   -8.4542617  
H    3.3239675   -2.7807662   -6.0753923  
C    3.2798085    0.0005853   -1.4499648  
C    2.5571144    0.0005562   -2.5996554  
C    1.1637436    0.0001546   -2.2210360  
C    1.1336965   -0.0000201   -0.7459470  
N    2.4483513   -0.0001430   -0.3402717  
C    0.0000000    0.0000000    0.0000000  
C   -1.2757367   -0.0000188   -0.6964414  
O   -2.3524597   -0.0000640   -0.1142313  
C   -1.2676494   -0.0000875   -2.2584081  
O   -2.3355762   -0.0004102   -2.8557294  
C    0.0181562    0.0001757   -2.9516296  
H    2.9547357    0.0006072   -3.5989105  
H    4.3498550    0.0008609   -1.3200021  
H    2.7563627    0.0012824    0.6148063  
C    2.4951002    2.0940188    2.9809380  
C    1.9440701    1.6314916    1.8291961  
C    0.8759964    0.7350050    2.2038498  
C    0.8497377    0.7130254    3.6788474  
N    1.8560616    1.5571714    4.0882609  
C   -0.0205033   -0.0168748    4.4215661  
C   -0.9962600   -0.8356168    3.7214979  
O   -1.8224391   -1.5286685    4.3006425  
C   -0.9864710   -0.8277881    2.1595606  
O   -1.8030528   -1.5133726    1.5592035  
C    0.0000000    0.0000000    1.4700000  
H    2.2509283    1.8888011    0.8310761  
H   -0.0229599   -0.0187323    5.5027230  
H    3.3143982    2.7817323    3.1139444  
H    2.0889452    1.7545833    5.0442112  
