58

C   -0.3029384   -1.0950453   -9.6223612  
C   -0.4073221   -0.7628359  -10.9349218  
C   -0.6601929    0.6576448  -10.9908382  
C   -0.6947924    1.1291493   -9.5932408  
N   -0.4717744    0.0181291   -8.8129927  
C   -0.9088472    2.4165759   -9.2211962  
C   -1.1194166    3.4036793  -10.2670565  
O   -1.3202831    4.5884499  -10.0340910  
C   -1.0872013    2.9266150  -11.7540594  
O   -1.2634894    3.7485656  -12.6432043  
C   -0.8471642    1.5124316  -12.0303178  
H   -0.3176159   -1.4360680  -11.7687827  
H   -0.9302083    2.7415317   -8.1902459  
H   -0.8261834    1.1902767  -13.0625485  
H   -0.1170902   -2.0594625   -9.1782324  
C    2.1451928   -2.0951773   -5.9900943  
C    1.6340471   -1.6323753   -4.8202142  
C    0.5538825   -0.7357923   -5.1581773  
C    0.4770637   -0.7140560   -6.6314112  
N    1.4686359   -1.5584204   -7.0749457  
C   -0.4180294    0.0158494   -7.3439773  
C   -1.3690894    0.8348538   -6.6110028  
O   -2.2145426    1.5279314   -7.1615959  
C   -1.3057473    0.8272853   -5.0503184  
O   -2.1011641    1.5130918   -4.4224315  
C   -0.2963293   -0.0005341   -4.3948471  
H    1.9749143   -1.8895634   -3.8331592  
H    2.9593495   -2.7830349   -6.1509984  
H    1.6685743   -1.7560271   -8.0382850  
C    3.1301146   -0.0010313   -1.7028256  
C    2.5367765   -0.0002766   -0.4864669  
C    1.1089901    0.0001027   -0.7656184  
C    1.0177865   -0.0004150   -2.2415133  
N    2.1993571   -0.0011612   -2.7963824  
C   -0.2459219   -0.0002879   -2.9257116  
C   -1.3675326   -0.0000606   -2.1698520  
O   -2.6129318    0.0000865   -2.6748483  
C   -1.3083588    0.0000910   -0.6783229  
O   -2.3693264    0.0004206   -0.0541685  
C    0.0000000    0.0000000    0.0000000  
H    3.0096016   -0.0001007    0.4807518  
H   -3.1967444    0.0002093   -1.8949026  
H    4.1849275   -0.0015114   -1.9271979  
C    0.0000000    0.0000000    1.4700000  
C    1.0662921    0.0000102    2.3034270  
C    0.4961870   -0.0000064    3.6418889  
C   -0.9663858    0.0000850    3.4240247  
N   -1.2632773    0.0000084    2.1528658  
C   -1.8985362    0.0000517    4.5177257  
C   -1.3925775   -0.0004564    5.7720543  
O   -2.1456383   -0.0005410    6.8851312  
C    0.0786232   -0.0009323    6.0245000  
O    0.4683759   -0.0012588    7.1921102  
C    1.0143166   -0.0008442    4.8859032  
H    2.1107198   -0.0000632    2.0421868  
H   -2.9622183    0.0003270    4.3293377  
H   -1.5042274   -0.0009692    7.6184419  
H    2.0724152   -0.0013148    5.1109744  
