60

C    0.0000000    0.0000000    0.0000000  
C    1.0521671   -0.0011900   -0.8862338  
C    0.4917227   -0.0011956   -2.1979130  
C   -0.9187416    0.0003147   -2.0478688  
N   -1.1833166   -0.0009412   -0.7007918  
C   -1.7951691    0.0010348   -3.1372097  
C   -1.2375822    0.0005225   -4.4010429  
O   -2.0474193    0.0015357   -5.4997592  
C    0.1673600   -0.0013569   -4.5711965  
O    0.5673547   -0.0020690   -5.8915550  
C    1.0325783   -0.0023412   -3.4969888  
H    2.0953063   -0.0030647   -0.6200555  
H   -2.0989776    0.0102369   -0.2891834  
H   -2.8710921    0.0020417   -3.0295528  
H   -1.4634857    0.0006492   -6.2693603  
H    1.5290734   -0.0033155   -5.9180037  
C    4.1863646   -2.1477870   -1.3902869  
C    5.2964380   -1.7419933   -2.0495650  
C    4.8117036   -0.8307027   -3.0747877  
C    3.3454852   -0.8022262   -2.8851123  
N    2.9730544   -1.5722877   -1.8990645  
C    2.4861715   -0.0045380   -3.7159914  
C    3.0653213    0.7315528   -4.6917426  
O    2.3851023    1.5211674   -5.5401837  
C    4.5422563    0.7242591   -4.9080059  
O    5.0006616    1.4185849   -5.8151978  
C    5.4023468   -0.1022662   -4.0425438  
H    6.3180558   -2.0259185   -1.8631254  
H    3.0670354    1.9123003   -6.1156263  
H    6.4672357   -0.0798975   -4.2316006  
C    4.0967359   -3.0774171   -0.2550976  
C    5.0917737   -3.7385260    0.3905876  
C    4.4699405   -4.5226484    1.4314096  
C    3.0206688   -4.2623260    1.3384860  
N    2.8606629   -3.3780029    0.2967276  
C    2.0860679   -4.8178637    2.1506455  
C    2.5377186   -5.7330971    3.1854859  
O    1.7736696   -6.2845161    3.9668100  
C    4.0680927   -6.0231341    3.3022725  
O    4.4602243   -6.7917522    4.1698667  
C    4.9784860   -5.3644120    2.3689339  
H    6.1415787   -3.6830657    0.1637670  
H    1.0277885   -4.6136312    2.0655385  
H    6.0365598   -5.5707250    2.4563352  
H    1.9812036   -3.0094671   -0.0159709  
C    0.0000000    0.0000000    1.4700000  
C    1.0541688    0.0001722    2.3260392  
C    0.5103138    0.0000454    3.6635956  
C   -0.9576371   -0.0002459    3.5155732  
N   -1.2018458    0.0001392    2.1615969  
C   -1.8348311   -0.0008317    4.5510609  
C   -1.2972847   -0.0009736    5.9014604  
O   -2.0050672   -0.0014265    6.9001319  
C    0.2542623   -0.0004184    6.0817573  
O    0.7184670   -0.0002256    7.2139121  
C    1.0974552   -0.0000873    4.8889129  
H    2.0940752    0.0005483    2.0517982  
H   -2.9081052   -0.0011668    4.4207061  
H    2.1707277    0.0000911    5.0223670  
H   -2.1128194   -0.0014912    1.7406791  
