58

C    2.5229106   -2.1069162   -5.8790356  
C    1.9659600   -1.6422911   -7.0270794  
C    0.8993072   -0.7471219   -6.6452951  
C    0.8803721   -0.7281568   -5.1701434  
N    1.8886140   -1.5732495   -4.7674571  
C    0.0139741    0.0003876   -4.4216236  
C   -0.9653707    0.8204009   -5.1151637  
O   -1.7886285    1.5123013   -4.5305094  
C   -0.9636625    0.8153754   -6.6771421  
O   -1.7837160    1.5015801   -7.2720341  
C    0.0195993   -0.0107214   -7.3732829  
H    2.2677701   -1.8976626   -8.0272341  
H    0.0142654   -0.0084685   -8.4548052  
H    2.1282169   -1.7702569   -3.8130851  
C    4.3489369   -3.6408586   -6.6991904  
C    3.6416186   -3.0445436   -5.7051162  
C    4.1983133   -3.5078345   -4.4560011  
C    5.2958245   -4.4295255   -4.8063494  
N    5.3348534   -4.4668756   -6.1811119  
C    6.0730585   -5.0783220   -3.9026484  
C    5.8110238   -4.8540329   -2.4907109  
O    6.4557239   -5.3918192   -1.5999542  
C    4.6534232   -3.8821296   -2.0967963  
O    4.4232726   -3.6857088   -0.9111697  
C    3.8851795   -3.2410236   -3.1610504  
H    6.8731831   -5.7501747   -4.1807175  
H    3.0854902   -2.5693225   -2.8799127  
H    4.2327617   -3.5465440   -7.7666626  
H    5.9814079   -5.0089517   -6.7244054  
C    3.2798085    0.0005853   -1.4499648  
C    2.5571144    0.0005562   -2.5996554  
C    1.1637436    0.0001546   -2.2210360  
C    1.1336965   -0.0000201   -0.7459470  
N    2.4483513   -0.0001430   -0.3402717  
C    0.0000000    0.0000000    0.0000000  
C   -1.2757367   -0.0000188   -0.6964414  
O   -2.3524597   -0.0000640   -0.1142313  
C   -1.2676494   -0.0000875   -2.2584081  
O   -2.3355762   -0.0004102   -2.8557294  
C    0.0181562    0.0001757   -2.9516296  
H    2.9547357    0.0006072   -3.5989105  
H    4.3498550    0.0008609   -1.3200021  
H    2.7563627    0.0012824    0.6148063  
C    2.4951002    2.0940188    2.9809380  
C    1.9440701    1.6314916    1.8291961  
C    0.8759964    0.7350050    2.2038498  
C    0.8497377    0.7130254    3.6788474  
N    1.8560616    1.5571714    4.0882609  
C   -0.0205033   -0.0168748    4.4215661  
C   -0.9962600   -0.8356168    3.7214979  
O   -1.8224391   -1.5286685    4.3006425  
C   -0.9864710   -0.8277881    2.1595606  
O   -1.8030528   -1.5133726    1.5592035  
C    0.0000000    0.0000000    1.4700000  
H    2.2509283    1.8888011    0.8310761  
H   -0.0229599   -0.0187323    5.5027230  
H    3.3143982    2.7817323    3.1139444  
H    2.0889452    1.7545833    5.0442112  
