60

C    3.2798085    0.0005856   -1.4499646  
C    2.5571146    0.0005565   -2.5996553  
C    1.1637436    0.0001548   -2.2210360  
C    1.1336964   -0.0000200   -0.7459468  
N    2.4483512   -0.0001429   -0.3402719  
C    0.0000000    0.0000000    0.0000000  
C   -1.2757371   -0.0000187   -0.6964415  
O   -2.3524597   -0.0000640   -0.1142312  
C   -1.2676493   -0.0000873   -2.2584081  
O   -2.3355761   -0.0004101   -2.8557295  
C    0.0181561    0.0001759   -2.9516296  
H    2.9547354    0.0006074   -3.5989104  
H    2.7563628    0.0012823    0.6148064  
C    4.7390846    0.0009612   -1.2727278  
C    5.7159792    0.0017141   -2.2159942  
C    6.9782062    0.0017425   -1.5148385  
C    6.6542741    0.0009094   -0.0754434  
N    5.2807307    0.0008646    0.0037357  
C    7.5764448    0.0002870    0.9201990  
C    8.9818048    0.0006748    0.5493907  
O    9.8878546    0.0002342    1.3724189  
C    9.3478552    0.0018086   -0.9690991  
O   10.5277196    0.0024502   -1.2934141  
C    8.2653761    0.0021244   -1.9499610  
H    5.5691192    0.0023771   -3.2813791  
H    7.3176380   -0.0004498    1.9699266  
H    8.5272595    0.0027054   -2.9993132  
H    4.7530487   -0.0011861    0.8573135  
C    2.5049806   -2.0931560   -5.9399561  
C    1.9571818   -1.6308516   -4.7865848  
C    0.8879545   -0.7344211   -5.1580685  
C    0.8574974   -0.7122315   -6.6329822  
N    1.8627392   -1.5562147   -7.0453797  
C   -0.0149279    0.0176861   -7.3731166  
C   -0.9887730    0.8362266   -6.6701577  
O   -1.8166674    1.5292768   -7.2468493  
C   -0.9745397    0.8281737   -5.1082557  
O   -1.7894805    1.5135875   -4.5054785  
C    0.0139740    0.0003878   -4.4216236  
H    2.2669048   -1.8882734   -3.7893789  
H   -0.0204605    0.0196992   -8.4542627  
H    3.3239675   -2.7807661   -6.0753923  
H    2.0929224   -1.7534649   -8.0020166  
C    2.5285572    2.1210227    2.9438989  
C    1.9331703    1.6216660    4.0790748  
C    0.8903039    0.7472258    3.6520102  
C    0.8972198    0.7527806    2.2336141  
N    1.9028376    1.5986179    1.8362361  
C    0.0000000    0.0000000    1.4700000  
C   -0.9207814   -0.7726952    2.1506477  
O   -1.8198395   -1.5274828    1.4542253  
C   -0.9436862   -0.7911793    3.5655508  
O   -1.9197945   -1.6098497    4.0950179  
C   -0.0590329   -0.0485852    4.3195194  
H    2.2150357    1.8593692    5.0905303  
H    2.1533708    1.7953814    0.8841339  
H   -2.3621246   -1.9821033    2.1118817  
H   -1.8668290   -1.5649508    5.0545920  
H   -0.1007624   -0.0827977    5.4019087  
H    3.3491200    2.8096064    2.8367138  
