58

C    1.2838547   -1.0739005   -7.6980018  
C    2.3234491   -1.9475389   -7.6893637  
C    2.6500511   -2.2268989   -9.0678145  
C    1.7087848   -1.4387265   -9.8860999  
N    0.9071782   -0.7624279   -8.9956300  
C    1.6916971   -1.4286463  -11.2430499  
C    2.6651954   -2.2489797  -11.9443983  
O    2.7305309   -2.3078178  -13.1652864  
C    3.6714697   -3.0920104  -11.0979253  
O    4.4954538   -3.7867094  -11.6773268  
C    3.5922600   -3.0204797   -9.6410587  
H    2.8062742   -2.3504482   -6.8169210  
H    0.9928473   -0.8432089  -11.8242403  
H    4.2927126   -3.6070679   -9.0622630  
H    0.1643904   -0.1371661   -9.2493253  
C    0.8518586   -0.7041560   -5.2251428  
C    0.0139741    0.0003876   -4.4216236  
C   -0.8729887    0.7427330   -5.2859478  
C   -0.4803619    0.4105167   -6.6687950  
N    0.5709014   -0.4706742   -6.5627858  
C   -1.0793694    0.9102636   -7.7792669  
C   -2.1843877    1.8373744   -7.6005633  
O   -2.7886792    2.3420368   -8.5378192  
C   -2.6168947    2.2035198   -6.1449943  
O   -3.5457349    2.9832469   -5.9820777  
C   -1.8948203    1.6002142   -5.0276389  
H   -0.7759752    0.6535195   -8.7847240  
H   -2.2006131    1.8587646   -4.0229668  
H    1.6510906   -1.3741284   -4.9526464  
C    3.2798085    0.0005853   -1.4499648  
C    2.5571144    0.0005562   -2.5996554  
C    1.1637436    0.0001546   -2.2210360  
C    1.1336965   -0.0000201   -0.7459470  
N    2.4483513   -0.0001430   -0.3402717  
C    0.0000000    0.0000000    0.0000000  
C   -1.2757367   -0.0000188   -0.6964414  
O   -2.3524597   -0.0000640   -0.1142313  
C   -1.2676494   -0.0000875   -2.2584081  
O   -2.3355762   -0.0004102   -2.8557294  
C    0.0181562    0.0001757   -2.9516296  
H    2.9547357    0.0006072   -3.5989105  
H    4.3498550    0.0008609   -1.3200021  
H    2.7563627    0.0012824    0.6148063  
C    0.0000000    0.0000000    1.4700000  
C    1.0541688    0.0001722    2.3260392  
C    0.5103138    0.0000454    3.6635956  
C   -0.9576371   -0.0002459    3.5155732  
N   -1.2018458    0.0001392    2.1615969  
C   -1.8348311   -0.0008317    4.5510609  
C   -1.2972847   -0.0009736    5.9014604  
O   -2.0050672   -0.0014265    6.9001319  
C    0.2542623   -0.0004184    6.0817573  
O    0.7184670   -0.0002256    7.2139121  
C    1.0974552   -0.0000873    4.8889129  
H    2.0940752    0.0005483    2.0517982  
H   -2.9081052   -0.0011668    4.4207061  
H    2.1707277    0.0000911    5.0223670  
H   -2.1128194   -0.0014912    1.7406791  
