58

C    0.8077785   -0.7044851   -5.2248787  
C   -0.0307371   -0.0004634   -4.4215605  
C   -0.9183652    0.7408394   -5.2860963  
C   -0.5254412    0.4085800   -6.6688490  
N    0.5266118   -0.4716378   -6.5625881  
C   -1.1248966    0.9074723   -7.7794631  
C   -2.2307458    1.8336431   -7.6010238  
O   -2.8354893    2.3374954   -8.5384236  
C   -2.6635805    2.1998165   -6.1455592  
O   -3.5931194    2.9787574   -5.9828654  
C   -1.9409653    1.5974780   -5.0280323  
H   -2.2469895    1.8560414   -4.0234338  
H    1.6076112   -1.3736630   -4.9521913  
H    1.0136888   -0.8832241   -7.3374429  
C    3.2573663   -0.0002917   -1.5109395  
C    2.5379466   -0.0001711   -0.3591971  
C    1.1435037    0.0000336   -0.7338505  
C    1.1092600   -0.0000078   -2.2088480  
N    2.4227548    0.0001914   -2.6182623  
C   -0.0265546   -0.0002513   -2.9515662  
C   -1.3003044   -0.0002632   -2.2514976  
O   -2.3786797   -0.0004120   -2.8306419  
C   -1.2877728    0.0000315   -0.6895605  
O   -2.3539961    0.0003312   -0.0892028  
C    0.0000000    0.0000000    0.0000000  
H    2.9384092   -0.0000371    0.6389227  
H    4.3270388   -0.0004763   -1.6439464  
H    2.7280480   -0.0013400   -3.5742128  
C    0.1484742   -2.8940662   -9.6296690  
C   -0.2712629   -1.9372801   -8.7622267  
C   -0.3527183   -0.7018985   -9.5052156  
C    0.0568792   -1.0196754  -10.8865331  
N    0.3480611   -2.3643027  -10.8954711  
C    0.1130199   -0.1174168  -11.8987004  
C   -0.2542823    1.2585286  -11.6081876  
O   -0.2362912    2.1451026  -12.4519662  
C   -0.6909638    1.6176247  -10.1521091  
O   -1.0021589    2.7728636   -9.8955117  
C   -0.7120743    0.5583693   -9.1464326  
H   -0.4977744   -2.0805370   -7.7206973  
H    0.4160827   -0.3712865  -12.9049879  
H    0.3289937   -3.9415685   -9.4506674  
H    0.6559777   -2.8815790  -11.6983787  
C    2.5528530    2.1414826    2.8079335  
C    2.0663498    1.7338582    4.0032312  
C    0.9804344    0.8229586    3.6752840  
C    0.9495562    0.7966882    2.1971295  
N    1.8690446    1.5676019    1.6831036  
C    0.0000000    0.0000000    1.4700000  
C   -0.8785127   -0.7372425    2.1869543  
O   -1.8187535   -1.5261249    1.6395491  
C   -0.8723269   -0.7321790    3.6796354  
O   -1.7010379   -1.4274584    4.2670412  
C    0.1115397    0.0933559    4.4024240  
H    2.4028853    2.0163452    4.9860947  
H   -2.2861435   -1.9184361    2.3990168  
H    0.0832434    0.0693689    5.4835595  
H    3.3664920    2.8238276    2.6198634  
