58

C    4.3047788   -2.1086500   -1.2859243  
C    5.3774559   -1.6442162   -1.9771117  
C    4.8701585   -0.7486138   -2.9897228  
C    3.4034918   -0.7291862   -2.8306572  
N    3.1250159   -1.5744517   -1.7814350  
C    2.5562217   -0.0001543   -3.6003001  
C    3.1269051    0.8199333   -4.6559103  
O    2.4474939    1.5122577   -5.4024942  
C    4.6776928    0.8144233   -4.8425425  
O    5.1696074    1.5006857   -5.7281637  
C    5.4870227   -0.0121793   -3.9505978  
H    6.4066157   -1.8999864   -1.7981563  
H    6.5600124   -0.0102599   -4.0862903  
H    2.2064273   -1.7712342   -1.4285628  
C    4.2666879   -3.0465534   -0.1546479  
C    5.2950278   -3.6742127    0.4719585  
C    4.7183923   -4.4856053    1.5178875  
C    3.2593504   -4.2777384    1.4487522  
N    3.0511048   -3.3946604    0.4144913  
C    2.3583239   -4.8709477    2.2721346  
C    2.8590006   -5.7742679    3.2948134  
O    2.1277618   -6.3570006    4.0847577  
C    4.4005326   -6.0089960    3.3863933  
O    4.8338041   -6.7671352    4.2435762  
C    5.2717332   -5.3129514    2.4427922  
H    6.3384603   -3.5794589    0.2292951  
H    1.2921275   -4.7049429    2.2044791  
H    6.3378357   -5.4810545    2.5127336  
H    2.1540720   -3.0568250    0.1174278  
C    0.0000000    0.0000000    0.0000000  
C    1.0541688   -0.0001719   -0.8560391  
C    0.5103141   -0.0000449   -2.1935955  
C   -0.9576367    0.0002461   -2.0455733  
N   -1.2018459   -0.0001392   -0.6915970  
C   -1.8348306    0.0008319   -3.0810611  
C   -1.2972842    0.0009739   -4.4314605  
O   -2.0050664    0.0014267   -5.4301321  
C    0.2542628    0.0004190   -4.6117571  
O    0.7184677    0.0002263   -5.7439119  
C    1.0974556    0.0000880   -3.4189127  
H    2.0940752   -0.0005479   -0.5817978  
H   -2.9081050    0.0011669   -2.9507065  
H   -2.1128195    0.0014911   -0.2706793  
C    1.0965515   -0.0001358    2.2710304  
C    0.0000000    0.0000000    1.4700000  
C   -1.1546562   -0.0001469    2.3369512  
C   -0.6372014   -0.0003519    3.7186280  
N    0.7342871   -0.0007337    3.6095011  
C   -1.4147739   -0.0001353    4.8308716  
C   -2.8576048    0.0001048    4.6554461  
O   -3.6427778    0.0002493    5.5944904  
C   -3.4275839    0.0000726    3.2011665  
O   -4.6406829   -0.0000333    3.0410059  
C   -2.4891866    0.0001091    2.0816745  
H   -1.0150448   -0.0001615    5.8354244  
H   -2.8919121    0.0002919    1.0779135  
H    2.1388271   -0.0000662    1.9961646  
H    1.3735872    0.0006099    4.3830260  
