60

C    0.0000000    0.0000000    0.0000000  
C    1.0521661   -0.0011903   -0.8862347  
C    0.4917212   -0.0011956   -2.1979134  
C   -0.9187433    0.0003151   -2.0478682  
N   -1.1833174   -0.0009411   -0.7007909  
C   -1.7951708    0.0010353   -3.1372086  
C   -1.2375848    0.0005226   -4.4010421  
O   -2.0474230    0.0015361   -5.4997574  
C    0.1673567   -0.0013565   -4.5711966  
O    0.5673505   -0.0020686   -5.8915558  
C    1.0325763   -0.0023412   -3.4969895  
H    2.0953053   -0.0030651   -0.6200567  
H   -2.0989776    0.0102375   -0.2891818  
H   -1.4634905    0.0006503   -6.2693585  
H    1.5290694   -0.0033150   -5.9180049  
H    2.1042138   -0.0039610   -3.6584464  
C   -4.5107105    2.0951268   -0.3556521  
C   -3.4200326    1.6321240   -1.0190711  
C   -3.9000924    0.7371437   -2.0454180  
C   -5.3703974    0.7165662   -1.9247116  
N   -5.6767107    1.5600032   -0.8817947  
C   -6.1968239   -0.0116996   -2.7173986  
C   -5.5982305   -0.8300362   -3.7588145  
O   -6.2574707   -1.5216537   -4.5239086  
C   -4.0430726   -0.8236728   -3.9045785  
O   -3.5277087   -1.5089319   -4.7775515  
C   -3.2578661    0.0024043   -2.9908499  
H   -2.3960546    1.8881714   -0.8128611  
H   -7.2728553   -0.0125474   -2.6122007  
H   -6.6045198    1.7580529   -0.5546956  
C   -1.3192780    4.1456015    1.7885981  
C   -2.0075579    4.8579339    2.7107873  
C   -3.4053328    4.5379367    2.4651708  
C   -3.3770791    3.5925208    1.3285206  
N   -2.1569823    3.3586751    0.9276836  
C   -4.5789832    3.0319548    0.7750964  
C   -5.7556013    3.3988679    1.3321234  
O   -6.9537363    2.9537866    0.9168932  
C   -5.8169526    4.3507028    2.4803424  
O   -6.9226398    4.6402654    2.9373216  
C   -4.5701623    4.9120516    3.0301853  
H   -1.6151893    5.5188312    3.4646686  
H   -7.5973304    3.3898604    1.5040722  
H   -4.6573431    5.5980048    3.8621097  
H   -0.2519218    4.1088085    1.6390308  
C    0.0000000    0.0000000    1.4700000  
C    1.0541688    0.0001722    2.3260392  
C    0.5103138    0.0000454    3.6635956  
C   -0.9576371   -0.0002459    3.5155732  
N   -1.2018458    0.0001392    2.1615969  
C   -1.8348311   -0.0008317    4.5510609  
C   -1.2972847   -0.0009736    5.9014604  
O   -2.0050672   -0.0014265    6.9001319  
C    0.2542623   -0.0004184    6.0817573  
O    0.7184670   -0.0002256    7.2139121  
C    1.0974552   -0.0000873    4.8889129  
H    2.0940752    0.0005483    2.0517982  
H   -2.9081052   -0.0011668    4.4207061  
H    2.1707277    0.0000911    5.0223670  
H   -2.1128194   -0.0014912    1.7406791  
