58

C   -3.6880742    0.0007573   -7.1840059  
C   -4.3709190    0.0011838   -6.0102097  
C   -5.7764537    0.0017762   -6.3408265  
C   -5.8570654    0.0016296   -7.8140177  
N   -4.5570947    0.0014034   -8.2645346  
C   -7.0156744    0.0016675   -8.5206506  
C   -8.2667793    0.0020921   -7.7808726  
O   -9.3628337    0.0022204   -8.3258190  
C   -8.2051354    0.0025057   -6.2201016  
O   -9.2519515    0.0031715   -5.5865115  
C   -6.8963148    0.0021429   -5.5713795  
H   -3.9392667    0.0012762   -5.0251769  
H   -7.0527483    0.0014276   -9.6011762  
H   -6.8623034    0.0022276   -4.4903766  
H   -4.2820151   -0.0002944   -9.2296127  
C   -0.2963294   -0.0005341   -4.3948471  
C    0.7278651   -0.0010066   -5.2865309  
C    0.1384638   -0.0010229   -6.6046519  
C   -1.3235480   -0.0004883   -6.4063792  
N   -1.5211840   -0.0006101   -5.0448251  
C   -2.2357336    0.0000547   -7.4111778  
C   -1.7448097   -0.0001095   -8.7792165  
O   -2.4864213    0.0002814   -9.7530304  
C   -0.2003578   -0.0009260   -9.0126110  
O    0.2247513   -0.0013774  -10.1600175  
C    0.6832429   -0.0011827   -7.8493818  
H    1.7765638   -0.0014916   -5.0481108  
H    1.7513078   -0.0015433   -8.0195610  
H   -2.4171880    0.0012263   -4.5929169  
C    3.1301143   -0.0010313   -1.7028257  
C    2.5367765   -0.0002767   -0.4864669  
C    1.1089900    0.0001027   -0.7656184  
C    1.0177864   -0.0004150   -2.2415133  
N    2.1993571   -0.0011613   -2.7963824  
C   -0.2459220   -0.0002879   -2.9257116  
C   -1.3675327   -0.0000606   -2.1698519  
O   -2.6129319    0.0000866   -2.6748482  
C   -1.3083588    0.0000910   -0.6783229  
O   -2.3693264    0.0004206   -0.0541685  
C    0.0000000    0.0000000    0.0000000  
H    3.0096014   -0.0001008    0.4807517  
H   -3.1967445    0.0002093   -1.8949025  
H    4.1849272   -0.0015113   -1.9271980  
C    2.5128556    2.1077716    2.9199648  
C    1.9592212    1.6432552    4.0696553  
C    0.8915788    0.7479214    3.6910360  
C    0.8684491    0.7287414    2.2159470  
N    1.8754542    1.5738793    1.8102719  
C    0.0000000    0.0000000    1.4700000  
C   -0.9772830   -0.8200135    2.1664417  
O   -1.8021297   -1.5120829    1.5842315  
C   -0.9711318   -0.8147624    3.7284083  
O   -1.7894187   -1.5009653    4.3257297  
C    0.0140216    0.0115358    4.4216297  
H    2.2638494    1.8988021    5.0689105  
H    0.0117648    0.0094386    5.5031631  
H    3.3327358    2.7953732    2.7900019  
H    2.1123206    1.7707734    0.8551938  
