62

C   -0.9836065    0.5332696   -0.8003809  
C    0.0000000    0.0000000    0.0000000  
C    0.9946722   -0.5412269   -0.8673524  
C    0.5599444   -0.3063491   -2.1969278  
N   -0.6454422    0.3461666   -2.1202241  
C    1.2967070   -0.7073601   -3.3154807  
C    2.4942843   -1.3570490   -3.0876857  
O    3.2536947   -1.7698871   -4.1440344  
C    2.9447547   -1.6009054   -1.7684324  
O    4.1559932   -2.2585610   -1.7073116  
C    2.2183079   -1.2058192   -0.6644815  
H    0.9708103   -0.5314628   -4.3313808  
H    4.0359892   -2.1944620   -3.7685123  
H    4.3877111   -2.3838282   -0.7819908  
H    2.5887888   -1.4066302    0.3339659  
H   -1.9003181    1.0310143   -0.5342071  
C   -3.0642315    3.9631418   -3.0853096  
C   -2.2724341    3.0894118   -2.4210561  
C   -2.1060538    1.9670064   -3.3315631  
C   -2.8863484    2.3409839   -4.5306729  
N   -3.4502236    3.5101109   -4.3921944  
C   -2.9761687    1.4811956   -5.6786203  
C   -2.3161483    0.3016033   -5.6309823  
O   -2.3128035   -0.5974551   -6.6298437  
C   -1.5199333   -0.1040792   -4.4353132  
O   -0.9449942   -1.1921930   -4.4612749  
C   -1.4432823    0.7952503   -3.2703001  
H   -1.8529941    3.1937323   -1.4350221  
H   -3.5537184    1.7797644   -6.5412921  
H   -1.7594800   -1.3295291   -6.3026528  
C   -2.4396562    6.1798944    0.6902426  
C   -3.1910141    7.2869731    0.3703917  
C   -3.7084637    7.0740853   -0.9416772  
C   -3.2354784    5.8091524   -1.3754461  
N   -2.4665857    5.2941397   -0.3614525  
C   -3.5501343    5.2728789   -2.6277203  
C   -4.3572125    6.0271560   -3.4570982  
O   -4.6956731    5.5509252   -4.6906551  
C   -4.8386962    7.2916689   -3.0423717  
O   -5.6303557    7.9202468   -3.9812587  
C   -4.5284619    7.8214583   -1.8072182  
H   -3.3460696    8.1432014    1.0042876  
H   -2.0060503    4.4021670   -0.3779856  
H   -5.2554566    6.2240636   -5.0990561  
H   -5.9136351    8.7668175   -3.6225460  
H   -4.9118708    8.7927487   -1.5172681  
H   -1.8854990    5.9526468    1.5847972  
C    2.4951002    2.0940188    2.9809380  
C    1.9440701    1.6314916    1.8291961  
C    0.8759964    0.7350050    2.2038498  
C    0.8497377    0.7130254    3.6788474  
N    1.8560616    1.5571714    4.0882609  
C   -0.0205033   -0.0168748    4.4215661  
C   -0.9962600   -0.8356168    3.7214979  
O   -1.8224391   -1.5286685    4.3006425  
C   -0.9864710   -0.8277881    2.1595606  
O   -1.8030528   -1.5133726    1.5592035  
C    0.0000000    0.0000000    1.4700000  
H    2.2509283    1.8888011    0.8310761  
H   -0.0229599   -0.0187323    5.5027230  
H    3.3143982    2.7817323    3.1139444  
H    2.0889452    1.7545833    5.0442112  
