58

C    1.0965507    0.0001360   -0.8010309  
C    0.0000000    0.0000000    0.0000000  
C   -1.1546572    0.0001472   -0.8669503  
C   -0.6372031    0.0003523   -2.2486274  
N    0.7342855    0.0007340   -2.1395013  
C   -1.4147764    0.0001358   -3.3608705  
C   -2.8576071   -0.0001044   -3.1854441  
O   -3.6427811   -0.0002486   -4.1244878  
C   -3.4275854   -0.0000723   -1.7311640  
O   -4.6406843    0.0000336   -1.5710024  
C   -2.4891876   -0.0001087   -0.6116728  
H   -2.8919122   -0.0002917    0.3920886  
H    2.1388265    0.0000661   -0.5261655  
H    1.3735848   -0.0006094   -2.9130268  
C    0.1963015   -0.6854849   -5.1975721  
C   -0.8712860    0.0001716   -4.7267101  
C   -1.3728473    0.7454188   -5.8710631  
C   -0.4646078    0.3816815   -6.9798373  
N    0.4571785   -0.4568678   -6.5910760  
C   -0.6266637    0.9179306   -8.3031894  
C   -1.6497838    1.7781387   -8.5095914  
O   -1.9186872    2.3543459   -9.6935323  
C   -2.5836238    2.1644782   -7.4110262  
O   -3.4927578    2.9526636   -7.6707558  
C   -2.3964323    1.6008435   -6.0622488  
H   -2.7005711    2.9110291   -9.5264578  
H   -3.0942865    1.9057194   -5.2939518  
H    0.8445063   -1.3575647   -4.6580233  
C    1.3626874   -2.8617377   -9.5763863  
C    0.5997004   -1.9840365   -8.8842372  
C    0.7768162   -0.7123213   -9.5682476  
C    1.7037329   -1.0132312  -10.6803910  
N    2.0505524   -2.2716462  -10.6903031  
C    2.1349560   -0.0022350  -11.6061446  
C    1.6614002    1.2522588  -11.4291538  
O    1.9800380    2.2929671  -12.2174664  
C    0.7244093    1.5873555  -10.3165366  
O    0.3336156    2.7502449  -10.2155931  
C    0.2968603    0.5327729   -9.3800634  
H   -0.0082939   -2.1759120   -8.0167105  
H    2.8131091   -0.2502529  -12.4095775  
H    1.4907244    3.0472191  -11.8421928  
H    1.5022086   -3.9141142   -9.3866204  
C    2.5128556    2.1077716    2.9199648  
C    1.9592212    1.6432552    4.0696553  
C    0.8915788    0.7479214    3.6910360  
C    0.8684491    0.7287414    2.2159470  
N    1.8754542    1.5738793    1.8102719  
C    0.0000000    0.0000000    1.4700000  
C   -0.9772830   -0.8200135    2.1664417  
O   -1.8021297   -1.5120829    1.5842315  
C   -0.9711318   -0.8147624    3.7284083  
O   -1.7894187   -1.5009653    4.3257297  
C    0.0140216    0.0115358    4.4216297  
H    2.2638494    1.8988021    5.0689105  
H    0.0117648    0.0094386    5.5031631  
H    3.3327358    2.7953732    2.7900019  
H    2.1123206    1.7707734    0.8551938  
