60

C    3.3003538    0.0005277   -1.4739000  
C    2.5232805    0.0003501   -2.6090752  
C    1.1623192   -0.0001315   -2.1820103  
C    1.1711879    0.0000585   -0.7636141  
N    2.4852298   -0.0014918   -0.3662362  
C    0.0000000    0.0000000    0.0000000  
C   -1.2020385    0.0000521   -0.6806474  
O   -2.3759249    0.0003497    0.0157757  
C   -1.2314667   -0.0005110   -2.0955503  
O   -2.5054399   -0.0008033   -2.6250170  
C   -0.0764526   -0.0007269   -2.8495190  
H    2.8919941   -0.0005614   -3.6205308  
H    2.8036265    0.0088181    0.5858651  
H   -3.0835641    0.0000349   -0.6418804  
H   -2.4360063   -0.0011522   -3.5845910  
H    4.3715543    0.0004895   -1.3667148  
C    2.2883715   -2.1096663   -5.8898019  
C    1.6780782   -1.6459097   -7.0107599  
C    0.6304122   -0.7505687   -6.5799514  
C    0.6807507   -0.7305564   -5.1055512  
N    1.7068930   -1.5752684   -4.7500468  
C   -0.1496430   -0.0015608   -4.3176959  
C   -1.1605716    0.8178678   -4.9650717  
O   -1.9555611    1.5101069   -4.3429003  
C   -1.2321962    0.8117318   -6.5254043  
O   -2.0793609    1.4974368   -7.0816251  
C   -0.2825959   -0.0147682   -7.2663560  
H    1.9326332   -1.9019641   -8.0238007  
H   -0.3386993   -0.0132848   -8.3464369  
H    1.9910620   -1.7715746   -3.8078371  
C    4.5819212   -4.1597889   -8.9759196  
C    5.4702719   -4.8722927   -8.2446538  
C    5.1582367   -4.5527475   -6.8600871  
C    4.0243108   -3.6072068   -6.9422438  
N    3.6820152   -3.3731199   -8.1799947  
C    3.4141296   -3.0470653   -5.7679328  
C    3.9137657   -3.4150994   -4.5661637  
O    3.4417392   -2.9705172   -3.3890578  
C    5.0571751   -4.3676580   -4.4503726  
O    5.4604900   -4.6580438   -3.3242140  
C    5.6659899   -4.9284845   -5.6696934  
H    6.2419384   -5.5331686   -8.6008135  
H    3.9970204   -3.4074287   -2.7182939  
H    6.4922303   -5.6151677   -5.5431086  
H    4.4834297   -4.1226778  -10.0491839  
C    2.4951002    2.0940188    2.9809380  
C    1.9440701    1.6314916    1.8291961  
C    0.8759964    0.7350050    2.2038498  
C    0.8497377    0.7130254    3.6788474  
N    1.8560616    1.5571714    4.0882609  
C   -0.0205033   -0.0168748    4.4215661  
C   -0.9962600   -0.8356168    3.7214979  
O   -1.8224391   -1.5286685    4.3006425  
C   -0.9864710   -0.8277881    2.1595606  
O   -1.8030528   -1.5133726    1.5592035  
C    0.0000000    0.0000000    1.4700000  
H    2.2509283    1.8888011    0.8310761  
H   -0.0229599   -0.0187323    5.5027230  
H    3.3143982    2.7817323    3.1139444  
H    2.0889452    1.7545833    5.0442112  
