58

C    3.2798081    0.0005858   -1.4499647  
C    2.5571143    0.0005565   -2.5996555  
C    1.1637432    0.0001548   -2.2210360  
C    1.1336963   -0.0000200   -0.7459475  
N    2.4483512   -0.0001427   -0.3402721  
C    0.0000000    0.0000000    0.0000000  
C   -1.2757371   -0.0000186   -0.6964413  
O   -2.3524597   -0.0000640   -0.1142312  
C   -1.2676500   -0.0000874   -2.2584082  
O   -2.3355764   -0.0004102   -2.8557296  
C    0.0181557    0.0001759   -2.9516298  
H    2.9547347    0.0006075   -3.5989106  
H    4.3498548    0.0008613   -1.3200025  
H    2.7563627    0.0012824    0.6148056  
C    2.5654228   -2.1380210   -5.7671300  
C    2.0750614   -1.7307734   -6.9609784  
C    0.9890570   -0.8211466   -6.6298091  
C    0.9623546   -0.7951240   -5.1515689  
N    1.8841704   -1.5650741   -4.6402744  
C    0.0139734    0.0003876   -4.4216239  
C   -0.8674063    0.7367422   -5.1359668  
O   -1.8069748    1.5244844   -4.5857733  
C   -0.8654615    0.7319007   -6.6286605  
O   -1.6966240    1.4263295   -7.2136038  
C    0.1172749   -0.0924197   -7.3543666  
H   -2.2769659    1.9163776   -5.3438504  
H    0.0858757   -0.0683088   -8.4354139  
H    3.3803624   -2.8194747   -5.5814760  
C    3.3625596   -5.6041441   -8.4863789  
C    3.6538122   -5.3195568   -9.7770224  
C    3.3749812   -3.8988832   -9.9199877  
C    2.9115305   -3.4735125   -8.5817578  
N    2.9022152   -4.4688100   -7.7371955  
C    2.5311833   -2.1157706   -8.3043439  
C    2.6105958   -1.2234500   -9.3176512  
O    2.2875389    0.0757779   -9.2006813  
C    3.0748442   -1.6218946  -10.6792218  
O    3.1220599   -0.7570041  -11.5538398  
C    3.4593971   -3.0207240  -10.9386831  
H    4.0135363   -5.9907798  -10.5380308  
H    2.4471375    0.4515685  -10.0852499  
H    3.7904065   -3.2689027  -11.9382183  
H    3.4369820   -6.5548719   -7.9828401  
C    2.4951002    2.0940188    2.9809380  
C    1.9440701    1.6314916    1.8291961  
C    0.8759964    0.7350050    2.2038498  
C    0.8497377    0.7130254    3.6788474  
N    1.8560616    1.5571714    4.0882609  
C   -0.0205033   -0.0168748    4.4215661  
C   -0.9962600   -0.8356168    3.7214979  
O   -1.8224391   -1.5286685    4.3006425  
C   -0.9864710   -0.8277881    2.1595606  
O   -1.8030528   -1.5133726    1.5592035  
C    0.0000000    0.0000000    1.4700000  
H    2.2509283    1.8888011    0.8310761  
H   -0.0229599   -0.0187323    5.5027230  
H    3.3143982    2.7817323    3.1139444  
H    2.0889452    1.7545833    5.0442112  
