62

C    4.1072303   -0.7191023   -4.4475472  
C    3.0267433   -0.0008947   -3.9901699  
C    2.5087344    0.7258922   -5.1028455  
C    3.3206451    0.4084345   -6.2217506  
N    4.2827389   -0.4698428   -5.7885972  
C    3.1000325    0.9464857   -7.4932141  
C    2.0403143    1.8207030   -7.6378508  
O    1.7797466    2.3748859   -8.8576868  
C    1.2191161    2.1500706   -6.5333297  
O    0.2053884    3.0346610   -6.8386143  
C    1.4363344    1.6198580   -5.2786520  
H    3.7152882    0.7086621   -8.3500122  
H    1.0098898    2.9463183   -8.7391490  
H   -0.3015567    3.2041275   -6.0386819  
H    0.7906448    1.8909176   -4.4515547  
H    4.7674524   -1.3883357   -3.9229595  
C    3.3003543    0.0005277   -1.4738984  
C    2.5232813    0.0003500   -2.6090746  
C    1.1623201   -0.0001317   -2.1820101  
C    1.1711884    0.0000583   -0.7636139  
N    2.4852298   -0.0014919   -0.3662355  
C    0.0000000    0.0000000    0.0000000  
C   -1.2020383    0.0000520   -0.6806478  
O   -2.3759254    0.0003497    0.0157747  
C   -1.2314658   -0.0005111   -2.0955512  
O   -2.5054392   -0.0008038   -2.6250184  
C   -0.0764517   -0.0007270   -2.8495193  
H    2.8036267    0.0088183    0.5858660  
H   -3.0835638    0.0000347   -0.6418817  
H   -2.4360049   -0.0011522   -3.5845925  
H   -0.1304094   -0.0013419   -3.9319087  
H    4.3715550    0.0004896   -1.3667135  
C    5.3276212   -1.0690335   -6.6312670  
C    6.3048655   -1.9473513   -6.2883004  
C    7.0653788   -2.2194128   -7.4851458  
C    6.4466780   -1.4218580   -8.5612062  
N    5.3985778   -0.7476469   -7.9782695  
C    6.8761174   -1.4030865   -9.8484252  
C    8.0241706   -2.2232975  -10.1973681  
O    8.4866412   -2.2746758  -11.3295271  
C    8.6949036   -3.0761795   -9.0737510  
O    9.6619599   -3.7708649   -9.3556626  
C    8.1418718   -3.0135455   -7.7231641  
H    6.4735869   -2.3579473   -5.3087302  
H    6.4081071   -0.8108510  -10.6224620  
H    8.6121804   -3.6069241   -6.9508717  
H    4.7816154   -0.1174699   -8.4571036  
C    0.0000000    0.0000000    1.4700000  
C    1.0541688    0.0001722    2.3260392  
C    0.5103138    0.0000454    3.6635956  
C   -0.9576371   -0.0002459    3.5155732  
N   -1.2018458    0.0001392    2.1615969  
C   -1.8348311   -0.0008317    4.5510609  
C   -1.2972847   -0.0009736    5.9014604  
O   -2.0050672   -0.0014265    6.9001319  
C    0.2542623   -0.0004184    6.0817573  
O    0.7184670   -0.0002256    7.2139121  
C    1.0974552   -0.0000873    4.8889129  
H    2.0940752    0.0005483    2.0517982  
H   -2.9081052   -0.0011668    4.4207061  
H    2.1707277    0.0000911    5.0223670  
H   -2.1128194   -0.0014912    1.7406791  
