58

C    3.5155257   -3.5896285   -3.9842386  
C    4.6133592   -4.3710111   -4.1523973  
C    5.0305051   -4.2208363   -5.5265408  
C    4.0788995   -3.2811514   -6.1496232  
N    3.1854957   -2.9361432   -5.1618532  
C    4.1317891   -2.8791227   -7.4447214  
C    5.1969145   -3.4073339   -8.2808068  
O    5.3297731   -3.1061635   -9.4597663  
C    6.2157469   -4.4041111   -7.6418850  
O    7.1165694   -4.8556618   -8.3360612  
C    6.0558720   -4.7622973   -6.2347624  
H    5.0778241   -4.9829178   -3.3997634  
H    3.4238730   -2.1888436   -7.8820770  
H    6.7655929   -5.4528965   -5.7999115  
H    2.9196778   -3.4363655   -3.0991594  
C    2.0552331   -2.0117600   -5.3319182  
C    1.1441930   -1.6301402   -4.4067419  
C    0.2595430   -0.7123102   -5.1078000  
C    0.7977765   -0.6538175   -6.4838332  
N    1.8503505   -1.4135520   -6.6212381  
C    0.1930648    0.1584612   -7.5034472  
C   -0.8998972    0.8792300   -7.1639455  
O   -1.5649246    1.6797247   -8.0142327  
C   -1.4671321    0.8410357   -5.7837477  
O   -2.4638599    1.5229391   -5.5455002  
C   -0.8287665    0.0000939   -4.7555305  
H    1.0803195   -1.9340247   -3.3758927  
H    0.6076492    0.1823324   -8.5006729  
H   -2.2915643    2.0548234   -7.4846588  
C    1.0672569   -0.0000698   -0.8321910  
C    0.0000000    0.0000000    0.0000000  
C   -1.1601223   -0.0000736   -0.8778472  
C   -0.5938729   -0.0000768   -2.2438435  
N    0.7113367   -0.0001553   -2.2234123  
C   -1.4286985   -0.0001877   -3.4135239  
C   -2.7683113   -0.0006798   -3.2270524  
O   -3.6653902   -0.0008302   -4.2276970  
C   -3.3702024   -0.0010610   -1.8610774  
O   -4.5974910   -0.0013779   -1.7662963  
C   -2.4926825   -0.0008943   -0.6770658  
H   -4.5324245   -0.0012258   -3.7833954  
H   -2.9677772   -0.0012974    0.2947961  
H    2.1134391   -0.0000547   -0.5705119  
C    0.8175213    0.6860729    2.3021913  
C    0.0000000    0.0000000    1.4700000  
C   -0.8887526   -0.7456559    2.3478473  
C   -0.4549825   -0.3816753    3.7138435  
N    0.5448156    0.4573574    3.6934124  
C   -1.0945674   -0.9182058    4.8835240  
C   -2.1210866   -1.7789155    4.6970523  
O   -2.8083856   -2.3554314    5.6976972  
C   -2.5824069   -2.1655116    3.3310774  
O   -3.5227682   -2.9541547    3.2362962  
C   -1.9100805   -1.6015804    2.1470656  
H   -0.7567140   -0.6349833    5.8697035  
H   -3.4728268   -2.9124471    5.2533954  
H   -2.2742832   -1.9066565    1.1752040  
H    1.6189533    1.3585343    2.0405121  
