62

C    2.3021910   -2.1255957   -5.9826735  
C    1.8095069   -1.6629746   -4.7844614  
C    0.7354735   -0.7756724   -5.0906433  
C    0.6180411   -0.7363240   -6.5036497  
N    1.5855137   -1.5656970   -7.0142915  
C   -0.3411041    0.0395977   -7.1615058  
C   -1.1974963    0.7892224   -6.3786691  
O   -2.1530486    1.5644625   -6.9693778  
C   -1.0957951    0.7634636   -4.9673539  
O   -2.0200008    1.5643286   -4.3287607  
C   -0.1496415   -0.0015616   -4.3176959  
H    2.1795065   -1.9311009   -3.8096787  
H   -0.4356854    0.0740440   -8.2381068  
H   -2.6345080    1.9978446   -6.2526902  
H   -1.8829374    1.4894719   -3.3794383  
H    3.1090430   -2.8095407   -6.1830921  
C    3.3003542    0.0005274   -1.4738984  
C    2.5232813    0.0003496   -2.6090747  
C    1.1623199   -0.0001320   -2.1820097  
C    1.1711882    0.0000583   -0.7636143  
N    2.4852298   -0.0014919   -0.3662359  
C    0.0000000    0.0000000    0.0000000  
C   -1.2020385    0.0000519   -0.6806477  
O   -2.3759249    0.0003493    0.0157746  
C   -1.2314658   -0.0005115   -2.0955507  
O   -2.5054393   -0.0008039   -2.6250177  
C   -0.0764517   -0.0007275   -2.8495196  
H    2.8919953   -0.0005619   -3.6205303  
H    2.8036266    0.0088182    0.5858663  
H   -3.0835639    0.0000344   -0.6418818  
H   -2.4360048   -0.0011532   -3.5845921  
H    4.3715547    0.0004895   -1.3667136  
C    1.8091014   -1.8320070   -8.4425731  
C    2.7300553   -2.6395793   -9.0288714  
C    2.5255679   -2.5452414  -10.4550978  
C    1.4019517   -1.6097813  -10.6530671  
N    1.0125528   -1.2136597   -9.3943591  
C    0.9017363   -1.2540863  -11.8634262  
C    1.5105032   -1.8312738  -13.0503513  
O    1.1316992   -1.5738490  -14.1854913  
C    2.7015742   -2.8245150  -12.8642668  
O    3.2219081   -3.3170339  -13.8562031  
C    3.1525109   -3.1304667  -11.5089433  
H    3.4682619   -3.2337161   -8.5202787  
H    0.0769312   -0.5660341  -11.9866730  
H    3.9778874   -3.8189599  -11.3887148  
H    0.2661474   -0.5724151   -9.1975539  
C    2.4951002    2.0940188    2.9809380  
C    1.9440701    1.6314916    1.8291961  
C    0.8759964    0.7350050    2.2038498  
C    0.8497377    0.7130254    3.6788474  
N    1.8560616    1.5571714    4.0882609  
C   -0.0205033   -0.0168748    4.4215661  
C   -0.9962600   -0.8356168    3.7214979  
O   -1.8224391   -1.5286685    4.3006425  
C   -0.9864710   -0.8277881    2.1595606  
O   -1.8030528   -1.5133726    1.5592035  
C    0.0000000    0.0000000    1.4700000  
H    2.2509283    1.8888011    0.8310761  
H   -0.0229599   -0.0187323    5.5027230  
H    3.3143982    2.7817323    3.1139444  
H    2.0889452    1.7545833    5.0442112  
