58

C    0.0000000    0.0000000    0.0000000  
C   -1.0541697   -0.0000025   -0.8560388  
C   -0.5103151   -0.0000391   -2.1935955  
C    0.9576357   -0.0000871   -2.0455741  
N    1.2018450    0.0003383   -0.6915978  
C    1.8348294   -0.0005275   -3.0810621  
C    1.2972819   -0.0007584   -4.4314616  
O    2.0050642   -0.0010940   -5.4301332  
C   -0.2542651   -0.0004604   -4.6117575  
O   -0.7184705   -0.0003444   -5.7439121  
C   -1.0974573   -0.0002690   -3.4189126  
H   -2.0940760    0.0002013   -0.5817975  
H    2.9081031   -0.0006847   -2.9507079  
H    2.1128198   -0.0011410   -0.2706804  
C   -2.5562235   -0.0002683   -3.6002995  
C   -3.5148536   -0.0011667   -2.6449950  
C   -4.7727404   -0.0006967   -3.3758992  
C   -4.3760707    0.0006415   -4.8004112  
N   -3.0779921    0.0008174   -4.9381828  
C   -5.3463933    0.0014034   -5.8603924  
C   -6.6535675    0.0004646   -5.5130753  
O   -7.6652165    0.0010226   -6.3977263  
C   -7.0856192   -0.0012653   -4.0842685  
O   -8.2923986   -0.0019235   -3.8415688  
C   -6.0711811   -0.0019756   -3.0152319  
H   -3.3844842   -0.0021307   -1.5763137  
H   -8.4720692    0.0000479   -5.8517029  
H   -6.4250936   -0.0033481   -1.9929923  
C   -4.9133844    0.0030119   -7.2651705  
C   -3.6489044    0.0039981   -7.7475274  
C   -3.7994525    0.0054341   -9.1945358  
C   -5.2613085    0.0049886   -9.4171597  
N   -5.9194650    0.0036507   -8.2898543  
C   -5.8299362    0.0061448  -10.7369128  
C   -4.9769467    0.0080655  -11.7865498  
O   -5.3687229    0.0093084  -13.0720655  
C   -3.4966591    0.0089341  -11.5944318  
O   -2.7802638    0.0105691  -12.5954291  
C   -2.9378703    0.0076742  -10.2307319  
H   -2.7277679    0.0038683   -7.1902273  
H   -6.9019174    0.0055792  -10.8702055  
H   -4.5397637    0.0105898  -13.5839030  
H   -1.8604204    0.0084748  -10.1341385  
C    0.0000000    0.0000000    1.4700000  
C    1.0541688    0.0001722    2.3260392  
C    0.5103138    0.0000454    3.6635956  
C   -0.9576371   -0.0002459    3.5155732  
N   -1.2018458    0.0001392    2.1615969  
C   -1.8348311   -0.0008317    4.5510609  
C   -1.2972847   -0.0009736    5.9014604  
O   -2.0050672   -0.0014265    6.9001319  
C    0.2542623   -0.0004184    6.0817573  
O    0.7184670   -0.0002256    7.2139121  
C    1.0974552   -0.0000873    4.8889129  
H    2.0940752    0.0005483    2.0517982  
H   -2.9081052   -0.0011668    4.4207061  
H    2.1707277    0.0000911    5.0223670  
H   -2.1128194   -0.0014912    1.7406791  
