58

C   -0.0307357   -0.0004648   -4.4215605  
C    1.0209936   -0.0006525   -5.2805953  
C    0.4733354   -0.0007748   -6.6165992  
C   -0.9941884   -0.0006127   -6.4644009  
N   -1.2345441   -0.0008272   -5.1097354  
C   -1.8743250   -0.0002665   -7.4973890  
C   -1.3406225   -0.0002646   -8.8493125  
O   -2.0512434   -0.0000286   -9.8459665  
C    0.2104050   -0.0006867   -9.0340228  
O    0.6713870   -0.0009954  -10.1674933  
C    1.0569883   -0.0007589   -7.8435821  
H    2.0616756   -0.0008823   -5.0093139  
H    2.1298764   -0.0008465   -7.9800891  
H   -2.1443168    0.0007705   -4.6862276  
C    3.2573671   -0.0002921   -1.5109385  
C    2.5379468   -0.0001709   -0.3591966  
C    1.1435043    0.0000332   -0.7338505  
C    1.1092606   -0.0000083   -2.2088481  
N    2.4227561    0.0001908   -2.6182617  
C   -0.0265535   -0.0002524   -2.9515665  
C   -1.3003038   -0.0002640   -2.2514985  
O   -2.3786788   -0.0004132   -2.8306428  
C   -1.2877726    0.0000312   -0.6895607  
O   -2.3539957    0.0003306   -0.0892034  
C    0.0000000    0.0000000    0.0000000  
H    2.9384092   -0.0000368    0.6389229  
H    4.3270393   -0.0004765   -1.6439450  
H    2.7280488   -0.0013408   -3.5742119  
C   -4.4613983    2.1078135   -4.6432011  
C   -5.6707296    1.6436335   -5.0507918  
C   -5.4269587    0.7483630   -6.1570933  
C   -3.9660011    0.7288536   -6.3620638  
N   -3.4389654    1.5737597   -5.4127188  
C   -3.3330910    0.0000650   -7.3160013  
C   -4.1449978   -0.8196553   -8.1999707  
O   -3.6691841   -1.5117411   -9.0904305  
C   -5.6942677   -0.8140528   -8.0011302  
O   -6.3881606   -1.5000071   -8.7395341  
C   -6.2604314    0.0122645   -6.9378753  
H   -6.6246978    1.8993632   -4.6251626  
H   -7.3339785    0.0104115   -6.8066610  
H   -4.2310954    2.7952715   -3.8455468  
H   -2.4619110    1.7704055   -5.2954903  
C    2.5528530    2.1414826    2.8079335  
C    2.0663498    1.7338582    4.0032312  
C    0.9804344    0.8229586    3.6752840  
C    0.9495562    0.7966882    2.1971295  
N    1.8690446    1.5676019    1.6831036  
C    0.0000000    0.0000000    1.4700000  
C   -0.8785127   -0.7372425    2.1869543  
O   -1.8187535   -1.5261249    1.6395491  
C   -0.8723269   -0.7321790    3.6796354  
O   -1.7010379   -1.4274584    4.2670412  
C    0.1115397    0.0933559    4.4024240  
H    2.4028853    2.0163452    4.9860947  
H   -2.2861435   -1.9184361    2.3990168  
H    0.0832434    0.0693689    5.4835595  
H    3.3664920    2.8238276    2.6198634  
