58

C    9.7914515   -0.7307985   -2.5634716  
C   11.0069709   -0.5149600   -3.1291564  
C   10.8059812    0.4116966   -4.2180760  
C    9.3633889    0.7202623   -4.2405596  
N    8.8049643   -0.0042791   -3.2128964  
C    8.7705862    1.5606714   -5.1259978  
C    9.6093125    2.2040680   -6.1235523  
O    9.1700701    2.9773459   -6.9646285  
C   11.1397286    1.8916518   -6.1184482  
O   11.8558291    2.4271878   -6.9537088  
C   11.6622920    0.9687784   -5.1139163  
H   11.9380963   -0.9548473   -2.8191249  
H    7.7105713    1.7734583   -5.1251856  
H   12.7230707    0.7579201   -5.1170362  
H    9.5333018   -1.3596501   -1.7269348  
C    6.8847525   -0.0023787    0.6986608  
C    5.5715637   -0.0012903    0.3713797  
C    5.5475442   -0.0015351   -1.0832416  
C    6.9721655   -0.0027416   -1.4795204  
N    7.7607270   -0.0033211   -0.4392514  
C    7.3784667   -0.0033614   -2.8579272  
C    6.4057883   -0.0031904   -3.7977309  
O    6.6406184   -0.0037041   -5.1209446  
C    4.9592105   -0.0023543   -3.4295276  
O    4.1279725   -0.0021183   -4.3374176  
C    4.5679461   -0.0016854   -2.0086701  
H    4.7238861   -0.0005185    1.0350949  
H    5.7562738   -0.0034385   -5.5297077  
H    7.3236768   -0.0025893    1.6837085  
C    3.1301149   -0.0010311   -1.7028252  
C    2.5367768   -0.0002767   -0.4864665  
C    1.1089904    0.0001028   -0.7656183  
C    1.0177872   -0.0004148   -2.2415132  
N    2.1993578   -0.0011611   -2.7963820  
C   -0.2459209   -0.0002877   -2.9257118  
C   -1.3675319   -0.0000605   -2.1698524  
O   -2.6129313    0.0000867   -2.6748490  
C   -1.3083584    0.0000910   -0.6783232  
O   -2.3693261    0.0004206   -0.0541692  
C    0.0000000    0.0000000    0.0000000  
H    3.0096017   -0.0001007    0.4807525  
H   -0.2829630   -0.0004687   -4.0053125  
H   -3.1967441    0.0002094   -1.8949034  
C    2.4951002    2.0940188    2.9809380  
C    1.9440701    1.6314916    1.8291961  
C    0.8759964    0.7350050    2.2038498  
C    0.8497377    0.7130254    3.6788474  
N    1.8560616    1.5571714    4.0882609  
C   -0.0205033   -0.0168748    4.4215661  
C   -0.9962600   -0.8356168    3.7214979  
O   -1.8224391   -1.5286685    4.3006425  
C   -0.9864710   -0.8277881    2.1595606  
O   -1.8030528   -1.5133726    1.5592035  
C    0.0000000    0.0000000    1.4700000  
H    2.2509283    1.8888011    0.8310761  
H   -0.0229599   -0.0187323    5.5027230  
H    3.3143982    2.7817323    3.1139444  
H    2.0889452    1.7545833    5.0442112  
