58

C    3.1659066   -3.0570126   -7.9902200  
C    2.6563292   -1.8456644   -7.6481055  
C    3.0912662   -0.9064325   -8.6548372  
C    3.9017927   -1.6754071   -9.6184327  
N    3.9084213   -2.9719530   -9.1581991  
C    4.4944961   -1.1468828  -10.7189184  
C    4.3228463    0.2742128  -10.9710278  
O    4.8168789    0.8441159  -11.9351054  
C    3.4686723    1.1079900   -9.9635533  
O    3.3174132    2.3053649  -10.1652310  
C    2.8796516    0.4262799   -8.8136927  
H    5.0848620   -1.7285885  -11.4131791  
H    2.2894577    1.0106791   -8.1209636  
H    3.0616579   -4.0046600   -7.4872431  
H    4.3783986   -3.7387339   -9.6034136  
C    2.0060354   -2.0933380   -5.2079955  
C    1.0681402   -1.6309435   -4.3416130  
C    0.2140993   -0.7346501   -5.0846522  
C    0.7350360   -0.7126395   -6.4648445  
N    1.8215796   -1.5565848   -6.4731481  
C    0.2009225    0.0171137   -7.4767179  
C   -0.9646766    0.8356540   -7.1870526  
O   -1.5183203    1.5285627   -8.0306493  
C   -1.5330621    0.8277890   -5.7321707  
O   -2.5138752    1.5132041   -5.4762939  
C   -0.8712826    0.0001710   -4.7267111  
H    0.9842757   -1.8882192   -3.3007526  
H    0.5983671    0.0189970   -8.4821753  
H    2.8165825   -2.7808931   -5.0286319  
C    1.0965514    0.0001359   -0.8010305  
C    0.0000000    0.0000000    0.0000000  
C   -1.1546563    0.0001470   -0.8669513  
C   -0.6372014    0.0003519   -2.2486282  
N    0.7342871    0.0007337   -2.1395014  
C   -1.4147739    0.0001352   -3.3608717  
C   -2.8576049   -0.0001048   -3.1854462  
O   -3.6427779   -0.0002494   -4.1244907  
C   -3.4275840   -0.0000725   -1.7311666  
O   -4.6406831    0.0000333   -1.5710060  
C   -2.4891867   -0.0001091   -0.6116744  
H   -2.8919122   -0.0002918    0.3920866  
H    2.1388272    0.0000663   -0.5261648  
H    1.3735872   -0.0006099   -2.9130262  
C    2.5528530    2.1414826    2.8079335  
C    2.0663498    1.7338582    4.0032312  
C    0.9804344    0.8229586    3.6752840  
C    0.9495562    0.7966882    2.1971295  
N    1.8690446    1.5676019    1.6831036  
C    0.0000000    0.0000000    1.4700000  
C   -0.8785127   -0.7372425    2.1869543  
O   -1.8187535   -1.5261249    1.6395491  
C   -0.8723269   -0.7321790    3.6796354  
O   -1.7010379   -1.4274584    4.2670412  
C    0.1115397    0.0933559    4.4024240  
H    2.4028853    2.0163452    4.9860947  
H   -2.2861435   -1.9184361    2.3990168  
H    0.0832434    0.0693689    5.4835595  
H    3.3664920    2.8238276    2.6198634  
