62

C    3.3003540    0.0005278   -1.4738998  
C    2.5232805    0.0003501   -2.6090759  
C    1.1623190   -0.0001315   -2.1820106  
C    1.1711880    0.0000584   -0.7636147  
N    2.4852300   -0.0014918   -0.3662366  
C    0.0000000    0.0000000    0.0000000  
C   -1.2020387    0.0000521   -0.6806476  
O   -2.3759253    0.0003495    0.0157752  
C   -1.2314666   -0.0005110   -2.0955505  
O   -2.5054395   -0.0008035   -2.6250174  
C   -0.0764524   -0.0007269   -2.8495195  
H    2.8919942   -0.0005615   -3.6205312  
H    2.8036265    0.0088181    0.5858650  
H   -3.0835639    0.0000348   -0.6418810  
H   -2.4360058   -0.0011523   -3.5845915  
C    2.3021892   -2.1255945   -5.9826743  
C    1.8095055   -1.6629736   -4.7844624  
C    0.7354722   -0.7756715   -5.0906435  
C    0.6180392   -0.7363227   -6.5036503  
N    1.5855117   -1.5656955   -7.0142922  
C   -0.3411063    0.0395991   -7.1615055  
C   -1.1974987    0.7892236   -6.3786688  
O   -2.1530504    1.5644639   -6.9693768  
C   -1.0957968    0.7634648   -4.9673540  
O   -2.0200026    1.5643300   -4.3287602  
C   -0.1496428   -0.0015607   -4.3176960  
H    2.1795055   -1.9311003   -3.8096800  
H    1.7382175   -1.7475803   -7.9897811  
H   -0.4356876    0.0740456   -8.2381064  
H   -2.6345098    1.9978459   -6.2526892  
H   -1.8829388    1.4894726   -3.3794373  
H    3.1090410   -2.8095397   -6.1830936  
C    4.7630502    0.0004759   -1.3275418  
C    5.7197922    0.0016007   -2.2912419  
C    6.9965546    0.0009195   -1.6169180  
C    6.7031139   -0.0007353   -0.1709996  
N    5.3315510   -0.0005300   -0.0628104  
C    7.6461197   -0.0021756    0.8049315  
C    9.0433298   -0.0018641    0.4045064  
O    9.9665691   -0.0030123    1.2082022  
C    9.3772069    0.0001314   -1.1213792  
O   10.5499547    0.0007170   -1.4705560  
C    8.2742405    0.0012909   -2.0791453  
H    5.5504499    0.0029561   -3.3532849  
H    7.4095543   -0.0035068    1.8598933  
H    8.5138913    0.0024653   -3.1337972  
H    4.8220251   -0.0029949    0.8017269  
C    0.8175213    0.6860729    2.3021913  
C    0.0000000    0.0000000    1.4700000  
C   -0.8887526   -0.7456559    2.3478473  
C   -0.4549825   -0.3816753    3.7138435  
N    0.5448156    0.4573574    3.6934124  
C   -1.0945674   -0.9182058    4.8835240  
C   -2.1210866   -1.7789155    4.6970523  
O   -2.8083856   -2.3554314    5.6976972  
C   -2.5824069   -2.1655116    3.3310774  
O   -3.5227682   -2.9541547    3.2362962  
C   -1.9100805   -1.6015804    2.1470656  
H   -0.7567140   -0.6349833    5.8697035  
H   -3.4728268   -2.9124471    5.2533954  
H   -2.2742832   -1.9066565    1.1752040  
H    1.6189533    1.3585343    2.0405121  
