62

C   -0.7827203    0.7995047   -0.8003800  
C    0.0000000    0.0000000    0.0000000  
C    0.7909478   -0.8103704   -0.8673531  
C    0.4447665   -0.4577874   -2.1969280  
N   -0.5147312    0.5210375   -2.1202235  
C    1.0305932   -1.0581498   -3.3154812  
C    1.9834614   -2.0319715   -3.0876861  
O    2.5874445   -2.6503120   -4.1440360  
C    2.3420398   -2.3977745   -1.7684335  
O    3.3056135   -3.3832350   -1.7073135  
C    1.7643242   -1.8061142   -0.6644821  
H   -0.9450243    0.9747444   -2.9057037  
H    3.2098347   -3.2866121   -3.7685143  
H    3.4901135   -3.5712384   -0.7819926  
H    2.0591545   -2.1072065    0.3339649  
H   -1.5119882    1.5453449   -0.5342062  
C    0.1632777    2.8632330   -5.2802153  
C    0.4767025    1.8831054   -4.3672080  
C    0.4503414    0.6396849   -5.0656423  
C    0.1122732    0.9262441   -6.4130547  
N   -0.0570451    2.2852276   -6.5085136  
C   -0.0043888   -0.0661524   -7.3909747  
C    0.2246924   -1.3715785   -7.0016647  
O    0.1245261   -2.3797331   -7.9163248  
C    0.5627125   -1.6775386   -5.6619078  
O    0.7594660   -3.0235236   -5.4317841  
C    0.6777125   -0.6990522   -4.6965761  
H    0.6961373    2.0443704   -3.3256539  
H   -0.2915034    2.7832978   -7.3481187  
H   -0.2618750    0.1456949   -8.4195771  
H    0.3202405   -3.1986158   -7.4426251  
H    0.9837612   -3.1438559   -4.5039827  
C    0.0469075    4.3181420   -5.1052927  
C    0.2241883    5.0623475   -3.9833279  
C   -0.0081563    6.4393303   -4.3504357  
C   -0.3377223    6.4363158   -5.7885481  
N   -0.2868926    5.1201554   -6.1860755  
C   -0.6240331    7.5468734   -6.5140775  
C   -0.6062020    8.8308397   -5.8331614  
O   -0.8501154    9.8884099   -6.3991579  
C   -0.2595160    8.8576521   -4.3103694  
O   -0.2411208    9.9328206   -3.7264723  
C    0.0311063    7.5946508   -3.6364123  
H    0.4878305    4.6892912   -3.0097080  
H   -0.8633575    7.5227535   -7.5681415  
H    0.2700332    7.6218221   -2.5819456  
H   -0.4667690    4.7924526   -7.1173668  
C    0.0000000    0.0000000    1.4700000  
C    1.0541688    0.0001722    2.3260392  
C    0.5103138    0.0000454    3.6635956  
C   -0.9576371   -0.0002459    3.5155732  
N   -1.2018458    0.0001392    2.1615969  
C   -1.8348311   -0.0008317    4.5510609  
C   -1.2972847   -0.0009736    5.9014604  
O   -2.0050672   -0.0014265    6.9001319  
C    0.2542623   -0.0004184    6.0817573  
O    0.7184670   -0.0002256    7.2139121  
C    1.0974552   -0.0000873    4.8889129  
H    2.0940752    0.0005483    2.0517982  
H   -2.9081052   -0.0011668    4.4207061  
H    2.1707277    0.0000911    5.0223670  
H   -2.1128194   -0.0014912    1.7406791  
