64

C    2.3020057   -2.1258166   -5.9826643  
C    1.8093620   -1.6631474   -4.7844546  
C    0.7354061   -0.7757530   -5.0906400  
C    0.6179773   -0.7364006   -6.5036468  
N    1.5853773   -1.5658598   -7.0142848  
C   -0.3411004    0.0396021   -7.1615064  
C   -1.1974273    0.7893049   -6.3786729  
O   -2.1529118    1.5646256   -6.9693851  
C   -1.0957283    0.7635435   -4.9673579  
O   -2.0198647    1.5644922   -4.3287681  
C   -0.1496415   -0.0015615   -4.3176961  
H    2.1793385   -1.9313019   -3.8096702  
H   -0.4356785    0.0740519   -8.2381070  
H   -2.6343336    1.9980531   -6.2526991  
H   -1.8828073    1.4896273   -3.3794446  
H    3.1087983   -2.8098331   -6.1830803  
C    2.1356820   -3.0559728   -8.9782516  
C    2.2840743   -2.9301130  -10.3400913  
C    2.0387642   -1.5621018  -10.6609781  
C    1.7433650   -0.8956868   -9.4441973  
N    1.8089419   -1.8321958   -8.4425652  
C    1.4497796    0.4698523   -9.3817534  
C    1.4547818    1.1755664  -10.5692386  
O    1.1752837    2.5115606  -10.5655385  
C    1.7467388    0.5283369  -11.7934423  
O    1.7115723    1.3674036  -12.8880076  
C    2.0361924   -0.8188271  -11.8558262  
H    2.5368314   -3.7265778  -11.0188774  
H    1.2236722    0.9836440   -8.4575811  
H    1.2316255    2.8048463  -11.4842739  
H    1.9198230    0.8519328  -13.6731980  
H    2.2557645   -1.2870670  -12.8082011  
H    2.2356560   -3.9221558   -8.3468313  
C    3.3003543    0.0005276   -1.4738987  
C    2.5232814    0.0003497   -2.6090747  
C    1.1623200   -0.0001320   -2.1820103  
C    1.1711883    0.0000582   -0.7636140  
N    2.4852300   -0.0014919   -0.3662360  
C    0.0000000    0.0000000    0.0000000  
C   -1.2020384    0.0000519   -0.6806477  
O   -2.3759249    0.0003493    0.0157743  
C   -1.2314656   -0.0005115   -2.0955510  
O   -2.5054392   -0.0008039   -2.6250180  
C   -0.0764516   -0.0007274   -2.8495195  
H    2.8919955   -0.0005620   -3.6205304  
H    2.8036267    0.0088183    0.5858662  
H   -3.0835638    0.0000347   -0.6418818  
H   -2.4360047   -0.0011529   -3.5845921  
H    4.3715549    0.0004895   -1.3667136  
C    0.8400945    0.7047457    2.2710304  
C    0.0000000    0.0000000    1.4700000  
C   -0.8844236   -0.7423113    2.3369512  
C   -0.4878984   -0.4098547    3.7186280  
N    0.5629682    0.4714286    3.6095011  
C   -1.0836927   -0.9095027    4.8308716  
C   -2.1891196   -1.8367527    4.6554461  
O   -2.7906899   -2.3413415    5.5944904  
C   -2.6257283   -2.2031529    3.2011665  
O   -3.5549479   -2.9829990    3.0410059  
C   -1.9068976   -1.5999348    2.0816745  
H   -0.7774656   -0.6525820    5.8354244  
H   -2.2155208   -1.8586617    1.0779135  
H    1.6384792    1.3747609    1.9961646  
H    1.0518368    0.8833920    4.3830260  
