58

C    3.2573674   -0.0002918   -1.5109377  
C    2.5379467   -0.0001707   -0.3591955  
C    1.1435041    0.0000334   -0.7338492  
C    1.1092607   -0.0000078   -2.2088471  
N    2.4227563    0.0001914   -2.6182602  
C   -0.0265529   -0.0002519   -2.9515657  
C   -1.3003036   -0.0002636   -2.2514976  
O   -2.3786783   -0.0004128   -2.8306423  
C   -1.2877729    0.0000314   -0.6895603  
O   -2.3539953    0.0003307   -0.0892034  
C    0.0000000    0.0000000    0.0000000  
H    2.9384089   -0.0000366    0.6389244  
H   -0.0296290   -0.0004080   -4.0327227  
H    4.3270394   -0.0004764   -1.6439434  
C    5.6729071   -2.0145375   -4.9077641  
C    4.8700832   -1.6312625   -3.8878850  
C    3.9127041   -0.7149582   -4.4881447  
C    4.2947940   -0.6590675   -5.9155434  
N    5.3258964   -1.4188900   -6.1675113  
C    3.5802908    0.1511099   -6.8632691  
C    2.5315064    0.8723550   -6.4058944  
O    1.7758673    1.6710695   -7.1786208  
C    2.1210488    0.8367662   -4.9711754  
O    1.1566751    1.5189644   -4.6250402  
C    2.8699643   -0.0020520   -4.0185819  
H    4.9211863   -1.9331395   -2.8557345  
H    1.1123787    2.0470800   -6.5723600  
H    6.5110723   -2.6922906   -4.8745382  
C    4.9422880   -3.0717022   -9.4605644  
C    5.1650511   -2.4226687  -10.6270605  
C    4.8273381   -1.0341556  -10.3541491  
C    4.4082993   -1.0242900   -8.9360896  
N    4.4736770   -2.2158237   -8.4069752  
C    3.9902788    0.1810336   -8.2746208  
C    3.9912189    1.3245895   -8.9968488  
O    3.6254417    2.5216095   -8.5075728  
C    4.4090123    1.3471235  -10.4297141  
O    4.3849992    2.4239129  -11.0256740  
C    4.8335621    0.0975788  -11.0857023  
H    5.5153726   -2.8351898  -11.5577457  
H    3.7314251    3.1377658   -9.2547489  
H    5.1288313    0.1561344  -12.1247479  
H    5.0744378   -4.1207742   -9.2485339  
C    2.4951002    2.0940188    2.9809380  
C    1.9440701    1.6314916    1.8291961  
C    0.8759964    0.7350050    2.2038498  
C    0.8497377    0.7130254    3.6788474  
N    1.8560616    1.5571714    4.0882609  
C   -0.0205033   -0.0168748    4.4215661  
C   -0.9962600   -0.8356168    3.7214979  
O   -1.8224391   -1.5286685    4.3006425  
C   -0.9864710   -0.8277881    2.1595606  
O   -1.8030528   -1.5133726    1.5592035  
C    0.0000000    0.0000000    1.4700000  
H    2.2509283    1.8888011    0.8310761  
H   -0.0229599   -0.0187323    5.5027230  
H    3.3143982    2.7817323    3.1139444  
H    2.0889452    1.7545833    5.0442112  
