60

C    3.3041273    0.0001179   -1.5420430  
C    2.5845371   -0.0004779   -0.3695859  
C    1.2040005   -0.0000007   -0.7283590  
C    1.1422373    0.0006038   -2.1454373  
N    2.4348640    0.0026111   -2.6077467  
C   -0.0655182    0.0008798   -2.8497918  
C   -1.2321770    0.0002324   -2.1101398  
O   -2.4392816    0.0001148   -2.7472518  
C   -1.1911211   -0.0000007   -0.6955265  
O   -2.4371525   -0.0002320   -0.1032864  
C    0.0000000    0.0000000    0.0000000  
H    3.0031536   -0.0000659    0.6222578  
H    2.7054629   -0.0071097   -3.5745262  
H   -3.1132988   -0.0000647   -2.0551787  
H   -2.3200281   -0.0004071    0.8516404  
H    4.3686621    0.0004072   -1.7024296  
C    2.2805262   -2.0884668   -5.9525543  
C    1.7869811   -1.6272474   -4.7745199  
C    0.7005263   -0.7318378   -5.0949771  
C    0.6008356   -0.7090651   -6.5668237  
N    1.5865173   -1.5517700   -7.0263552  
C   -0.3061620    0.0202024   -7.2648420  
C   -1.2468136    0.8373778   -6.5165548  
O   -2.1016165    1.5297582   -7.0534181  
C   -1.1592599    0.8286875   -4.9570470  
O   -1.9457422    1.5129527   -4.3163540  
C   -0.1387083    0.0017019   -4.3179684  
H    2.1434564   -1.8847454   -3.7930755  
H    3.0929929   -2.7751195   -6.1266129  
H    1.7717481   -1.7483671   -7.9928368  
C    0.0741131   -3.0546000  -10.4688121  
C    0.0345919   -2.4730477   -9.2474133  
C   -0.2288364   -1.0665809   -9.5100080  
C   -0.3221040   -0.9735176  -10.9828368  
N   -0.1454412   -2.1357333  -11.5503179  
C   -0.5782220    0.2722789  -11.6517769  
C   -0.7344634    1.3749116  -10.8842328  
O   -0.9780359    2.6022773  -11.3744241  
C   -0.6463338    1.3132846   -9.3954088  
O   -0.7987439    2.3565268   -8.7600842  
C   -0.3826909    0.0235458   -8.7328446  
H    0.1676665   -2.9407494   -8.2868806  
H   -0.6410714    0.3111736  -12.7294820  
H   -1.0392352    3.1753334  -10.5889211  
H    0.2461137   -4.0927181  -10.7048203  
C    2.5128556    2.1077716    2.9199648  
C    1.9592212    1.6432552    4.0696553  
C    0.8915788    0.7479214    3.6910360  
C    0.8684491    0.7287414    2.2159470  
N    1.8754542    1.5738793    1.8102719  
C    0.0000000    0.0000000    1.4700000  
C   -0.9772830   -0.8200135    2.1664417  
O   -1.8021297   -1.5120829    1.5842315  
C   -0.9711318   -0.8147624    3.7284083  
O   -1.7894187   -1.5009653    4.3257297  
C    0.0140216    0.0115358    4.4216297  
H    2.2638494    1.8988021    5.0689105  
H    0.0117648    0.0094386    5.5031631  
H    3.3327358    2.7953732    2.7900019  
H    2.1123206    1.7707734    0.8551938  
