58

C    8.7184388   -0.0009991   -0.3845226  
C    8.1039523    0.0007217    0.8264601  
C    9.1451204    0.0010905    1.8268618  
C   10.4257344   -0.0005392    1.0941854  
N   10.0977185   -0.0021544   -0.2419631  
C   11.6484391   -0.0003315    1.6829976  
C   11.7070579    0.0014017    3.1352710  
O   12.7600310    0.0016613    3.7594063  
C   10.3632205    0.0028933    3.9314515  
O   10.4000023    0.0040513    5.1545244  
C    9.1075286    0.0027903    3.1850668  
H    7.0424583    0.0014468    0.9992136  
H   12.5757367   -0.0014161    1.1270965  
H    8.1814933    0.0040337    3.7437985  
H   10.7585078   -0.0019416   -0.9972155  
C    4.5679461   -0.0016854   -2.0086701  
C    5.6049853   -0.0016931   -1.1391129  
C    6.7955420   -0.0024716   -1.9752194  
C    6.2781462   -0.0029781   -3.3604576  
N    4.9730339   -0.0024398   -3.3863778  
C    7.1539718   -0.0037578   -4.4997622  
C    8.4861199   -0.0036307   -4.2658482  
O    9.4181587   -0.0043052   -5.2340138  
C    9.0391358   -0.0027522   -2.8793659  
O   10.2622858   -0.0028087   -2.7410729  
C    8.1201341   -0.0020061   -1.7272553  
H    5.5667631   -0.0011377   -0.0631881  
H    6.7483985   -0.0043217   -5.5009716  
H   10.2688728   -0.0039787   -4.7592102  
C    3.1301149   -0.0010311   -1.7028252  
C    2.5367768   -0.0002767   -0.4864665  
C    1.1089904    0.0001028   -0.7656183  
C    1.0177872   -0.0004148   -2.2415132  
N    2.1993578   -0.0011611   -2.7963820  
C   -0.2459209   -0.0002877   -2.9257118  
C   -1.3675319   -0.0000605   -2.1698524  
O   -2.6129313    0.0000867   -2.6748490  
C   -1.3083584    0.0000910   -0.6783232  
O   -2.3693261    0.0004206   -0.0541692  
C    0.0000000    0.0000000    0.0000000  
H    3.0096017   -0.0001007    0.4807525  
H   -0.2829630   -0.0004687   -4.0053125  
H   -3.1967441    0.0002094   -1.8949034  
C    0.8400945    0.7047457    2.2710304  
C    0.0000000    0.0000000    1.4700000  
C   -0.8844236   -0.7423113    2.3369512  
C   -0.4878984   -0.4098547    3.7186280  
N    0.5629682    0.4714286    3.6095011  
C   -1.0836927   -0.9095027    4.8308716  
C   -2.1891196   -1.8367527    4.6554461  
O   -2.7906899   -2.3413415    5.5944904  
C   -2.6257283   -2.2031529    3.2011665  
O   -3.5549479   -2.9829990    3.0410059  
C   -1.9068976   -1.5999348    2.0816745  
H   -0.7774656   -0.6525820    5.8354244  
H   -2.2155208   -1.8586617    1.0779135  
H    1.6384792    1.3747609    1.9961646  
H    1.0518368    0.8833920    4.3830260  
