58

C    6.5739137    0.0018721   -4.3537915  
C    7.6280829    0.0019470   -3.4977528  
C    7.0842286    0.0017737   -2.1601960  
C    5.6162776    0.0015611   -2.3082178  
N    5.3720684    0.0020316   -3.6621941  
C    4.7390840    0.0009613   -1.2727298  
C    5.2766310    0.0007201    0.0776699  
O    4.5688490    0.0002470    1.0763413  
C    6.8281778    0.0011907    0.2579657  
O    7.2923831    0.0012996    1.3901206  
C    7.6713704    0.0015461   -0.9348787  
H    8.6679891    0.0022879   -3.7719937  
H    8.7446421    0.0016655   -0.8014251  
H    4.4610946    0.0004680   -4.0831113  
C    9.8312782    0.0049241   -7.3347303  
C    9.1118581    0.0042797   -6.1829884  
C    7.7174169    0.0031420   -6.5576416  
C    7.6831729    0.0031474   -8.0326393  
N    8.9966672    0.0046518   -8.4420536  
C    6.5473588    0.0018342   -8.7753568  
C    5.2736098    0.0005402   -8.0752891  
O    4.1952349   -0.0006309   -8.6544333  
C    5.2861409    0.0007627   -6.5133519  
O    4.2199183   -0.0000119   -5.9129941  
C    6.5739134    0.0019520   -5.8237915  
H    9.5123206    0.0047509   -5.1848691  
H    6.5442828    0.0017338   -9.8565147  
H   10.9009505    0.0057917   -7.4677375  
H    9.3019615    0.0034705   -9.3980043  
C    3.2798077    0.0005856   -1.4499661  
C    2.5571132    0.0005565   -2.5996564  
C    1.1637425    0.0001547   -2.2210366  
C    1.1336959   -0.0000200   -0.7459475  
N    2.4483509   -0.0001429   -0.3402730  
C    0.0000000    0.0000000    0.0000000  
C   -1.2757370   -0.0000187   -0.6964411  
O   -2.3524597   -0.0000640   -0.1142306  
C   -1.2676502   -0.0000874   -2.2584078  
O   -2.3355774   -0.0004102   -2.8557287  
C    0.0181551    0.0001758   -2.9516297  
H    2.9547342    0.0006074   -3.5989118  
H    0.0150776    0.0003317   -4.0331632  
H    2.7563626    0.0012823    0.6148051  
C    0.0000000    0.0000000    1.4700000  
C    1.0541688    0.0001722    2.3260392  
C    0.5103138    0.0000454    3.6635956  
C   -0.9576371   -0.0002459    3.5155732  
N   -1.2018458    0.0001392    2.1615969  
C   -1.8348311   -0.0008317    4.5510609  
C   -1.2972847   -0.0009736    5.9014604  
O   -2.0050672   -0.0014265    6.9001319  
C    0.2542623   -0.0004184    6.0817573  
O    0.7184670   -0.0002256    7.2139121  
C    1.0974552   -0.0000873    4.8889129  
H    2.0940752    0.0005483    2.0517982  
H   -2.9081052   -0.0011668    4.4207061  
H    2.1707277    0.0000911    5.0223670  
H   -2.1128194   -0.0014912    1.7406791  
