62

C   -3.3041217    0.0051088   -1.5420451  
C   -2.5845325    0.0045662   -0.3695870  
C   -1.2039985    0.0019052   -0.7283598  
C   -1.1422349    0.0012031   -2.1454380  
N   -2.4348624    0.0012406   -2.6077480  
C    0.0655197   -0.0009835   -2.8497916  
C    1.2321764   -0.0021816   -2.1101391  
O    2.4392806   -0.0039733   -2.7472503  
C    1.1911205   -0.0018834   -0.6955255  
O    2.4371509   -0.0036231   -0.1032844  
C    0.0000000    0.0000000    0.0000000  
H   -3.0031496    0.0048165    0.6222562  
H   -2.7054453    0.0113894   -3.5745279  
H    0.1193554   -0.0016733   -3.9297471  
H    3.1132970   -0.0048599   -2.0551764  
H    2.3200262   -0.0032628    0.8516425  
C   -4.7577148    0.0070129   -1.7610490  
C   -5.7406963    0.0099224   -0.8308242  
C   -6.9792855    0.0106665   -1.5939733  
C   -6.5459583    0.0079798   -3.0077640  
N   -5.2447563    0.0057500   -3.1119615  
C   -7.4885808    0.0077724   -4.0924525  
C   -8.8042887    0.0097526   -3.7790131  
O   -9.7927519    0.0098246   -4.6894975  
C   -9.2730965    0.0121144   -2.3618418  
O  -10.4857415    0.0139654   -2.1503922  
C   -8.2866077    0.0123244   -1.2669615  
H   -5.6379708    0.0112929    0.2408672  
H  -10.6134361    0.0114409   -4.1644952  
H   -8.6668032    0.0139510   -0.2542038  
C   -4.1311116   -2.1228574   -6.1363406  
C   -5.0274990   -1.6584212   -5.2018589  
C   -5.9138561   -0.7704654   -5.8804645  
C   -5.5060225   -0.7326067   -7.2384647  
N   -4.4198553   -1.5634586   -7.3590627  
C   -6.1569123    0.0434638   -8.2022311  
C   -7.2394121    0.7947721   -7.7876129  
O   -7.9115305    1.5702337   -8.6875735  
C   -7.6612488    0.7705160   -6.4369527  
O   -8.7540090    1.5729650   -6.1814247  
C   -7.0194360    0.0053448   -5.4855776  
H   -5.0402151   -1.9257890   -4.1590999  
H   -3.9210067   -1.7465899   -8.2108809  
H   -5.8509216    0.0767796   -9.2387934  
H   -8.6213019    2.0048751   -8.1970883  
H   -8.9739406    1.4990546   -5.2477379  
H   -3.3077599   -2.8077810   -6.0271140  
C    0.0000000    0.0000000    1.4700000  
C    1.0541688    0.0001722    2.3260392  
C    0.5103138    0.0000454    3.6635956  
C   -0.9576371   -0.0002459    3.5155732  
N   -1.2018458    0.0001392    2.1615969  
C   -1.8348311   -0.0008317    4.5510609  
C   -1.2972847   -0.0009736    5.9014604  
O   -2.0050672   -0.0014265    6.9001319  
C    0.2542623   -0.0004184    6.0817573  
O    0.7184670   -0.0002256    7.2139121  
C    1.0974552   -0.0000873    4.8889129  
H    2.0940752    0.0005483    2.0517982  
H   -2.9081052   -0.0011668    4.4207061  
H    2.1707277    0.0000911    5.0223670  
H   -2.1128194   -0.0014912    1.7406791  
