58

C   -0.0307357   -0.0004648   -4.4215605  
C    1.0209936   -0.0006525   -5.2805953  
C    0.4733354   -0.0007748   -6.6165992  
C   -0.9941884   -0.0006127   -6.4644009  
N   -1.2345441   -0.0008272   -5.1097354  
C   -1.8743250   -0.0002665   -7.4973890  
C   -1.3406225   -0.0002646   -8.8493125  
O   -2.0512434   -0.0000286   -9.8459665  
C    0.2104050   -0.0006867   -9.0340228  
O    0.6713870   -0.0009954  -10.1674933  
C    1.0569883   -0.0007589   -7.8435821  
H    2.0616756   -0.0008823   -5.0093139  
H    2.1298764   -0.0008465   -7.9800891  
H   -2.1443168    0.0007705   -4.6862276  
C    3.2573671   -0.0002921   -1.5109385  
C    2.5379468   -0.0001709   -0.3591966  
C    1.1435043    0.0000332   -0.7338505  
C    1.1092606   -0.0000083   -2.2088481  
N    2.4227561    0.0001908   -2.6182617  
C   -0.0265535   -0.0002524   -2.9515665  
C   -1.3003038   -0.0002640   -2.2514985  
O   -2.3786788   -0.0004132   -2.8306428  
C   -1.2877726    0.0000312   -0.6895607  
O   -2.3539957    0.0003306   -0.0892034  
C    0.0000000    0.0000000    0.0000000  
H    2.9384092   -0.0000368    0.6389229  
H    4.3270393   -0.0004765   -1.6439450  
H    2.7280488   -0.0013408   -3.5742119  
C   -4.0241682    0.7048743   -6.3834075  
C   -3.3330910    0.0000650   -7.3160013  
C   -4.3027273   -0.7419276   -8.0867719  
C   -5.6248368   -0.4092147   -7.5227518  
N   -5.3866618    0.4718976   -6.4932838  
C   -6.8022177   -0.9085288   -7.9768045  
C   -6.7647582   -1.8356643   -9.0955321  
O   -7.7709774   -2.3399576   -9.5766892  
C   -5.3755549   -2.2023317   -9.7082932  
O   -5.3314653   -2.9820846  -10.6502600  
C   -4.1757743   -1.5994662   -9.1330263  
H   -7.7612455   -0.6514242   -7.5489348  
H   -3.2178284   -1.8583764   -9.5631768  
H   -3.6527264    1.3747162   -5.6249667  
H   -6.0938534    0.8839673   -5.9126580  
C    0.0000000    0.0000000    1.4700000  
C    1.0662921    0.0000102    2.3034270  
C    0.4961870   -0.0000064    3.6418889  
C   -0.9663858    0.0000850    3.4240247  
N   -1.2632773    0.0000084    2.1528658  
C   -1.8985362    0.0000517    4.5177257  
C   -1.3925775   -0.0004564    5.7720543  
O   -2.1456383   -0.0005410    6.8851312  
C    0.0786232   -0.0009323    6.0245000  
O    0.4683759   -0.0012588    7.1921102  
C    1.0143166   -0.0008442    4.8859032  
H    2.1107198   -0.0000632    2.0421868  
H   -2.9622183    0.0003270    4.3293377  
H   -1.5042274   -0.0009692    7.6184419  
H    2.0724152   -0.0013148    5.1109744  
