62

C    3.3041269    0.0001180   -1.5420440  
C    2.5845369   -0.0004778   -0.3695863  
C    1.2040001   -0.0000004   -0.7283596  
C    1.1422367    0.0006041   -2.1454377  
N    2.4348632    0.0026118   -2.6077472  
C   -0.0655191    0.0008805   -2.8497920  
C   -1.2321774    0.0002330   -2.1101397  
O   -2.4392828    0.0001156   -2.7472515  
C   -1.1911212   -0.0000004   -0.6955259  
O   -2.4371524   -0.0002317   -0.1032858  
C    0.0000000    0.0000000    0.0000000  
H    3.0031536   -0.0000660    0.6222569  
H    2.7054620   -0.0071092   -3.5745270  
H   -3.1132995   -0.0000643   -2.0551781  
H   -2.3200275   -0.0004071    0.8516414  
H    4.3686615    0.0004074   -1.7024307  
C    2.3129701   -2.1206335   -5.9853346  
C    1.8203197   -1.6593250   -4.7866029  
C    0.7463499   -0.7716021   -5.0917862  
C    0.6289197   -0.7306562   -6.5047477  
N    1.5963326   -1.5595237   -7.0163222  
C   -0.3301700    0.0460735   -7.1617302  
C   -1.1865083    0.7948790   -6.3780511  
O   -2.1420048    1.5708512   -6.9678864  
C   -1.0848083    0.7675257   -4.9667656  
O   -2.0089569    1.5677390   -4.3272717  
C   -0.1387095    0.0017026   -4.3179683  
H    2.1903004   -1.9285739   -3.8121224  
H    1.7490254   -1.7403223   -7.9920158  
H   -0.4247493    0.0817375   -8.2382915  
H   -2.6234336    2.0034617   -6.2507119  
H   -1.8718982    1.4918044   -3.3780339  
C    5.1981389   -4.4415824   -3.5047222  
C    4.1907459   -3.6106267   -3.8600399  
C    4.1684700   -3.6485537   -5.3141947  
C    5.2594216   -4.5774898   -5.6795526  
N    5.8665457   -5.0455926   -4.6230158  
C    5.5671690   -4.8888620   -7.0482840  
C    4.8188142   -4.2993375   -8.0083677  
O    4.9952462   -4.4986567   -9.3256319  
C    3.7107126   -3.3576317   -7.6715276  
O    3.0709703   -2.8575902   -8.5966810  
C    3.4146383   -3.0543135   -6.2600520  
H    3.5427300   -3.0422167   -3.2150117  
H    6.3701303   -5.5711071   -7.2864095  
H    4.3160558   -3.9463031   -9.7531356  
H    5.5371757   -4.6872157   -2.5108951  
C    2.5128556    2.1077716    2.9199648  
C    1.9592212    1.6432552    4.0696553  
C    0.8915788    0.7479214    3.6910360  
C    0.8684491    0.7287414    2.2159470  
N    1.8754542    1.5738793    1.8102719  
C    0.0000000    0.0000000    1.4700000  
C   -0.9772830   -0.8200135    2.1664417  
O   -1.8021297   -1.5120829    1.5842315  
C   -0.9711318   -0.8147624    3.7284083  
O   -1.7894187   -1.5009653    4.3257297  
C    0.0140216    0.0115358    4.4216297  
H    2.2638494    1.8988021    5.0689105  
H    0.0117648    0.0094386    5.5031631  
H    3.3327358    2.7953732    2.7900019  
H    2.1123206    1.7707734    0.8551938  
