58

C    0.1987933   -1.1233880   -9.6531648  
C    0.0298374   -0.0618533   -8.8233015  
C   -0.1973929    1.0936568   -9.6587638  
C   -0.1466346    0.6148591  -11.0533845  
N    0.0971142   -0.7372674  -10.9810626  
C   -0.3152931    1.4045903  -12.1440648  
C   -0.5631446    2.8206873  -11.9301167  
O   -0.7280402    3.6140969  -12.8475106  
C   -0.6207633    3.3496210  -10.4615403  
O   -0.8284809    4.5400179  -10.2690066  
C   -0.4239762    2.4014053   -9.3679169  
H   -0.2743919    1.0333172  -13.1586551  
H   -0.4655792    2.7756175   -8.3540345  
H    0.3892451   -2.1552398   -9.4063880  
H    0.1853271   -1.3496507  -11.7711587  
C    2.5185220   -2.1418782   -5.7664424  
C    2.0285782   -1.7344766   -6.9604095  
C    0.9435063   -0.8236411   -6.6295061  
C    0.9168306   -0.7971604   -5.1512739  
N    1.8378571   -1.5679055   -4.6397540  
C   -0.0307352   -0.0004646   -4.4215603  
C   -0.9113598    0.7365842   -5.1361191  
O   -1.8501208    1.5254492   -4.5861545  
C   -0.9094201    0.7313057   -6.6288110  
O   -1.7398704    1.4264151   -7.2139569  
C    0.0724715   -0.0942327   -7.3542764  
H    2.3623455   -2.0170710   -7.9441861  
H   -2.3197100    1.9176027   -5.3443463  
H    3.3327631   -2.8241128   -5.5805892  
C    3.2573670   -0.0002920   -1.5109380  
C    2.5379468   -0.0001709   -0.3591961  
C    1.1435043    0.0000332   -0.7338500  
C    1.1092609   -0.0000082   -2.2088477  
N    2.4227562    0.0001909   -2.6182613  
C   -0.0265532   -0.0002522   -2.9515663  
C   -1.3003035   -0.0002639   -2.2514981  
O   -2.3786784   -0.0004131   -2.8306429  
C   -1.2877725    0.0000312   -0.6895608  
O   -2.3539958    0.0003307   -0.0892036  
C    0.0000000    0.0000000    0.0000000  
H    2.9384091   -0.0000369    0.6389239  
H    4.3270394   -0.0004765   -1.6439446  
H    2.7280494   -0.0013406   -3.5742113  
C    0.0000000    0.0000000    1.4700000  
C    1.0662921    0.0000102    2.3034270  
C    0.4961870   -0.0000064    3.6418889  
C   -0.9663858    0.0000850    3.4240247  
N   -1.2632773    0.0000084    2.1528658  
C   -1.8985362    0.0000517    4.5177257  
C   -1.3925775   -0.0004564    5.7720543  
O   -2.1456383   -0.0005410    6.8851312  
C    0.0786232   -0.0009323    6.0245000  
O    0.4683759   -0.0012588    7.1921102  
C    1.0143166   -0.0008442    4.8859032  
H    2.1107198   -0.0000632    2.0421868  
H   -2.9622183    0.0003270    4.3293377  
H   -1.5042274   -0.0009692    7.6184419  
H    2.0724152   -0.0013148    5.1109744  
