58

C    3.2573672   -0.0002920   -1.5109380  
C    2.5379470   -0.0001710   -0.3591959  
C    1.1435044    0.0000331   -0.7338498  
C    1.1092609   -0.0000083   -2.2088475  
N    2.4227564    0.0001909   -2.6182609  
C   -0.0265532   -0.0002524   -2.9515660  
C   -1.3003037   -0.0002640   -2.2514978  
O   -2.3786783   -0.0004133   -2.8306423  
C   -1.2877723    0.0000311   -0.6895608  
O   -2.3539957    0.0003306   -0.0892035  
C    0.0000000    0.0000000    0.0000000  
H    2.9384091   -0.0000368    0.6389235  
H    2.7280494   -0.0013407   -3.5742112  
C    6.6174609    0.0016339    1.3537082  
C    5.3857491    0.0013495    0.7819026  
C    5.5854753    0.0003216   -0.6481124  
C    7.0449755   -0.0000008   -0.8640984  
N    7.6133367    0.0012282    0.3888398  
C    7.6418663   -0.0013232   -2.0828783  
C    6.7899767   -0.0022819   -3.2605105  
O    7.2316313   -0.0034333   -4.4021063  
C    5.2415223   -0.0017089   -3.0553434  
O    4.5141883   -0.0021996   -4.0393383  
C    4.7161333   -0.0005436   -1.6923256  
H    4.4446717    0.0019900    1.3024652  
H    8.7143818   -0.0016670   -2.2193376  
H    6.8814410    0.0023224    2.3987939  
H    8.5996527   -0.0002112    0.5738435  
C    0.8071496   -0.7052399   -5.2248757  
C   -0.0307352   -0.0004647   -4.4215603  
C   -0.9176981    0.7416306   -5.2860987  
C   -0.5250710    0.4090151   -6.6688499  
N    0.5261926   -0.4721446   -6.5625859  
C   -1.1240785    0.9084413   -7.7794661  
C   -2.2290974    1.8356032   -7.6010301  
O   -2.8333889    2.3399945   -8.5384316  
C   -2.6616049    2.2021686   -6.1455668  
O   -3.5904453    2.9819425   -5.9828762  
C   -1.9395300    1.5991861   -5.0280378  
H   -0.8206842    0.6514069   -8.7848490  
H   -2.2453231    1.8580262   -4.0234399  
H    1.6063822   -1.3751334   -4.9521855  
H    1.0129011   -0.8841695   -7.3374394  
C    0.8400945    0.7047457    2.2710304  
C    0.0000000    0.0000000    1.4700000  
C   -0.8844236   -0.7423113    2.3369512  
C   -0.4878984   -0.4098547    3.7186280  
N    0.5629682    0.4714286    3.6095011  
C   -1.0836927   -0.9095027    4.8308716  
C   -2.1891196   -1.8367527    4.6554461  
O   -2.7906899   -2.3413415    5.5944904  
C   -2.6257283   -2.2031529    3.2011665  
O   -3.5549479   -2.9829990    3.0410059  
C   -1.9068976   -1.5999348    2.0816745  
H   -0.7774656   -0.6525820    5.8354244  
H   -2.2155208   -1.8586617    1.0779135  
H    1.6384792    1.3747609    1.9961646  
H    1.0518368    0.8833920    4.3830260  
