58

C    4.0431454   -3.7039198   -6.5659317  
C    3.3259257   -3.0728570   -5.6008252  
C    3.8703107   -3.4909597   -4.3305218  
C    4.9713893   -4.4240021   -4.6368687  
N    5.0240247   -4.5103968   -6.0089681  
C    5.7397514   -5.0397110   -3.7029385  
C    5.4637214   -4.7652845   -2.3025696  
O    6.0996672   -5.2705866   -1.3868484  
C    4.3021173   -3.7805379   -1.9550731  
O    4.0602144   -3.5420266   -0.7795495  
C    3.5443343   -3.1782421   -3.0490827  
H    6.5427013   -5.7206487   -3.9489167  
H    2.7417906   -2.4973472   -2.8000281  
H    3.9375222   -3.6478424   -7.6371875  
H    5.6760140   -5.0711907   -6.5261406  
C    2.2088371   -2.1426203   -5.8191641  
C    1.6816905   -1.7351237   -6.9971466  
C    0.6077895   -0.8240074   -6.6323121  
C    0.6276204   -0.7974852   -5.1539729  
N    1.5640842   -1.5684497   -4.6716465  
C   -0.2963293   -0.0005341   -4.3948471  
C   -1.1988050    0.7367192   -5.0813820  
O   -2.1196091    1.5258333   -4.5021932  
C   -1.2438091    0.7314050   -6.5733964  
O   -2.0920757    1.4267093   -7.1321594  
C   -0.2854243   -0.0943970   -7.3293552  
H    1.9842845   -2.0178252   -7.9909238  
H   -2.6127110    1.9180870   -5.2452546  
H   -0.3507734   -0.0705869   -8.4088885  
C    3.1301146   -0.0010313   -1.7028256  
C    2.5367765   -0.0002766   -0.4864669  
C    1.1089901    0.0001027   -0.7656184  
C    1.0177865   -0.0004150   -2.2415133  
N    2.1993571   -0.0011612   -2.7963824  
C   -0.2459219   -0.0002879   -2.9257116  
C   -1.3675326   -0.0000606   -2.1698520  
O   -2.6129318    0.0000865   -2.6748483  
C   -1.3083588    0.0000910   -0.6783229  
O   -2.3693264    0.0004206   -0.0541685  
C    0.0000000    0.0000000    0.0000000  
H    3.0096016   -0.0001007    0.4807518  
H   -3.1967444    0.0002093   -1.8949026  
H    4.1849275   -0.0015114   -1.9271979  
C    2.5128556    2.1077716    2.9199648  
C    1.9592212    1.6432552    4.0696553  
C    0.8915788    0.7479214    3.6910360  
C    0.8684491    0.7287414    2.2159470  
N    1.8754542    1.5738793    1.8102719  
C    0.0000000    0.0000000    1.4700000  
C   -0.9772830   -0.8200135    2.1664417  
O   -1.8021297   -1.5120829    1.5842315  
C   -0.9711318   -0.8147624    3.7284083  
O   -1.7894187   -1.5009653    4.3257297  
C    0.0140216    0.0115358    4.4216297  
H    2.2638494    1.8988021    5.0689105  
H    0.0117648    0.0094386    5.5031631  
H    3.3327358    2.7953732    2.7900019  
H    2.1123206    1.7707734    0.8551938  
