58

C    4.5679461   -0.0016852   -2.0086700  
C    5.6245802   -0.0018693   -1.1556757  
C    6.8197125   -0.0025282   -1.9659182  
C    6.3695110   -0.0026849   -3.3709480  
N    4.9943550   -0.0025530   -3.3281072  
C    7.1998313   -0.0028670   -4.4443874  
C    8.6325204   -0.0031378   -4.1995657  
O    9.4620779   -0.0033772   -5.0996406  
C    9.1316824   -0.0032301   -2.7194838  
O   10.3356443   -0.0037643   -2.5009911  
C    8.1403752   -0.0027352   -1.6465626  
H    5.5727014   -0.0017593   -0.0814685  
H    6.8490263   -0.0028497   -5.4670534  
H    8.4942126   -0.0025972   -0.6245434  
H    4.3931137   -0.0010542   -4.1315709  
C    3.1301152   -0.0010311   -1.7028251  
C    2.5367770   -0.0002766   -0.4864665  
C    1.1089905    0.0001028   -0.7656183  
C    1.0177873   -0.0004148   -2.2415130  
N    2.1993580   -0.0011610   -2.7963820  
C   -0.2459208   -0.0002877   -2.9257119  
C   -1.3675318   -0.0000605   -2.1698523  
O   -2.6129310    0.0000866   -2.6748492  
C   -1.3083584    0.0000911   -0.6783232  
O   -2.3693259    0.0004206   -0.0541692  
C    0.0000000    0.0000000    0.0000000  
H    3.0096019   -0.0001007    0.4807529  
H   -3.1967440    0.0002093   -1.8949035  
C    2.1451943   -2.0951768   -5.9900942  
C    1.6340483   -1.6323749   -4.8202142  
C    0.5538838   -0.7357922   -5.1581773  
C    0.4770650   -0.7140557   -6.6314107  
N    1.4686372   -1.5584200   -7.0749457  
C   -0.4180283    0.0158496   -7.3439773  
C   -1.3690882    0.8348540   -6.6110029  
O   -2.2145416    1.5279316   -7.1615961  
C   -1.3057461    0.8272855   -5.0503185  
O   -2.1011630    1.5130919   -4.4224316  
C   -0.2963281   -0.0005339   -4.3948471  
H    1.9749157   -1.8895629   -3.8331593  
H   -0.4575568    0.0175264   -8.4244148  
H    2.9593513   -2.7830346   -6.1509982  
H    1.6685753   -1.7560267   -8.0382854  
C    2.5528530    2.1414826    2.8079335  
C    2.0663498    1.7338582    4.0032312  
C    0.9804344    0.8229586    3.6752840  
C    0.9495562    0.7966882    2.1971295  
N    1.8690446    1.5676019    1.6831036  
C    0.0000000    0.0000000    1.4700000  
C   -0.8785127   -0.7372425    2.1869543  
O   -1.8187535   -1.5261249    1.6395491  
C   -0.8723269   -0.7321790    3.6796354  
O   -1.7010379   -1.4274584    4.2670412  
C    0.1115397    0.0933559    4.4024240  
H    2.4028853    2.0163452    4.9860947  
H   -2.2861435   -1.9184361    2.3990168  
H    0.0832434    0.0693689    5.4835595  
H    3.3664920    2.8238276    2.6198634  
