62

C   -1.1160430    0.1367147   -0.7919006  
C   -0.7440838    0.0742130   -2.1148547  
C    0.6698844   -0.1117602   -2.1414702  
C    1.1093231   -0.1558529   -0.7935554  
N    0.0000000    0.0000000    0.0000000  
C    2.4511324   -0.3288224   -0.4408241  
C    3.3659559   -0.4599683   -1.4675061  
O    4.6890413   -0.6315000   -1.1793474  
C    2.9469908   -0.4182284   -2.8186328  
O    3.9771956   -0.5629708   -3.7247626  
C    1.6234638   -0.2473479   -3.1673483  
H   -1.4098189    0.1540686   -2.9571210  
H    2.7925060   -0.3631511    0.5845968  
H    5.1465185   -0.7002053   -2.0274390  
H    3.6090395   -0.5233399   -4.6127350  
H   -2.0889494    0.2694317   -0.3505409  
C    1.2288445   -0.2092078   -4.5828767  
C   -0.0070474   -0.0516108   -5.1230711  
C    0.1529330   -0.0867917   -6.5576456  
C    1.5936622   -0.2792115   -6.8107562  
N    2.1902611   -0.3452836   -5.5727767  
C    2.1528152   -0.3654413   -8.0442944  
C    1.2772431   -0.2615951   -9.1997699  
O    1.6846084   -0.3269184  -10.3521964  
C   -0.2519008   -0.0573537   -8.9552088  
O   -0.9988437    0.0317544   -9.9202978  
C   -0.7363940    0.0201797   -7.5793066  
H   -0.9258782    0.0750329   -4.5787134  
H    3.2121115   -0.5068219   -8.2080421  
H    3.1724876   -0.4746693   -5.4129719  
C   -2.9690955    2.4829476   -4.6623394  
C   -4.2355629    2.1420010   -5.0774091  
C   -4.0862087    1.2294469   -6.1634746  
C   -2.6941122    1.0495698   -6.3675271  
N   -2.0446033    1.8264145   -5.4405598  
C   -2.1773202    0.2122386   -7.3607999  
C   -3.0823293   -0.4559100   -8.1624941  
O   -2.6319357   -1.2864341   -9.1475776  
C   -4.4750680   -0.2891515   -7.9746434  
O   -5.2461176   -1.0220929   -8.8530647  
C   -4.9856042    0.5369429   -6.9951299  
H   -5.1540597    2.5070621   -4.6506918  
H   -1.0483838    1.8946502   -5.3362917  
H   -3.4165899   -1.6459360   -9.5815606  
H   -6.1729743   -0.8527257   -8.6584995  
H   -6.0572590    0.6448481   -6.8751648  
H   -2.6520932    3.1436089   -3.8736729  
C    2.5128556    2.1077716    2.9199648  
C    1.9592212    1.6432552    4.0696553  
C    0.8915788    0.7479214    3.6910360  
C    0.8684491    0.7287414    2.2159470  
N    1.8754542    1.5738793    1.8102719  
C    0.0000000    0.0000000    1.4700000  
C   -0.9772830   -0.8200135    2.1664417  
O   -1.8021297   -1.5120829    1.5842315  
C   -0.9711318   -0.8147624    3.7284083  
O   -1.7894187   -1.5009653    4.3257297  
C    0.0140216    0.0115358    4.4216297  
H    2.2638494    1.8988021    5.0689105  
H    0.0117648    0.0094386    5.5031631  
H    3.3327358    2.7953732    2.7900019  
H    2.1123206    1.7707734    0.8551938  
