62

C    3.3003552    0.0005277   -1.4738975  
C    2.5232823    0.0003499   -2.6090738  
C    1.1623209   -0.0001317   -2.1820098  
C    1.1711889    0.0000585   -0.7636139  
N    2.4852303   -0.0014919   -0.3662348  
C    0.0000000    0.0000000    0.0000000  
C   -1.2020380    0.0000521   -0.6806489  
O   -2.3759250    0.0003494    0.0157737  
C   -1.2314649   -0.0005110   -2.0955512  
O   -2.5054378   -0.0008035   -2.6250191  
C   -0.0764505   -0.0007270   -2.8495197  
H    2.8036265    0.0088180    0.5858674  
H   -3.0835637    0.0000348   -0.6418826  
H   -2.4360035   -0.0011524   -3.5845931  
H   -0.1304079   -0.0013417   -3.9319086  
H    4.3715557    0.0004894   -1.3667119  
C    5.9339406   -2.1239628   -4.5697786  
C    5.0139160   -1.6613190   -3.6576479  
C    4.1430878   -0.7747004   -4.3577668  
C    4.5843202   -0.7357737   -5.7052550  
N    5.6745662   -1.5647286   -5.7991402  
C    3.9561325    0.0394410   -6.6846482  
C    2.8624174    0.7887790   -6.2967603  
O    2.2114302    1.5633307   -7.2128923  
C    2.4073436    0.7634327   -4.9569529  
O    1.3072178    1.5639368   -4.7283487  
C    3.0267451   -0.0008949   -3.9901692  
H    4.9758723   -1.9289913   -2.6155839  
H    6.1946456   -1.7467726   -6.6384015  
H    1.4889968    1.9966214   -6.7400143  
H    1.0643876    1.4893958   -3.8004040  
H    6.7555171   -2.8075029   -4.4403766  
C    5.4794891   -2.9408038   -9.6277706  
C    5.0027389   -2.3951820   -8.4847106  
C    4.8370264   -0.9812938   -8.7846420  
C    5.2729118   -0.8450611  -10.1910661  
N    5.6505604   -1.9904062  -10.6906223  
C    5.2600511    0.4201039  -10.8724458  
C    4.8308703    1.5000120  -10.1803935  
O    4.7663201    2.7415084  -10.6908456  
C    4.3842043    1.3947410   -8.7599819  
O    4.0061824    2.4191472   -8.1917286  
C    4.4067695    0.0858293   -8.0831023  
H    4.7897307   -2.8909567   -7.5530928  
H    5.5843114    0.4905922  -11.9004525  
H    4.4244427    3.2914182   -9.9629220  
H    5.7337300   -3.9717957   -9.8158941  
C    2.4951002    2.0940188    2.9809380  
C    1.9440701    1.6314916    1.8291961  
C    0.8759964    0.7350050    2.2038498  
C    0.8497377    0.7130254    3.6788474  
N    1.8560616    1.5571714    4.0882609  
C   -0.0205033   -0.0168748    4.4215661  
C   -0.9962600   -0.8356168    3.7214979  
O   -1.8224391   -1.5286685    4.3006425  
C   -0.9864710   -0.8277881    2.1595606  
O   -1.8030528   -1.5133726    1.5592035  
C    0.0000000    0.0000000    1.4700000  
H    2.2509283    1.8888011    0.8310761  
H   -0.0229599   -0.0187323    5.5027230  
H    3.3143982    2.7817323    3.1139444  
H    2.0889452    1.7545833    5.0442112  
