58

C    0.9360397   -0.7247808   -5.2319384  
C    0.6354724   -0.5080892   -6.5383762  
C   -0.4721188    0.4177752   -6.5675797  
C   -0.7944792    0.7249464   -5.1609813  
N    0.0950450    0.0004357   -4.4015596  
C   -1.7844976    1.5643000   -4.7646820  
C   -2.5861939    2.2079509   -5.7920731  
O   -3.5008219    2.9803446   -5.5367992  
C   -2.2625565    1.8970038   -7.2881930  
O   -2.9309436    2.4327661   -8.1619652  
C   -1.1706040    0.9751844   -7.5910794  
H    1.1327709   -0.9469135   -7.3849815  
H   -2.0044040    1.7760715   -3.7275202  
H   -0.9527972    0.7653406   -8.6294671  
H    1.7010237   -1.3534193   -4.8059069  
C    3.3321174    0.0004722   -1.3379336  
C    2.6974183    0.0000122   -2.5332313  
C    1.2800441   -0.0002113   -2.2052840  
C    1.2395036    0.0000646   -0.7271298  
N    2.4394063    0.0005463   -0.2131037  
C    0.0000000    0.0000000    0.0000000  
C   -1.1468699    0.0000637   -0.7169543  
O   -2.3742201    0.0000076   -0.1695489  
C   -1.1388769    0.0001611   -2.2096357  
O   -2.2206234    0.0000908   -2.7970412  
C    0.1454523    0.0001820   -2.9324241  
H    3.1367987   -0.0000643   -3.5160945  
H   -2.9844345    0.0001025   -0.9290168  
C    7.0021989    0.0016971   -3.8667564  
C    5.7010045    0.0007403   -3.4946377  
C    5.7268792    0.0007373   -2.0400482  
C    7.1642511    0.0016716   -1.6928538  
N    7.9166777    0.0023179   -2.7595512  
C    7.6175805    0.0019955   -0.3291898  
C    6.6777002    0.0018013    0.6434149  
O    6.9577668    0.0020529    1.9577983  
C    5.2193470    0.0012357    0.3250326  
O    4.4197302    0.0009619    1.2608921  
C    4.7795905    0.0008679   -1.0815729  
H    4.8310660    0.0002041   -4.1288953  
H    8.6741772    0.0024749   -0.1044381  
H    6.0879589    0.0018434    2.3966459  
H    7.4070866    0.0020149   -4.8662758  
C    0.0000000    0.0000000    1.4700000  
C    1.0662921    0.0000102    2.3034270  
C    0.4961870   -0.0000064    3.6418889  
C   -0.9663858    0.0000850    3.4240247  
N   -1.2632773    0.0000084    2.1528658  
C   -1.8985362    0.0000517    4.5177257  
C   -1.3925775   -0.0004564    5.7720543  
O   -2.1456383   -0.0005410    6.8851312  
C    0.0786232   -0.0009323    6.0245000  
O    0.4683759   -0.0012588    7.1921102  
C    1.0143166   -0.0008442    4.8859032  
H    2.1107198   -0.0000632    2.0421868  
H   -2.9622183    0.0003270    4.3293377  
H   -1.5042274   -0.0009692    7.6184419  
H    2.0724152   -0.0013148    5.1109744  
