60

C    3.3003543    0.0005276   -1.4738987  
C    2.5232814    0.0003497   -2.6090747  
C    1.1623201   -0.0001318   -2.1820100  
C    1.1711882    0.0000584   -0.7636144  
N    2.4852299   -0.0014918   -0.3662356  
C    0.0000000    0.0000000    0.0000000  
C   -1.2020383    0.0000521   -0.6806484  
O   -2.3759250    0.0003495    0.0157746  
C   -1.2314658   -0.0005110   -2.0955509  
O   -2.5054390   -0.0008035   -2.6250179  
C   -0.0764516   -0.0007271   -2.8495195  
H    2.8919951   -0.0005616   -3.6205302  
H    2.8036261    0.0088182    0.5858657  
H   -3.0835640    0.0000348   -0.6418822  
H   -2.4360046   -0.0011525   -3.5845922  
H    4.3715547    0.0004895   -1.3667137  
C    0.6778498   -0.7280274   -5.1604559  
C    0.3572099   -0.5121162   -6.4622422  
C   -0.7500349    0.4145349   -6.4749820  
C   -1.0503172    0.7230181   -5.0637914  
N   -0.1496415   -0.0015610   -4.3176962  
C   -2.0334658    1.5633981   -4.6528354  
C   -2.8505387    2.2068484   -5.6681675  
O   -3.7605409    2.9801052   -5.3993377  
C   -2.5503714    1.8945198   -7.1688856  
O   -3.2318468    2.4301019   -8.0326014  
C   -1.4639111    0.9716706   -7.4879570  
H   -2.2371053    1.7761244   -3.6125527  
H   -1.2623885    0.7608732   -8.5294351  
H    1.4488982   -1.3568984   -4.7458534  
C    1.9815999   -4.5399781   -7.4633061  
C    1.3975606   -3.5248264   -6.7851136  
C    1.4331451   -2.3936232   -7.6992321  
C    2.0908386   -2.9178205   -8.9154719  
N    2.4145314   -4.1754745   -8.7831100  
C    2.3187875   -2.0954427  -10.0716820  
C    1.9080109   -0.8080231  -10.0155680  
O    2.0565223    0.0716809  -11.0206081  
C    1.2409315   -0.2495944   -8.8025865  
O    0.8933301    0.9310971   -8.8215868  
C    1.0184830   -1.1133085   -7.6293690  
H    0.9925314   -3.5415934   -5.7877440  
H    2.8019365   -2.5047133  -10.9468812  
H    1.6688418    0.8998732  -10.6845230  
H    2.1488377   -5.5518415   -7.1299338  
C    2.4951002    2.0940188    2.9809380  
C    1.9440701    1.6314916    1.8291961  
C    0.8759964    0.7350050    2.2038498  
C    0.8497377    0.7130254    3.6788474  
N    1.8560616    1.5571714    4.0882609  
C   -0.0205033   -0.0168748    4.4215661  
C   -0.9962600   -0.8356168    3.7214979  
O   -1.8224391   -1.5286685    4.3006425  
C   -0.9864710   -0.8277881    2.1595606  
O   -1.8030528   -1.5133726    1.5592035  
C    0.0000000    0.0000000    1.4700000  
H    2.2509283    1.8888011    0.8310761  
H   -0.0229599   -0.0187323    5.5027230  
H    3.3143982    2.7817323    3.1139444  
H    2.0889452    1.7545833    5.0442112  
