58

C    2.5586921   -2.1046948   -5.9372711  
C    1.9655210   -1.6405067   -7.0672059  
C    0.9106443   -0.7462542   -6.6520152  
C    0.9380920   -0.7273508   -5.1769970  
N    1.9592138   -1.5716006   -4.8062647  
C    0.0950450    0.0004357   -4.4015596  
C   -0.9063191    0.8196397   -5.0639116  
O   -1.7113695    1.5108238   -4.4536174  
C   -0.9537274    0.8146639   -6.6251719  
O   -1.7926638    1.5001914   -7.1939419  
C    0.0078555   -0.0105774   -7.3519368  
H    2.2359458   -1.8955912   -8.0763715  
H   -0.0314885   -0.0082957   -8.4327559  
H    3.3831957   -2.7915389   -5.8356403  
H    2.2288772   -1.7684340   -3.8599111  
C    3.3321174    0.0004722   -1.3379336  
C    2.6974183    0.0000122   -2.5332313  
C    1.2800441   -0.0002113   -2.2052840  
C    1.2395036    0.0000646   -0.7271298  
N    2.4394063    0.0005463   -0.2131037  
C    0.0000000    0.0000000    0.0000000  
C   -1.1468699    0.0000637   -0.7169543  
O   -2.3742201    0.0000076   -0.1695489  
C   -1.1388769    0.0001611   -2.2096357  
O   -2.2206234    0.0000908   -2.7970412  
C    0.1454523    0.0001820   -2.9324241  
H    3.1367987   -0.0000643   -3.5160945  
H   -2.9844345    0.0001025   -0.9290168  
C    5.7851536    0.0009364   -1.9873448  
C    4.7795905    0.0008679   -1.0815729  
C    5.4416660    0.0014227    0.2138638  
C    6.8854806    0.0016742   -0.1054853  
N    7.0929844    0.0014718   -1.3942566  
C    7.8916467    0.0022763    0.9205338  
C    7.4744107    0.0030008    2.2070982  
O    8.3032750    0.0036101    3.2649373  
C    6.0244009    0.0031412    2.5615462  
O    5.7170393    0.0036916    3.7534978  
C    5.0115688    0.0024706    1.4909880  
H    8.9395974    0.0022419    0.6584118  
H    7.7145754    0.0040691    4.0412008  
H    3.9717458    0.0027123    1.7893140  
H    5.7099336    0.0006300   -3.0631305  
C    0.0000000    0.0000000    1.4700000  
C    1.0662921    0.0000102    2.3034270  
C    0.4961870   -0.0000064    3.6418889  
C   -0.9663858    0.0000850    3.4240247  
N   -1.2632773    0.0000084    2.1528658  
C   -1.8985362    0.0000517    4.5177257  
C   -1.3925775   -0.0004564    5.7720543  
O   -2.1456383   -0.0005410    6.8851312  
C    0.0786232   -0.0009323    6.0245000  
O    0.4683759   -0.0012588    7.1921102  
C    1.0143166   -0.0008442    4.8859032  
H    2.1107198   -0.0000632    2.0421868  
H   -2.9622183    0.0003270    4.3293377  
H   -1.5042274   -0.0009692    7.6184419  
H    2.0724152   -0.0013148    5.1109744  
