60

C   -3.3002794   -0.0223200   -1.4738975  
C   -2.5232245   -0.0170111   -2.6090737  
C   -1.1622959   -0.0075430   -2.1820094  
C   -1.1711628   -0.0077918   -0.7636135  
N   -2.4851861   -0.0149181   -0.3662351  
C    0.0000000    0.0000000    0.0000000  
C    1.2020127    0.0078850   -0.6806478  
O    2.3758749    0.0153388    0.0157740  
C    1.2314351    0.0086424   -2.0955507  
O    2.5053784    0.0173469   -2.6250181  
C    0.0764446    0.0012319   -2.8495193  
H   -2.8035074   -0.0273303    0.5858668  
H    3.0834965    0.0203259   -0.6418813  
H    2.4359429    0.0172374   -3.5845921  
H    0.1303967    0.0022029   -3.9319081  
H   -4.3714567   -0.0293549   -1.3667122  
C   -3.0266843   -0.0190908   -3.9901688  
C   -4.3102568   -0.0274553   -4.4333923  
C   -4.2574057   -0.0256950   -5.8763195  
C   -2.8275741   -0.0155757   -6.2400093  
N   -2.1344213   -0.0115780   -5.0515598  
C   -2.3580942   -0.0115305   -7.5133029  
C   -3.3256131   -0.0173184   -8.5979262  
O   -3.0026862   -0.0142655   -9.7786079  
C   -4.8450384   -0.0278005   -8.2359275  
O   -5.6689089   -0.0324353   -9.1406243  
C   -5.2286797   -0.0316414   -6.8264395  
H   -5.1933219   -0.0339179   -3.8195778  
H   -1.3051105   -0.0042227   -7.7584188  
H   -1.1343944   -0.0062822   -4.9681011  
C   -6.6613089   -0.0417930   -6.4972428  
C   -7.2595128   -0.0467530   -5.2781436  
C   -8.6848569   -0.0565189   -5.5086488  
C   -8.8693341   -0.0568733   -6.9724656  
N   -7.6044706   -0.0473184   -7.5136851  
C  -10.0749351   -0.0652585   -7.5954899  
C  -11.2706228   -0.0743286   -6.7691837  
O  -12.4024062   -0.0822014   -7.2353446  
C  -11.0988809   -0.0738713   -5.2166664  
O  -12.0983000   -0.0811538   -4.5107128  
C   -9.7475361   -0.0646793   -4.6620186  
H   -6.7593654   -0.0437142   -4.3260631  
H  -10.1882448   -0.0654869   -8.6706977  
H   -9.6372463   -0.0646289   -3.5861188  
H   -7.3982487   -0.0467155   -8.4957847  
C    0.0000000    0.0000000    1.4700000  
C    1.0541688    0.0001722    2.3260392  
C    0.5103138    0.0000454    3.6635956  
C   -0.9576371   -0.0002459    3.5155732  
N   -1.2018458    0.0001392    2.1615969  
C   -1.8348311   -0.0008317    4.5510609  
C   -1.2972847   -0.0009736    5.9014604  
O   -2.0050672   -0.0014265    6.9001319  
C    0.2542623   -0.0004184    6.0817573  
O    0.7184670   -0.0002256    7.2139121  
C    1.0974552   -0.0000873    4.8889129  
H    2.0940752    0.0005483    2.0517982  
H   -2.9081052   -0.0011668    4.4207061  
H    2.1707277    0.0000911    5.0223670  
H   -2.1128194   -0.0014912    1.7406791  
