58

C    0.0000000    0.0000000    0.0000000  
C    1.0541696   -0.0001722   -0.8560389  
C    0.5103148   -0.0000455   -2.1935956  
C   -0.9576363    0.0002459   -2.0455734  
N   -1.2018453   -0.0001391   -0.6915972  
C   -1.8348301    0.0008316   -3.0810614  
C   -1.2972834    0.0009736   -4.4314607  
O   -2.0050657    0.0014265   -5.4301322  
C    0.2542633    0.0004184   -4.6117575  
O    0.7184687    0.0002257   -5.7439120  
C    1.0974567    0.0000873   -3.4189128  
H    2.0940760   -0.0005483   -0.5817983  
H    2.1707283   -0.0000911   -3.5523665  
H   -2.1128191    0.0014912   -0.2706800  
C   -3.2941063    0.0012872   -2.9038249  
C   -3.9928916    0.0012412   -1.7448261  
C   -5.3903264    0.0018076   -2.1493951  
C   -5.3503921    0.0022631   -3.6275657  
N   -4.1243027    0.0018801   -4.0755540  
C   -6.5485029    0.0028439   -4.4210497  
C   -7.7326786    0.0025753   -3.7675488  
O   -8.9284315    0.0030579   -4.3809134  
C   -7.8059015    0.0017435   -2.2766437  
O   -8.9180020    0.0016639   -1.7489566  
C   -6.5627954    0.0012025   -1.4850558  
H   -3.6076315    0.0007785   -0.7395145  
H   -9.5790584    0.0026678   -3.6557672  
H   -6.6586511    0.0004895   -0.4075398  
C   -3.8468912   -2.1375863   -7.0870114  
C   -4.2676064   -1.7293122   -8.3068021  
C   -5.3696624   -0.8184345   -8.0379629  
C   -5.4809061   -0.7928865   -6.5636641  
N   -4.5908218   -1.5641706   -6.0007617  
C   -6.4685325    0.0035662   -5.8888729  
C   -7.3066661    0.7412737   -6.6521909  
O   -8.2752138    1.5300078   -6.1563544  
C   -7.2192855    0.7369428   -8.1423268  
O   -8.0147434    1.4326172   -8.7736003  
C   -6.1976386   -0.0883630   -8.8109321  
H   -3.8781286   -2.0113594   -9.2700424  
H   -8.7005557    1.9227520   -6.9399287  
H   -6.1670752   -0.0638412   -9.8919941  
H   -3.0447577   -2.8201279   -6.8552959  
C    3.2573670    0.0002920    2.9809380  
C    2.5379467    0.0001709    1.8291961  
C    1.1435042   -0.0000331    2.2038498  
C    1.1092607    0.0000083    3.6788474  
N    2.4227561   -0.0001909    4.0882609  
C   -0.0265533    0.0002524    4.4215661  
C   -1.3003036    0.0002640    3.7214979  
O   -2.3786784    0.0004133    4.3006425  
C   -1.2877726   -0.0000311    2.1595606  
O   -2.3539958   -0.0003306    1.5592035  
C    0.0000000    0.0000000    1.4700000  
H    2.9384090    0.0000368    0.8310761  
H   -0.0296291    0.0004086    5.5027230  
H    4.3270393    0.0004765    3.1139444  
H    2.7280493    0.0013407    5.0442112  
