58

C    0.5423183    0.1903025   -8.8942131  
C    1.6008181   -0.4682287   -9.4327193  
C    1.6685619   -0.0894351  -10.8243954  
C    0.5547937    0.8505204  -11.0541655  
N   -0.0893693    0.9774034   -9.8450989  
C    0.2772441    1.4371704  -12.2460181  
C    1.1324214    1.1215890  -13.3781049  
O    0.9647542    1.5985032  -14.4928874  
C    2.3176941    0.1284389  -13.1576827  
O    3.0442743   -0.1450724  -14.1034802  
C    2.5164897   -0.4396254  -11.8266540  
H    2.2589306   -1.1425443   -8.9142607  
H   -0.5446354    2.1240154  -12.3932176  
H    3.3395310   -1.1262812  -11.6823269  
H   -0.8932034    1.5546097   -9.6785722  
C    1.9859499   -2.0121220   -5.4225061  
C    1.1142987   -1.6302694   -4.4602217  
C    0.2013162   -0.7124157   -5.1239293  
C    0.6817516   -0.6541652   -6.5212026  
N    1.7275937   -1.4140510   -6.7022479  
C    0.0351778    0.1580614   -7.5148406  
C   -1.0426004    0.8790120   -7.1301864  
O   -1.7423831    1.6794832   -7.9521292  
C   -1.5518362    0.8410640   -5.7275458  
O   -2.5376879    1.5231241   -5.4480627  
C   -0.8712826    0.0001710   -4.7267111  
H    1.0933977   -1.9340155   -3.4275666  
H   -2.4462797    2.0547411   -7.3927861  
H    2.8195222   -2.6903517   -5.3323142  
C    1.0965514    0.0001359   -0.8010305  
C    0.0000000    0.0000000    0.0000000  
C   -1.1546563    0.0001470   -0.8669513  
C   -0.6372014    0.0003519   -2.2486282  
N    0.7342871    0.0007337   -2.1395014  
C   -1.4147739    0.0001352   -3.3608717  
C   -2.8576049   -0.0001048   -3.1854462  
O   -3.6427779   -0.0002494   -4.1244907  
C   -3.4275840   -0.0000725   -1.7311666  
O   -4.6406831    0.0000333   -1.5710060  
C   -2.4891867   -0.0001091   -0.6116744  
H   -2.8919122   -0.0002918    0.3920866  
H    2.1388272    0.0000663   -0.5261648  
H    1.3735872   -0.0006099   -2.9130262  
C    0.8175213    0.6860729    2.3021913  
C    0.0000000    0.0000000    1.4700000  
C   -0.8887526   -0.7456559    2.3478473  
C   -0.4549825   -0.3816753    3.7138435  
N    0.5448156    0.4573574    3.6934124  
C   -1.0945674   -0.9182058    4.8835240  
C   -2.1210866   -1.7789155    4.6970523  
O   -2.8083856   -2.3554314    5.6976972  
C   -2.5824069   -2.1655116    3.3310774  
O   -3.5227682   -2.9541547    3.2362962  
C   -1.9100805   -1.6015804    2.1470656  
H   -0.7567140   -0.6349833    5.8697035  
H   -3.4728268   -2.9124471    5.2533954  
H   -2.2742832   -1.9066565    1.1752040  
H    1.6189533    1.3585343    2.0405121  
