60

C    3.3003541    0.0005278   -1.4738992  
C    2.5232807    0.0003501   -2.6090758  
C    1.1623196   -0.0001317   -2.1820111  
C    1.1711881    0.0000584   -0.7636150  
N    2.4852298   -0.0014917   -0.3662363  
C    0.0000000    0.0000000    0.0000000  
C   -1.2020384    0.0000521   -0.6806482  
O   -2.3759252    0.0003495    0.0157742  
C   -1.2314661   -0.0005110   -2.0955511  
O   -2.5054392   -0.0008035   -2.6250185  
C   -0.0764520   -0.0007270   -2.8495199  
H    2.8919952   -0.0005616   -3.6205308  
H    2.8036261    0.0088182    0.5858646  
H   -3.0835642    0.0000348   -0.6418824  
H   -2.4360052   -0.0011524   -3.5845926  
H    4.3715545    0.0004897   -1.3667141  
C   -0.1496419   -0.0015608   -4.3176963  
C    0.8738319   -0.0018367   -5.2031795  
C    0.2377931   -0.0026901   -6.5115962  
C   -1.2121183   -0.0029421   -6.2211815  
N   -1.4453517   -0.0022021   -4.9368177  
C   -2.1975670   -0.0037104   -7.2671149  
C   -1.7546879   -0.0038155   -8.5450795  
O   -2.5622338   -0.0045086   -9.6192818  
C   -0.2978811   -0.0031970   -8.8704626  
O    0.0332540   -0.0034571  -10.0560298  
C    0.6933416   -0.0024574   -7.7798652  
H    1.9299717   -0.0014121   -4.9942646  
H   -1.9581294   -0.0043718  -10.3836183  
H    1.7389215   -0.0019088   -8.0573394  
C   -4.2240850    0.7005526   -5.9415045  
C   -3.6304810   -0.0042208   -6.9390033  
C   -4.6726565   -0.7471551   -7.6073998  
C   -5.9311087   -0.4150339   -6.9125740  
N   -5.5905459    0.4666698   -5.9128210  
C   -7.1480665   -0.9152850   -7.2449395  
C   -7.2234143   -1.8428764   -8.3613766  
O   -8.2728297   -2.3480104   -8.7380304  
C   -5.9031237   -2.2089307   -9.1114720  
O   -5.9540828   -2.9890596  -10.0527807  
C   -4.6516815   -1.6050621   -8.6608197  
H   -8.0590324   -0.6586016   -6.7222883  
H   -3.7420216   -1.8635528   -9.1856298  
H   -3.7782314    1.3709539   -5.2247993  
H   -6.2356111    0.8785426   -5.2637452  
C    2.4951002    2.0940188    2.9809380  
C    1.9440701    1.6314916    1.8291961  
C    0.8759964    0.7350050    2.2038498  
C    0.8497377    0.7130254    3.6788474  
N    1.8560616    1.5571714    4.0882609  
C   -0.0205033   -0.0168748    4.4215661  
C   -0.9962600   -0.8356168    3.7214979  
O   -1.8224391   -1.5286685    4.3006425  
C   -0.9864710   -0.8277881    2.1595606  
O   -1.8030528   -1.5133726    1.5592035  
C    0.0000000    0.0000000    1.4700000  
H    2.2509283    1.8888011    0.8310761  
H   -0.0229599   -0.0187323    5.5027230  
H    3.3143982    2.7817323    3.1139444  
H    2.0889452    1.7545833    5.0442112  
