58

C    2.1552145   -1.8471691   -8.4461110  
C    3.1217765   -2.6610690   -8.9435048  
C    3.0312488   -2.5913473  -10.3828717  
C    1.9248014   -1.6634365  -10.6854394  
N    1.4355316   -1.2477399   -9.4685989  
C    1.5216993   -1.3298648  -11.9376151  
C    2.2243443   -1.9245994  -13.0623889  
O    1.9365065   -1.6875818  -14.2282664  
C    3.3991115   -2.9102354  -12.7653192  
O    3.9978876   -3.4173749  -13.7042224  
C    3.7414377   -3.1918263  -11.3734254  
H    3.8185252   -3.2439174   -8.3677952  
H    0.7077365   -0.6469849  -12.1377381  
H    4.5562112   -3.8751954  -11.1762582  
H    0.6743517   -0.6060216   -9.3427006  
C    2.4602721   -2.0944455   -5.9392888  
C    1.9124732   -1.6318086   -4.7860506  
C    0.8432456   -0.7354855   -5.1577935  
C    0.8127887   -0.7137217   -6.6327131  
N    1.8180308   -1.5578236   -7.0448664  
C   -0.0596367    0.0159818   -7.3730587  
C   -1.0334823    0.8347249   -6.6703356  
O   -1.8613770    1.5276081   -7.2472273  
C   -1.0192491    0.8271227   -5.1084314  
O   -1.8341905    1.5127102   -4.5058525  
C   -0.0307352   -0.0004646   -4.4215603  
H    2.2221962   -1.8889424   -3.7887702  
H   -0.0651692    0.0176830   -8.4542048  
H    3.2792594   -2.7820942   -6.0745261  
C    3.2573670   -0.0002920   -1.5109380  
C    2.5379468   -0.0001709   -0.3591961  
C    1.1435043    0.0000332   -0.7338500  
C    1.1092609   -0.0000082   -2.2088477  
N    2.4227562    0.0001909   -2.6182613  
C   -0.0265532   -0.0002522   -2.9515663  
C   -1.3003035   -0.0002639   -2.2514981  
O   -2.3786784   -0.0004131   -2.8306429  
C   -1.2877725    0.0000312   -0.6895608  
O   -2.3539958    0.0003307   -0.0892036  
C    0.0000000    0.0000000    0.0000000  
H    2.9384091   -0.0000369    0.6389239  
H    4.3270394   -0.0004765   -1.6439446  
H    2.7280494   -0.0013406   -3.5742113  
C    0.0000000    0.0000000    1.4700000  
C    1.0662921    0.0000102    2.3034270  
C    0.4961870   -0.0000064    3.6418889  
C   -0.9663858    0.0000850    3.4240247  
N   -1.2632773    0.0000084    2.1528658  
C   -1.8985362    0.0000517    4.5177257  
C   -1.3925775   -0.0004564    5.7720543  
O   -2.1456383   -0.0005410    6.8851312  
C    0.0786232   -0.0009323    6.0245000  
O    0.4683759   -0.0012588    7.1921102  
C    1.0143166   -0.0008442    4.8859032  
H    2.1107198   -0.0000632    2.0421868  
H   -2.9622183    0.0003270    4.3293377  
H   -1.5042274   -0.0009692    7.6184419  
H    2.0724152   -0.0013148    5.1109744  
