60

C    0.0000000    0.0000000    0.0000000  
C    1.0521660   -0.0011918   -0.8862350  
C    0.4917206   -0.0011967   -2.1979136  
C   -0.9187440    0.0003156   -2.0478678  
N   -1.1833172   -0.0009399   -0.7007906  
C   -1.7951717    0.0010367   -3.1372082  
C   -1.2375861    0.0005233   -4.4010419  
O   -2.0474247    0.0015378   -5.4997566  
C    0.1673555   -0.0013574   -4.5711968  
O    0.5673487   -0.0020701   -5.8915553  
C    1.0325751   -0.0023429   -3.4969898  
H    2.0953048   -0.0030676   -0.6200572  
H   -2.0989778    0.0102397   -0.2891813  
H   -1.4634923    0.0006510   -6.2693584  
H    1.5290673   -0.0033179   -5.9180050  
H    2.1042129   -0.0039640   -3.6584469  
C   -4.4484687    2.1113854   -0.3461900  
C   -5.6480020    1.6479731   -0.7825889  
C   -5.3783986    0.7523481   -1.8825917  
C   -3.9129606    0.7317941   -2.0524714  
N   -3.4082509    1.5764952   -1.0908907  
C   -3.2578670    0.0024074   -2.9908490  
C   -4.0489156   -0.8169001   -3.8939064  
O   -3.5523696   -1.5094645   -4.7725973  
C   -5.6025030   -0.8101926   -3.7322701  
O   -6.2789691   -1.4957913   -4.4869952  
C   -6.1934228    0.0166945   -2.6830211  
H   -7.2698083    0.0156059   -2.5775851  
H   -4.2368791    2.7988181    0.4566523  
H   -2.4341518    1.7724853   -0.9502995  
C   -6.9652715    1.9985186   -0.2322983  
C   -7.2692626    2.8318237    0.7959366  
C   -8.7067669    2.8261629    0.9315219  
C   -9.2190065    1.9146957   -0.1094528  
N   -8.1130164    1.4463904   -0.7805458  
C  -10.5322401    1.6377421   -0.3104944  
C  -11.5061715    2.2804194    0.5560851  
O  -12.7119961    2.0958785    0.4549387  
C  -10.9861442    3.2496682    1.6651086  
O  -11.7967481    3.7967941    2.4005245  
C   -9.5468239    3.4686133    1.7845744  
H   -6.5666864    3.3872407    1.3913460  
H  -10.8869184    0.9659632   -1.0797962  
H   -9.1949144    4.1410107    2.5551364  
H   -8.1359373    0.8011759   -1.5488043  
C    3.2573670    0.0002920    2.9809380  
C    2.5379467    0.0001709    1.8291961  
C    1.1435042   -0.0000331    2.2038498  
C    1.1092607    0.0000083    3.6788474  
N    2.4227561   -0.0001909    4.0882609  
C   -0.0265533    0.0002524    4.4215661  
C   -1.3003036    0.0002640    3.7214979  
O   -2.3786784    0.0004133    4.3006425  
C   -1.2877726   -0.0000311    2.1595606  
O   -2.3539958   -0.0003306    1.5592035  
C    0.0000000    0.0000000    1.4700000  
H    2.9384090    0.0000368    0.8310761  
H   -0.0296291    0.0004086    5.5027230  
H    4.3270393    0.0004765    3.1139444  
H    2.7280493    0.0013407    5.0442112  
