60

C    0.0000000    0.0000000    0.0000000  
C    1.0521660   -0.0011918   -0.8862350  
C    0.4917206   -0.0011967   -2.1979136  
C   -0.9187440    0.0003156   -2.0478678  
N   -1.1833172   -0.0009399   -0.7007906  
C   -1.7951717    0.0010367   -3.1372082  
C   -1.2375861    0.0005233   -4.4010419  
O   -2.0474247    0.0015378   -5.4997566  
C    0.1673555   -0.0013574   -4.5711968  
O    0.5673487   -0.0020701   -5.8915553  
C    1.0325751   -0.0023429   -3.4969898  
H    2.0953048   -0.0030676   -0.6200572  
H   -2.0989778    0.0102397   -0.2891813  
H   -1.4634923    0.0006510   -6.2693584  
H    1.5290673   -0.0033179   -5.9180050  
H    2.1042129   -0.0039640   -3.6584469  
C   -4.4484687    2.1113854   -0.3461900  
C   -5.6480020    1.6479731   -0.7825889  
C   -5.3783986    0.7523481   -1.8825917  
C   -3.9129606    0.7317941   -2.0524714  
N   -3.4082509    1.5764952   -1.0908907  
C   -3.2578670    0.0024074   -2.9908490  
C   -4.0489156   -0.8169001   -3.8939064  
O   -3.5523696   -1.5094645   -4.7725973  
C   -5.6025030   -0.8101926   -3.7322701  
O   -6.2789691   -1.4957913   -4.4869952  
C   -6.1934228    0.0166945   -2.6830211  
H   -7.2698083    0.0156059   -2.5775851  
H   -4.2368791    2.7988181    0.4566523  
H   -2.4341518    1.7724853   -0.9502995  
C   -7.3475442    3.2640866    0.1859651  
C   -8.6252896    3.2594616    0.6457697  
C   -9.1123602    1.9058479    0.5219651  
C   -8.0056943    1.1165833   -0.0517448  
N   -6.9652715    1.9985186   -0.2322983  
C   -8.0683762   -0.2117348   -0.3225723  
C   -9.3086426   -0.9106457   -0.0296583  
O   -9.4643483   -2.1067783   -0.2378016  
C  -10.4937745   -0.0945572    0.5780149  
O  -11.5430213   -0.6721346    0.8285065  
C  -10.3062055    1.3327429    0.8259723  
H   -9.1650722    4.1075440    1.0278759  
H   -7.2449530   -0.7719544   -0.7433307  
H  -11.1315731    1.8905680    1.2470726  
H   -6.6530789    4.0856030    0.1172764  
C    0.0000000    0.0000000    1.4700000  
C    1.0541688    0.0001722    2.3260392  
C    0.5103138    0.0000454    3.6635956  
C   -0.9576371   -0.0002459    3.5155732  
N   -1.2018458    0.0001392    2.1615969  
C   -1.8348311   -0.0008317    4.5510609  
C   -1.2972847   -0.0009736    5.9014604  
O   -2.0050672   -0.0014265    6.9001319  
C    0.2542623   -0.0004184    6.0817573  
O    0.7184670   -0.0002256    7.2139121  
C    1.0974552   -0.0000873    4.8889129  
H    2.0940752    0.0005483    2.0517982  
H   -2.9081052   -0.0011668    4.4207061  
H    2.1707277    0.0000911    5.0223670  
H   -2.1128194   -0.0014912    1.7406791  
