58

C    6.6282256   -1.8451259   -6.8869324  
C    7.7106104   -2.6588509   -6.9887648  
C    8.1625509   -2.5888601   -8.3583222  
C    7.2481997   -1.6609820   -9.0509940  
N    6.3409461   -1.2455594   -8.1037842  
C    7.3403012   -1.3272029  -10.3631722  
C    8.4113296   -1.9216637  -11.1455093  
O    8.5782867   -1.6844457  -12.3346902  
C    9.3911430   -2.9072603  -10.4325079  
O   10.2965476   -3.4141704  -11.0810041  
C    9.1906023   -3.1890906   -9.0132813  
H    8.1429664   -3.2417529   -6.1950985  
H    6.6592910   -0.6443511  -10.8518939  
H    9.8734655   -3.8724308   -8.5270011  
H    5.5875309   -0.6039275   -8.2702824  
C    5.9779326   -2.0928591   -4.4468277  
C    5.0400352   -1.6304885   -3.5804345  
C    4.1859904   -0.7341816   -4.3234534  
C    4.7069272   -0.7121371   -5.7036446  
N    5.7934745   -1.5560772   -5.7119679  
C    4.1728106    0.0176374   -6.7155014  
C    3.0072080    0.8361656   -6.4258171  
O    2.4535610    1.5290918   -7.2693981  
C    2.4388223    0.8282645   -4.9709354  
O    1.4580063    1.5136694   -4.7150431  
C    3.1006054    0.0006263   -3.9654951  
H    4.9561722   -1.8877887   -2.5395800  
H    4.5702549    0.0195457   -7.7209579  
H    6.7884826   -2.7804144   -4.2674802  
C    3.2798083    0.0005857   -1.4499652  
C    2.5571142    0.0005565   -2.5996556  
C    1.1637432    0.0001548   -2.2210361  
C    1.1336964   -0.0000200   -0.7459473  
N    2.4483512   -0.0001428   -0.3402723  
C    0.0000000    0.0000000    0.0000000  
C   -1.2757368   -0.0000186   -0.6964415  
O   -2.3524598   -0.0000639   -0.1142311  
C   -1.2676497   -0.0000872   -2.2584083  
O   -2.3355766   -0.0004101   -2.8557295  
C    0.0181558    0.0001758   -2.9516296  
H    0.0150788    0.0003319   -4.0331631  
H    4.3498547    0.0008612   -1.3200026  
H    2.7563626    0.0012823    0.6148059  
C    2.3971438    2.0127888    3.1728260  
C    1.9431056    1.6308205    1.9564670  
C    0.8496017    0.7127664    2.2356185  
C    0.7794028    0.6545384    3.7115134  
N    1.6840587    1.4146091    4.2663826  
C   -0.1885723   -0.1578550    4.3957118  
C   -1.0476298   -0.8789867    3.6398520  
O   -2.0015663   -1.6796266    4.1448486  
C   -1.0022026   -0.8410666    2.1483229  
O   -1.8147390   -1.5232959    1.5241687  
C    0.0000000    0.0000000    1.4700000  
H    2.3054237    1.9346118    0.9892483  
H   -0.2170646   -0.1815267    5.4753125  
H   -2.4487139   -2.0549881    3.3649027  
H    3.2048689    2.6911772    3.3971983  
