58

C    0.1664848   -1.1555880   -9.6392266  
C    0.0308318   -0.7961534  -10.9417174  
C   -0.2231388    0.6250869  -10.9619796  
C   -0.2243072    1.0673677   -9.5544364  
N    0.0171479   -0.0595767   -8.8030473  
C   -0.4292707    2.3466841   -9.1506505  
C   -0.6646364    3.3552753  -10.1703968  
O   -0.8597478    4.5348600   -9.9080757  
C   -0.6679869    2.9092975  -11.6673597  
O   -0.8653583    3.7495204  -12.5347285  
C   -0.4347761    1.5012663  -11.9786687  
H    0.1005270   -1.4518379  -11.7913253  
H   -0.4259749    2.6500896   -8.1129391  
H   -0.4384823    1.2006879  -13.0175918  
H    0.3627728   -2.1289746   -9.2198485  
C    2.6001989   -2.1411816   -5.8266046  
C    2.0730546   -1.7332818   -7.0044479  
C    0.9991589   -0.8222833   -6.6393046  
C    1.0189899   -0.7962635   -5.1609565  
N    1.9554493   -1.5673975   -4.6788913  
C    0.0950446    0.0004351   -4.4015596  
C   -0.8074266    0.7379268   -5.0878442  
O   -1.7282259    1.5268492   -4.5083866  
C   -0.8524305    0.7331199   -6.5798603  
O   -1.7006931    1.4286189   -7.1383869  
C    0.1059497   -0.0924311   -7.3360995  
H    2.3756471   -2.0156472   -7.9983212  
H   -2.2213255    1.9193581   -5.2513151  
H    3.4197068   -2.8236756   -5.6666595  
C    3.3321173    0.0004713   -1.3379338  
C    2.6974181    0.0000116   -2.5332314  
C    1.2800438   -0.0002119   -2.2052841  
C    1.2395034    0.0000643   -0.7271299  
N    2.4394062    0.0005460   -0.2131038  
C    0.0000000    0.0000000    0.0000000  
C   -1.1468702    0.0000634   -0.7169543  
O   -2.3742203    0.0000074   -0.1695487  
C   -1.1388770    0.0001607   -2.2096355  
O   -2.2206234    0.0000905   -2.7970411  
C    0.1454522    0.0001815   -2.9324241  
H    3.1367984   -0.0000653   -3.5160950  
H   -2.9844346    0.0001026   -0.9290167  
H    4.3940038    0.0007618   -1.1498640  
C    2.5528530    2.1414826    2.8079335  
C    2.0663498    1.7338582    4.0032312  
C    0.9804344    0.8229586    3.6752840  
C    0.9495562    0.7966882    2.1971295  
N    1.8690446    1.5676019    1.6831036  
C    0.0000000    0.0000000    1.4700000  
C   -0.8785127   -0.7372425    2.1869543  
O   -1.8187535   -1.5261249    1.6395491  
C   -0.8723269   -0.7321790    3.6796354  
O   -1.7010379   -1.4274584    4.2670412  
C    0.1115397    0.0933559    4.4024240  
H    2.4028853    2.0163452    4.9860947  
H   -2.2861435   -1.9184361    2.3990168  
H    0.0832434    0.0693689    5.4835595  
H    3.3664920    2.8238276    2.6198634  
