58

C    1.0965519    0.0001359   -0.8010306  
C    0.0000000    0.0000000    0.0000000  
C   -1.1546563    0.0001470   -0.8669511  
C   -0.6372013    0.0003523   -2.2486282  
N    0.7342872    0.0007341   -2.1395009  
C   -1.4147734    0.0001358   -3.3608715  
C   -2.8576047   -0.0001043   -3.1854462  
O   -3.6427777   -0.0002487   -4.1244906  
C   -3.4275841   -0.0000724   -1.7311667  
O   -4.6406823    0.0000333   -1.5710060  
C   -2.4891864   -0.0001091   -0.6116749  
H   -1.0150445    0.0001622   -4.3654245  
H   -2.8919117   -0.0002919    0.3920858  
H    2.1388270    0.0000662   -0.5261642  
C    4.6035261   -2.0133271   -3.0543719  
C    3.4786152   -1.6302938   -2.4067307  
C    2.8134675   -0.7139707   -3.3202022  
C    3.6995837   -0.6578057   -4.5026686  
N    4.7504690   -1.4174964   -4.3526668  
C    3.3892458    0.1524703   -5.6481948  
C    2.2454698    0.8735475   -5.6141508  
O    1.8317922    1.6723273   -6.6125811  
C    1.3302972    0.8376807   -4.4354510  
O    0.3062889    1.5197371   -4.4732203  
C    1.6707645   -0.0012339   -3.2725972  
H    3.1417505   -1.9323407   -1.4298139  
H    0.9902138    2.0481781   -6.2969307  
H    5.3691409   -2.6910132   -2.7115176  
C    5.6821774   -3.0159726   -7.6448855  
C    6.2821918   -2.2809654   -8.6163905  
C    5.8391804   -0.9172276   -8.4466971  
C    4.9253578   -0.9179832   -7.2883715  
N    4.8727367   -2.2204386   -6.8482234  
C    4.2952826    0.1826680   -6.8053838  
C    4.5328559    1.4527622   -7.4709323  
O    4.0122091    2.5006826   -7.1116399  
C    5.4967384    1.4768761   -8.6998160  
O    5.7042043    2.5403201   -9.2684146  
C    6.1173875    0.2254606   -9.1271395  
H    6.9578617   -2.6518334   -9.3664175  
H    6.7836505    0.2507342   -9.9787139  
H    5.7630500   -4.0719106   -7.4440261  
H    4.3314495   -2.5430047   -6.0671936  
C    2.5128556    2.1077716    2.9199648  
C    1.9592212    1.6432552    4.0696553  
C    0.8915788    0.7479214    3.6910360  
C    0.8684491    0.7287414    2.2159470  
N    1.8754542    1.5738793    1.8102719  
C    0.0000000    0.0000000    1.4700000  
C   -0.9772830   -0.8200135    2.1664417  
O   -1.8021297   -1.5120829    1.5842315  
C   -0.9711318   -0.8147624    3.7284083  
O   -1.7894187   -1.5009653    4.3257297  
C    0.0140216    0.0115358    4.4216297  
H    2.2638494    1.8988021    5.0689105  
H    0.0117648    0.0094386    5.5031631  
H    3.3327358    2.7953732    2.7900019  
H    2.1123206    1.7707734    0.8551938  
