64

C    4.5582359   -2.0922264   -2.8633927  
C    4.7995863   -1.5811264   -4.1175831  
C    3.7180587   -0.7032889   -4.4246643  
C    2.8401178   -0.7189699   -3.3107075  
N    3.3790676   -1.5738357   -2.3815388  
C    1.6628945    0.0339172   -3.2649299  
C    1.3667038    0.8171316   -4.3635762  
O    0.2298889    1.5725144   -4.3714928  
C    2.2299650    0.8458158   -5.4846351  
O    1.7963543    1.6742716   -6.4990245  
C    3.3913537    0.1031242   -5.5305966  
H    2.9820488   -1.7789139   -1.4824836  
H    0.2153772    2.0351557   -5.2194414  
H    2.4353791    1.6358679   -7.2172002  
H    4.0328106    0.1452890   -6.4030837  
H    5.1331928   -2.7866339   -2.2750211  
C    6.5345374   -3.1420595   -5.0839519  
C    7.6070851   -3.0644190   -5.9419037  
C    7.7013634   -1.7066671   -6.3687785  
C    6.6510608   -0.9965299   -5.7327790  
N    5.9606910   -1.8982550   -4.9614823  
C    6.4398154    0.3723469   -5.9234098  
C    7.3047844    1.0365037   -6.7712922  
O    7.1441996    2.3737245   -6.9928019  
C    8.3584760    0.3453066   -7.4153402  
O    9.1332351    1.1462250   -8.2287423  
C    8.5673036   -1.0051761   -7.2279538  
H    8.2425931   -3.8856177   -6.2260776  
H    5.6410798    0.9193544   -5.4417393  
H    7.8430094    2.6346526   -7.6066801  
H    9.8209262    0.6024714   -8.6249944  
H    9.3827324   -1.5075903   -7.7350378  
H    6.1326039   -3.9865484   -4.5508026  
C    1.1243410    0.0100105   -0.7919003  
C    0.7474072    0.0234665   -2.1148542  
C   -0.6787384    0.0234379   -2.1414698  
C   -1.1201748    0.0098411   -0.7935547  
N    0.0000000    0.0000000    0.0000000  
C   -2.4730818    0.0063307   -0.4408240  
C   -3.3971962    0.0170429   -1.4675058  
O   -4.7313520    0.0145490   -1.1793468  
C   -2.9763654    0.0303020   -2.8186325  
O   -4.0166484    0.0394464   -3.7247625  
C   -1.6418567    0.0334992   -3.1673480  
H   -2.8160166   -0.0041569    0.5845966  
H   -5.1938823    0.0230023   -2.0274386  
H   -3.6464680    0.0481700   -4.6127343  
H   -1.3497475    0.0435647   -4.2109234  
H    2.1062466    0.0053162   -0.3505405  
C    2.5128556    2.1077716    2.9199648  
C    1.9592212    1.6432552    4.0696553  
C    0.8915788    0.7479214    3.6910360  
C    0.8684491    0.7287414    2.2159470  
N    1.8754542    1.5738793    1.8102719  
C    0.0000000    0.0000000    1.4700000  
C   -0.9772830   -0.8200135    2.1664417  
O   -1.8021297   -1.5120829    1.5842315  
C   -0.9711318   -0.8147624    3.7284083  
O   -1.7894187   -1.5009653    4.3257297  
C    0.0140216    0.0115358    4.4216297  
H    2.2638494    1.8988021    5.0689105  
H    0.0117648    0.0094386    5.5031631  
H    3.3327358    2.7953732    2.7900019  
H    2.1123206    1.7707734    0.8551938  
