58

C    1.1319247    0.0015672   -0.8009268  
C    0.7969918    0.0034953   -2.1169401  
C   -0.6453339    0.0035696   -2.1842671  
C   -1.1266833    0.0015413   -0.7896028  
N    0.0000000    0.0000000    0.0000000  
C   -2.4346131    0.0013924   -0.4276296  
C   -3.4350115    0.0031349   -1.4820181  
O   -4.6384612    0.0030897   -1.2583917  
C   -2.9478958    0.0050454   -2.9661077  
O   -3.7809379    0.0062151   -3.8623778  
C   -1.5113824    0.0053060   -3.2312123  
H    1.4821237    0.0045428   -2.9459193  
H   -2.7664566    0.0000186    0.6013444  
H    2.1104318    0.0009426   -0.3488058  
C    1.7411999   -1.9992951   -5.5261467  
C    0.9379143   -1.6197493   -4.5052370  
C   -0.0205729   -0.7029843   -5.1030198  
C    0.3614474   -0.6427736   -6.5302614  
N    1.3934676   -1.4006646   -6.7842801  
C   -0.3540361    0.1690980   -7.4757952  
C   -1.4036916    0.8878354   -7.0164749  
O   -2.1602966    1.6877211   -7.7870411  
C   -1.8141040    0.8478723   -5.5818582  
O   -2.7793015    1.5279657   -5.2338823  
C   -1.0641735    0.0073886   -4.6315339  
H    0.9893834   -1.9243529   -3.4739062  
H   -2.8242388    2.0612889   -7.1797676  
H    2.5801840   -2.6761212   -5.4947512  
C    1.0768902   -2.8379784  -10.4379542  
C    0.6346861   -2.2821858   -9.2859427  
C    0.4633502   -0.8703327   -9.5922344  
C    0.8585145   -0.7462855  -11.0117551  
N    1.2190611   -1.8964443  -11.5128850  
C    0.8285757    0.5134640  -11.7025678  
C    0.4219669    1.5998359  -11.0070099  
O    0.3452714    2.8373950  -11.5252818  
C    0.0164983    1.5068855   -9.5734419  
O   -0.3426852    2.5366552   -9.0026685  
C    0.0559137    0.2033323   -8.8870601  
H    0.4477554   -2.7700540   -8.3446050  
H    1.1230070    0.5750331  -12.7400785  
H    0.0258411    3.3938651  -10.7921668  
H    1.3233658   -3.8710268  -10.6251265  
C    2.5128556    2.1077716    2.9199648  
C    1.9592212    1.6432552    4.0696553  
C    0.8915788    0.7479214    3.6910360  
C    0.8684491    0.7287414    2.2159470  
N    1.8754542    1.5738793    1.8102719  
C    0.0000000    0.0000000    1.4700000  
C   -0.9772830   -0.8200135    2.1664417  
O   -1.8021297   -1.5120829    1.5842315  
C   -0.9711318   -0.8147624    3.7284083  
O   -1.7894187   -1.5009653    4.3257297  
C    0.0140216    0.0115358    4.4216297  
H    2.2638494    1.8988021    5.0689105  
H    0.0117648    0.0094386    5.5031631  
H    3.3327358    2.7953732    2.7900019  
H    2.1123206    1.7707734    0.8551938  
