60

C    3.3003554    0.0005275   -1.4738975  
C    2.5232827    0.0003497   -2.6090740  
C    1.1623211   -0.0001319   -2.1820099  
C    1.1711890    0.0000583   -0.7636141  
N    2.4852306   -0.0014920   -0.3662352  
C    0.0000000    0.0000000    0.0000000  
C   -1.2020378    0.0000520   -0.6806492  
O   -2.3759248    0.0003494    0.0157734  
C   -1.2314647   -0.0005112   -2.0955518  
O   -2.5054372   -0.0008040   -2.6250194  
C   -0.0764503   -0.0007272   -2.8495197  
H    2.8036265    0.0088180    0.5858672  
H   -3.0835629    0.0000346   -0.6418836  
H   -2.4360026   -0.0011529   -3.5845934  
H   -0.1304076   -0.0013421   -3.9319090  
H    4.3715558    0.0004894   -1.3667123  
C    5.8850916   -2.1080195   -4.4895946  
C    5.7585092   -1.6448898   -5.7598557  
C    4.6253957   -0.7500321   -5.7707340  
C    4.0984513   -0.7296202   -4.3927996  
N    4.9059599   -1.5736631   -3.6658808  
C    3.0267455   -0.0008953   -3.9901691  
C    2.3467568    0.8177993   -4.9800632  
O    1.3721096    1.5097462   -4.7162941  
C    2.8874985    0.8112302   -6.4454502  
O    2.3229968    1.4963166   -7.2876231  
C    4.0508325   -0.0149200   -6.7584714  
H    6.3870557   -1.9010556   -6.5940756  
H    6.6111569   -2.7948990   -4.0859675  
H    4.8014757   -1.7695719   -2.6872337  
C    5.0046063   -1.0921491   -8.8296776  
C    4.5514101   -0.0133167   -8.1406143  
C    4.6569181    1.1245978   -9.0231423  
C    5.2126892    0.6166237  -10.2919481  
N    5.4013842   -0.7338778  -10.1091113  
C    5.4633904    1.3834431  -11.3832051  
C    5.1661986    2.8039069  -11.3026171  
O    5.3567373    3.5780340  -12.2314458  
C    4.5772870    3.3635618   -9.9685347  
O    4.3233862    4.5578949   -9.8887640  
C    4.3503264    2.4383325   -8.8611536  
H    5.8712181    0.9909464  -12.3043634  
H    3.9421307    2.8337532   -7.9409680  
H    5.0823148   -2.1187475   -8.5103873  
H    5.7686626   -1.3627614  -10.7995158  
C    2.5128556    2.1077716    2.9199648  
C    1.9592212    1.6432552    4.0696553  
C    0.8915788    0.7479214    3.6910360  
C    0.8684491    0.7287414    2.2159470  
N    1.8754542    1.5738793    1.8102719  
C    0.0000000    0.0000000    1.4700000  
C   -0.9772830   -0.8200135    2.1664417  
O   -1.8021297   -1.5120829    1.5842315  
C   -0.9711318   -0.8147624    3.7284083  
O   -1.7894187   -1.5009653    4.3257297  
C    0.0140216    0.0115358    4.4216297  
H    2.2638494    1.8988021    5.0689105  
H    0.0117648    0.0094386    5.5031631  
H    3.3327358    2.7953732    2.7900019  
H    2.1123206    1.7707734    0.8551938  
