58

C    1.0965521    0.0001356   -0.8010302  
C    0.0000000    0.0000000    0.0000000  
C   -1.1546560    0.0001467   -0.8669510  
C   -0.6372006    0.0003515   -2.2486281  
N    0.7342880    0.0007335   -2.1395007  
C   -1.4147728    0.0001348   -3.3608716  
C   -2.8576040   -0.0001053   -3.1854462  
O   -3.6427765   -0.0002499   -4.1244912  
C   -3.4275834   -0.0000730   -1.7311671  
O   -4.6406818    0.0000327   -1.5710068  
C   -2.4891864   -0.0001095   -0.6116748  
H   -1.0150434    0.0001608   -4.3654244  
H   -2.8919115   -0.0002922    0.3920854  
H    2.1388274    0.0000661   -0.5261636  
C    2.8307257   -0.6880607   -3.3923502  
C    1.6707653   -0.0012348   -3.2725965  
C    1.5453254    0.7428534   -4.5164204  
C    2.7497158    0.3772354   -5.2925334  
N    3.5069284   -0.4613286   -4.6387523  
C    3.0021459    0.9119173   -6.6022969  
C    2.0925382    1.7724233   -7.1136459  
O    2.2005243    2.3472960   -8.3235639  
C    0.8669372    2.1606445   -6.3551297  
O    0.0821165    2.9489995   -6.8821727  
C    0.6306007    1.5985956   -5.0134255  
H    1.4056028    2.9046132   -8.4051099  
H   -0.2691091    1.9048120   -4.4967206  
H    3.2814308   -1.3598180   -2.6792018  
C    4.9623540   -2.9642148   -6.9496920  
C    6.0118774   -2.6814668   -7.7560003  
C    5.8907463   -1.2608030   -8.0450357  
C    4.6793215   -0.8334248   -7.3126551  
N    4.1308663   -1.8276316   -6.6686526  
C    4.2112725    0.5249103   -7.3433362  
C    4.9213827    1.4158799   -8.0722061  
O    4.5998919    2.7154592   -8.1895865  
C    6.1483802    1.0153970   -8.8220392  
O    6.7450237    1.8791345   -9.4648420  
C    6.6081309   -0.3840053   -8.7748413  
H    6.7741645   -3.3538914   -8.1107384  
H    5.2886708    3.0900140   -8.7678984  
H    7.5013999   -0.6336740   -9.3315877  
H    4.6963855   -3.9143421   -6.5143849  
C    2.5128556    2.1077716    2.9199648  
C    1.9592212    1.6432552    4.0696553  
C    0.8915788    0.7479214    3.6910360  
C    0.8684491    0.7287414    2.2159470  
N    1.8754542    1.5738793    1.8102719  
C    0.0000000    0.0000000    1.4700000  
C   -0.9772830   -0.8200135    2.1664417  
O   -1.8021297   -1.5120829    1.5842315  
C   -0.9711318   -0.8147624    3.7284083  
O   -1.7894187   -1.5009653    4.3257297  
C    0.0140216    0.0115358    4.4216297  
H    2.2638494    1.8988021    5.0689105  
H    0.0117648    0.0094386    5.5031631  
H    3.3327358    2.7953732    2.7900019  
H    2.1123206    1.7707734    0.8551938  
