58

C    3.9142818   -0.7071694   -4.5248283  
C    2.8699637   -0.0020521   -4.0185831  
C    2.2908370    0.7380406   -5.1148085  
C    3.0890706    0.4038774   -6.3097766  
N    4.0573679   -0.4761754   -5.8845736  
C    2.8596370    0.9012247   -7.5514328  
C    1.7527753    1.8276227   -7.7222502  
O    1.4651457    2.3301695   -8.8006830  
C    0.8942534    2.1958002   -6.4703751  
O   -0.0400358    2.9749498   -6.6018683  
C    1.2387380    1.5950182   -5.1842014  
H    0.6392473    1.8549643   -4.3223645  
H    4.5915378   -1.3759566   -4.0189254  
H    4.7585941   -0.8888240   -6.4719833  
C    3.2573672   -0.0002917   -1.5109389  
C    2.5379468   -0.0001708   -0.3591970  
C    1.1435042    0.0000333   -0.7338502  
C    1.1092604   -0.0000078   -2.2088477  
N    2.4227558    0.0001914   -2.6182614  
C   -0.0265536   -0.0002519   -2.9515664  
C   -1.3003041   -0.0002636   -2.2514980  
O   -2.3786785   -0.0004129   -2.8306427  
C   -1.2877727    0.0000313   -0.6895608  
O   -2.3539957    0.0003307   -0.0892033  
C    0.0000000    0.0000000    0.0000000  
H    2.9384094   -0.0000368    0.6389235  
H   -0.0296297   -0.0004079   -4.0327233  
H    4.3270392   -0.0004761   -1.6439453  
C    4.6378790   -2.9028459   -8.9164723  
C    3.9725468   -1.9448690   -8.2209952  
C    4.1235750   -0.7105167   -8.9547526  
C    4.9372428   -1.0301952  -10.1432561  
N    5.2165638   -2.3748288  -10.0606142  
C    5.3017089   -0.1293353  -11.0905261  
C    4.8635302    1.2470041  -10.9285897  
O    5.1399977    2.1324115  -11.7272879  
C    4.0011561    1.6081048   -9.6773014  
O    3.6266957    2.7636919   -9.5301309  
C    3.6719573    0.5502398   -8.7252497  
H    3.4372310   -2.0866902   -7.2990743  
H    5.8989014   -0.3845900  -11.9548858  
H    4.7543159   -3.9500969   -8.6893208  
H    5.7558446   -2.8932090  -10.7295734  
C    2.3971438    2.0127888    3.1728260  
C    1.9431056    1.6308205    1.9564670  
C    0.8496017    0.7127664    2.2356185  
C    0.7794028    0.6545384    3.7115134  
N    1.6840587    1.4146091    4.2663826  
C   -0.1885723   -0.1578550    4.3957118  
C   -1.0476298   -0.8789867    3.6398520  
O   -2.0015663   -1.6796266    4.1448486  
C   -1.0022026   -0.8410666    2.1483229  
O   -1.8147390   -1.5232959    1.5241687  
C    0.0000000    0.0000000    1.4700000  
H    2.3054237    1.9346118    0.9892483  
H   -0.2170646   -0.1815267    5.4753125  
H   -2.4487139   -2.0549881    3.3649027  
H    3.2048689    2.6911772    3.3971983  
