62

C   -1.0600880    0.3578720   -0.8003809  
C    0.0000000    0.0000000    0.0000000  
C    1.0723465   -0.3638283   -0.8673532  
C    0.6039544   -0.2064601   -2.1969283  
N   -0.6949886    0.2311254   -2.1202243  
C    1.3982713   -0.4760683   -3.3154816  
C    2.6890373   -0.9121986   -3.0876864  
O    3.5076868   -1.1896025   -4.1440359  
C    3.1744724   -1.0757325   -1.7684340  
O    4.4800566   -1.5173848   -1.7073138  
C    2.3913294   -0.8102044   -0.6644828  
H    1.0471682   -0.3582738   -4.3313815  
H    4.3508854   -1.4746720   -3.7685146  
H    4.7297315   -1.6013374   -0.7819926  
H    2.7906098   -0.9449513    0.3339647  
H   -2.0482056    0.6921376   -0.5342067  
C   -3.6619622    3.4892605   -2.8760568  
C   -2.7122822    2.6722983   -2.3075956  
C   -2.4221189    1.6479635   -3.2568813  
C   -3.2317754    1.8939913   -4.3952368  
N   -3.9736962    3.0181772   -4.1299509  
C   -3.2069868    1.0793735   -5.5312701  
C   -2.3490069   -0.0031571   -5.5180174  
O   -2.2847068   -0.8310567   -6.6012813  
C   -1.5335498   -0.2653645   -4.3914763  
O   -0.7335736   -1.3805686   -4.5318412  
C   -1.5576823    0.5376962   -3.2702998  
H   -2.2824358    2.7984258   -1.3286589  
H   -4.6322440    3.4407172   -4.7590424  
H   -3.8216741    1.2614028   -6.4020326  
H   -1.6337897   -1.5117954   -6.3864163  
H   -0.2155420   -1.4863912   -3.7280697  
C   -4.3183509    4.6917492   -2.3430693  
C   -4.1445990    5.3005980   -1.1417417  
C   -5.0287173    6.4418815   -1.1164082  
C   -5.7368905    6.4480544   -2.4107205  
N   -5.2608031    5.3618927   -3.1082039  
C   -6.6622312    7.3709135   -2.7764784  
C   -6.9818671    8.4288252   -1.8324486  
O   -7.8013410    9.3069377   -2.0684160  
C   -6.2438337    8.4419465   -0.4558805  
O   -6.5044502    9.3278866    0.3468965  
C   -5.2663426    7.3931728   -0.1758156  
H   -3.4735243    4.9862094   -0.3623621  
H   -7.1702099    7.3572546   -3.7307744  
H   -4.7598626    7.4092793    0.7796650  
H   -5.5543930    5.0957223   -4.0301614  
C    0.8681109    0.7263879    2.2709268  
C    0.6127770    0.5096195    3.5869401  
C   -0.4920590   -0.4175482    3.6542670  
C   -0.8620974   -0.7254003    2.2596025  
N    0.0000000    0.0000000    1.4700000  
C   -1.8641242   -1.5660088    1.8976294  
C   -2.6293522   -2.2103885    2.9520183  
O   -3.5512764   -2.9839180    2.7283916  
C   -2.2549728   -1.8987399    4.4361073  
O   -2.8923672   -2.4351063    5.3323774  
C   -1.1543735   -0.9755647    4.7012123  
H    1.1382914    0.9492124    4.4159191  
H   -2.1192137   -1.7782617    0.8686553  
H   -0.9013378   -0.7652422    5.7314848  
H    1.6172880    1.3558399    1.8188057  
