58

C    0.0000000    0.0000000    0.0000000  
C    1.0541693   -0.0001721   -0.8560389  
C    0.5103146   -0.0000453   -2.1935956  
C   -0.9576361    0.0002459   -2.0455734  
N   -1.2018454   -0.0001390   -0.6915973  
C   -1.8348302    0.0008319   -3.0810614  
C   -1.2972832    0.0009738   -4.4314609  
O   -2.0050656    0.0014267   -5.4301325  
C    0.2542641    0.0004187   -4.6117571  
O    0.7184691    0.0002259   -5.7439122  
C    1.0974562    0.0000874   -3.4189126  
H    2.0940753   -0.0005483   -0.5817979  
H    2.1707291   -0.0000911   -3.5523664  
H   -2.1128190    0.0014913   -0.2706797  
C   -4.3137495    2.1424312   -0.2077343  
C   -5.5591243    1.7353211   -0.5466770  
C   -5.3648100    0.8246403   -1.6644436  
C   -3.9011707    0.7979208   -1.8733231  
N   -3.2797683    1.5684038   -1.0223210  
C   -3.2941063    0.0012876   -2.9038251  
C   -4.1120047   -0.7354735   -3.6896749  
O   -3.6822278   -1.5242476   -4.6892580  
C   -5.5930489   -0.7299487   -3.5035615  
O   -6.2763249   -1.4248014   -4.2555819  
C   -6.1916574    0.0955196   -2.4395156  
H   -4.4926424   -1.9161854   -5.0617706  
H   -7.2683261    0.0718761   -2.3372602  
H   -4.0287176    2.8244777    0.5774679  
C   -6.9126413    5.6104567    0.9157902  
C   -8.1575835    5.3267013    1.3643241  
C   -8.3343590    3.9058615    1.1065170  
C   -7.0636926    3.4794949    0.4818556  
N   -6.2263849    4.4743986    0.3675211  
C   -6.8358058    2.1213106    0.0713809  
C   -7.8318830    1.2295190    0.2760079  
O   -7.7561257   -0.0700303   -0.0578677  
C   -9.1256244    1.6289712    0.9043654  
O   -9.9880345    0.7645194    1.0599038  
C   -9.3351615    3.0282383    1.3167618  
H   -8.8681527    5.9985702    1.8146099  
H   -8.6143728   -0.4452840    0.2099922  
H  -10.2861261    3.2771481    1.7683577  
H   -6.4034347    6.5610166    0.9266725  
C    3.2573670    0.0002920    2.9809380  
C    2.5379467    0.0001709    1.8291961  
C    1.1435042   -0.0000331    2.2038498  
C    1.1092607    0.0000083    3.6788474  
N    2.4227561   -0.0001909    4.0882609  
C   -0.0265533    0.0002524    4.4215661  
C   -1.3003036    0.0002640    3.7214979  
O   -2.3786784    0.0004133    4.3006425  
C   -1.2877726   -0.0000311    2.1595606  
O   -2.3539958   -0.0003306    1.5592035  
C    0.0000000    0.0000000    1.4700000  
H    2.9384090    0.0000368    0.8310761  
H   -0.0296291    0.0004086    5.5027230  
H    4.3270393    0.0004765    3.1139444  
H    2.7280493    0.0013407    5.0442112  
