58

C    0.4770118   -0.8916706   -9.6256167  
C    0.7879497   -0.5308498  -10.8973080  
C    0.5572574    0.8908017  -10.9998926  
C    0.0830594    1.3318129   -9.6742093  
N    0.0562974    0.2038165   -8.8869372  
C   -0.2443326    2.6110817   -9.3611764  
C   -0.1216767    3.6209583  -10.3992724  
O   -0.3923071    4.8006083  -10.2162770  
C    0.3783498    3.1763375  -11.8106863  
O    0.4853165    4.0176496  -12.6927358  
C    0.7010758    1.7682269  -12.0273065  
H    1.1386962   -1.1858748  -11.6748248  
H   -0.5900467    2.9135446   -8.3824494  
H    1.0468144    1.4685926  -13.0073089  
H    0.5196097   -1.8657400   -9.1659812  
C    1.7371422   -2.0043750   -5.5274505  
C    0.9346266   -1.6238670   -4.5062936  
C   -0.0220098   -0.7047840   -5.1034811  
C    0.3601280   -0.6444241   -6.5306852  
N    1.3906155   -1.4042325   -6.7851963  
C   -0.3537176    0.1694996   -7.4756927  
C   -1.4019189    0.8900579   -7.0159054  
O   -2.1569101    1.6919658   -7.7859521  
C   -1.8124079    0.8499980   -5.5813134  
O   -2.7762301    1.5318137   -5.2328955  
C   -1.0641734    0.0073898   -4.6315339  
H    0.9854833   -1.9292388   -3.4751597  
H   -2.8200953    2.0664814   -7.1784361  
H    2.5747583   -2.6829136   -5.4964944  
C    1.1319248    0.0015675   -0.8009270  
C    0.7969916    0.0034959   -2.1169404  
C   -0.6453336    0.0035703   -2.1842672  
C   -1.1266831    0.0015415   -0.7896027  
N    0.0000000    0.0000000    0.0000000  
C   -2.4346129    0.0013924   -0.4276297  
C   -3.4350110    0.0031352   -1.4820184  
O   -4.6384610    0.0030897   -1.2583919  
C   -2.9478958    0.0050460   -2.9661075  
O   -3.7809377    0.0062160   -3.8623775  
C   -1.5113821    0.0053068   -3.2312125  
H    1.4821240    0.0045436   -2.9459192  
H   -2.7664565    0.0000185    0.6013447  
H    2.1104318    0.0009428   -0.3488058  
C    0.0000000    0.0000000    1.4700000  
C    1.0662921    0.0000102    2.3034270  
C    0.4961870   -0.0000064    3.6418889  
C   -0.9663858    0.0000850    3.4240247  
N   -1.2632773    0.0000084    2.1528658  
C   -1.8985362    0.0000517    4.5177257  
C   -1.3925775   -0.0004564    5.7720543  
O   -2.1456383   -0.0005410    6.8851312  
C    0.0786232   -0.0009323    6.0245000  
O    0.4683759   -0.0012588    7.1921102  
C    1.0143166   -0.0008442    4.8859032  
H    2.1107198   -0.0000632    2.0421868  
H   -2.9622183    0.0003270    4.3293377  
H   -1.5042274   -0.0009692    7.6184419  
H    2.0724152   -0.0013148    5.1109744  
