60

C    0.0000000    0.0000000    0.0000000  
C    1.0521666   -0.0011919   -0.8862347  
C    0.4917214   -0.0011970   -2.1979137  
C   -0.9187430    0.0003150   -2.0478685  
N   -1.1833169   -0.0009400   -0.7007914  
C   -1.7951704    0.0010362   -3.1372093  
C   -1.2375839    0.0005226   -4.4010426  
O   -2.0474219    0.0015368   -5.4997582  
C    0.1673578   -0.0013584   -4.5711968  
O    0.5673517   -0.0020713   -5.8915553  
C    1.0325771   -0.0023435   -3.4969896  
H    2.0953056   -0.0030677   -0.6200564  
H   -2.0989775    0.0102397   -0.2891824  
H   -1.4634892    0.0006500   -6.2693593  
H    1.5290702   -0.0033188   -5.9180049  
H    2.1042143   -0.0039648   -3.6584464  
C   -3.9705525    0.7070975   -2.0745739  
C   -3.2578656    0.0024070   -2.9908506  
C   -4.2093235   -0.7382521   -3.7851983  
C   -5.5443152   -0.4048853   -3.2527939  
N   -5.3302022    0.4752933   -2.2172597  
C   -6.7108617   -0.9029277   -3.7353163  
C   -6.6473155   -1.8292862   -4.8535100  
O   -7.6421039   -2.3324251   -5.3590286  
C   -5.2441074   -2.1966257   -5.4330563  
O   -5.1780557   -2.9757341   -6.3742720  
C   -4.0579927   -1.5951374   -4.8287417  
H   -3.0902117   -1.8545058   -5.2359909  
H   -3.6168779    1.3760943   -1.3069498  
H   -6.0507890    0.8875112   -1.6534528  
C   -8.0281028   -0.5527294   -3.1847368  
C   -8.3064226    0.2814124   -2.1559883  
C   -9.7562818    0.2604382   -2.0378033  
C  -10.2036782   -0.6631921   -3.1023822  
N   -9.1950566   -1.1430478   -3.7779632  
C  -11.5932830   -0.9582940   -3.3191729  
C  -12.4949291   -0.3582767   -2.5090179  
O  -13.8232068   -0.5420515   -2.5981615  
C  -12.0747051    0.5784400   -1.4254430  
O  -12.9497127    1.0886699   -0.7259805  
C  -10.6433165    0.8649999   -1.2231218  
H   -7.6134322    0.8416751   -1.5518803  
H  -11.8918432   -1.6369933   -4.1047544  
H  -14.1984680    0.0146438   -1.8921715  
H  -10.3800692    1.5489606   -0.4274281  
C    3.2798086   -0.0005857    2.9199648  
C    2.5571146   -0.0005566    4.0696553  
C    1.1637436   -0.0001548    3.6910360  
C    1.1336965    0.0000200    2.2159470  
N    2.4483514    0.0001428    1.8102719  
C    0.0000000    0.0000000    1.4700000  
C   -1.2757367    0.0000186    2.1664417  
O   -2.3524596    0.0000640    1.5842315  
C   -1.2676493    0.0000873    3.7284083  
O   -2.3355761    0.0004100    4.3257297  
C    0.0181563   -0.0001760    4.4216297  
H    2.9547357   -0.0006076    5.0689105  
H    0.0150794   -0.0003319    5.5031631  
H    4.3498549   -0.0008612    2.7900019  
H    2.7563627   -0.0012824    0.8551938  
