58

C    4.7540782   -4.3596637   -8.6280432  
C    5.5557958   -5.0059184   -7.7427860  
C    5.1295535   -4.6093365   -6.4214699  
C    4.0057168   -3.6723667   -6.6108631  
N    3.8284516   -3.5633828   -7.9708589  
C    3.3259257   -3.0728570   -5.6008252  
C    3.7281187   -3.3701099   -4.2361212  
O    3.1784716   -2.8805716   -3.2580917  
C    4.9159446   -4.3594010   -4.0121192  
O    5.2637070   -4.6170639   -2.8675965  
C    5.5706368   -4.9428667   -5.1803656  
H    6.3547241   -5.6830111   -7.9874746  
H    6.3921131   -5.6270491   -5.0166801  
H    4.7617150   -4.3979545   -9.7052452  
H    3.1324264   -2.9947221   -8.4172009  
C    2.2088371   -2.1426203   -5.8191641  
C    1.6816905   -1.7351237   -6.9971466  
C    0.6077895   -0.8240074   -6.6323121  
C    0.6276204   -0.7974852   -5.1539729  
N    1.5640842   -1.5684497   -4.6716465  
C   -0.2963293   -0.0005341   -4.3948471  
C   -1.1988050    0.7367192   -5.0813820  
O   -2.1196091    1.5258333   -4.5021932  
C   -1.2438091    0.7314050   -6.5733964  
O   -2.0920757    1.4267093   -7.1321594  
C   -0.2854243   -0.0943970   -7.3293552  
H    1.9842845   -2.0178252   -7.9909238  
H   -2.6127110    1.9180870   -5.2452546  
H   -0.3507734   -0.0705869   -8.4088885  
C    3.1301146   -0.0010313   -1.7028256  
C    2.5367765   -0.0002766   -0.4864669  
C    1.1089901    0.0001027   -0.7656184  
C    1.0177865   -0.0004150   -2.2415133  
N    2.1993571   -0.0011612   -2.7963824  
C   -0.2459219   -0.0002879   -2.9257116  
C   -1.3675326   -0.0000606   -2.1698520  
O   -2.6129318    0.0000865   -2.6748483  
C   -1.3083588    0.0000910   -0.6783229  
O   -2.3693264    0.0004206   -0.0541685  
C    0.0000000    0.0000000    0.0000000  
H    3.0096016   -0.0001007    0.4807518  
H   -3.1967444    0.0002093   -1.8949026  
H    4.1849275   -0.0015114   -1.9271979  
C    2.3971438    2.0127888    3.1728260  
C    1.9431056    1.6308205    1.9564670  
C    0.8496017    0.7127664    2.2356185  
C    0.7794028    0.6545384    3.7115134  
N    1.6840587    1.4146091    4.2663826  
C   -0.1885723   -0.1578550    4.3957118  
C   -1.0476298   -0.8789867    3.6398520  
O   -2.0015663   -1.6796266    4.1448486  
C   -1.0022026   -0.8410666    2.1483229  
O   -1.8147390   -1.5232959    1.5241687  
C    0.0000000    0.0000000    1.4700000  
H    2.3054237    1.9346118    0.9892483  
H   -0.2170646   -0.1815267    5.4753125  
H   -2.4487139   -2.0549881    3.3649027  
H    3.2048689    2.6911772    3.3971983  
