60

C    2.5586921   -2.1046948   -5.9372711  
C    1.9655210   -1.6405067   -7.0672059  
C    0.9106443   -0.7462542   -6.6520152  
C    0.9380920   -0.7273508   -5.1769970  
N    1.9592138   -1.5716006   -4.8062647  
C    0.0950450    0.0004357   -4.4015596  
C   -0.9063191    0.8196397   -5.0639116  
O   -1.7113695    1.5108238   -4.4536174  
C   -0.9537274    0.8146639   -6.6251719  
O   -1.7926638    1.5001914   -7.1939419  
C    0.0078555   -0.0105774   -7.3519368  
H    2.2359458   -1.8955912   -8.0763715  
H   -0.0314885   -0.0082957   -8.4327559  
H    3.3831957   -2.7915389   -5.8356403  
H    2.2288772   -1.7684340   -3.8599111  
C    3.3321174    0.0004722   -1.3379336  
C    2.6974183    0.0000122   -2.5332313  
C    1.2800441   -0.0002113   -2.2052840  
C    1.2395036    0.0000646   -0.7271298  
N    2.4394063    0.0005463   -0.2131037  
C    0.0000000    0.0000000    0.0000000  
C   -1.1468699    0.0000637   -0.7169543  
O   -2.3742201    0.0000076   -0.1695489  
C   -1.1388769    0.0001611   -2.2096357  
O   -2.2206234    0.0000908   -2.7970412  
C    0.1454523    0.0001820   -2.9324241  
H    3.1367987   -0.0000643   -3.5160945  
H   -2.9844345    0.0001025   -0.9290168  
C    7.0021989    0.0016971   -3.8667564  
C    5.7010045    0.0007403   -3.4946377  
C    5.7268792    0.0007373   -2.0400482  
C    7.1642511    0.0016716   -1.6928538  
N    7.9166777    0.0023179   -2.7595512  
C    7.6175805    0.0019955   -0.3291898  
C    6.6777002    0.0018013    0.6434149  
O    6.9577668    0.0020529    1.9577983  
C    5.2193470    0.0012357    0.3250326  
O    4.4197302    0.0009619    1.2608921  
C    4.7795905    0.0008679   -1.0815729  
H    4.8310660    0.0002041   -4.1288953  
H    8.6741772    0.0024749   -0.1044381  
H    6.0879589    0.0018434    2.3966459  
H    7.4070866    0.0020149   -4.8662758  
C    0.0000000    0.0000000    1.4700000  
C    1.0521667    0.0011902    2.3562342  
C    0.4917218    0.0011957    3.6679131  
C   -0.9187428   -0.0003148    3.5178682  
N   -1.1833171    0.0009411    2.1707914  
C   -1.7951701   -0.0010350    4.6072090  
C   -1.2375837   -0.0005224    5.8710424  
O   -2.0474215   -0.0015360    6.9697579  
C    0.1673580    0.0013566    6.0411963  
O    0.5673524    0.0020687    7.3615553  
C    1.0325770    0.0023412    4.9669890  
H    2.0953057    0.0030649    2.0900562  
H   -2.0989778   -0.0102372    1.7591824  
H   -2.8710934   -0.0020419    4.4995513  
H   -1.4634884   -0.0006497    7.7393593  
H    1.5290710    0.0033153    7.3880045  
H    2.1042148    0.0039609    5.1284455  
