58

C    3.2573667   -0.0002917   -1.5109387  
C    2.5379466   -0.0001708   -0.3591965  
C    1.1435039    0.0000333   -0.7338496  
C    1.1092602   -0.0000079   -2.2088478  
N    2.4227556    0.0001913   -2.6182614  
C   -0.0265539   -0.0002519   -2.9515658  
C   -1.3003042   -0.0002636   -2.2514974  
O   -2.3786792   -0.0004127   -2.8306423  
C   -1.2877729    0.0000313   -0.6895599  
O   -2.3539955    0.0003308   -0.0892027  
C    0.0000000    0.0000000    0.0000000  
H    2.9384091   -0.0000368    0.6389234  
H   -0.0296299   -0.0004080   -4.0327229  
H    4.3270391   -0.0004762   -1.6439451  
C    5.7040760   -2.1117448   -4.6322123  
C    5.5266106   -1.6490474   -5.8965271  
C    4.3947065   -0.7532596   -5.8619888  
C    3.9239241   -0.7318311   -4.4638842  
N    4.7594826   -1.5762332   -3.7698261  
C    2.8699633   -0.0020522   -4.0185829  
C    2.1511670    0.8167852   -4.9805456  
O    1.1885412    1.5096475   -4.6779003  
C    2.6322106    0.8091512   -6.4665954  
O    2.0346721    1.4943476   -7.2855669  
C    3.7812694   -0.0180907   -6.8260217  
H    6.1207052   -1.9060837   -6.7553617  
H    6.4453131   -2.7990531   -4.2579595  
H    4.6944954   -1.7716423   -2.7876661  
C    5.2083011   -3.2466408   -9.4381824  
C    5.4358887   -2.5344839  -10.5718100  
C    5.0899842   -1.1625600  -10.2836947  
C    4.6390139   -1.1336099   -8.8792096  
N    4.7343297   -2.4284312   -8.4239715  
C    4.2255542   -0.0174839   -8.2272752  
C    4.2244401    1.2391076   -8.9576940  
O    3.8698551    2.2991839   -8.4588862  
C    4.6977971    1.2317762  -10.4462108  
O    4.7009061    2.2836289  -11.0713972  
C    5.1208152   -0.0341147  -11.0398680  
H    5.8038928   -2.9256279  -11.5035787  
H    5.4473279   -0.0306111  -12.0709360  
H    5.3467512   -4.3003961   -9.2584024  
H    4.4980947   -2.7318980   -7.4970691  
C    0.0000000    0.0000000    1.4700000  
C    1.0541688    0.0001722    2.3260392  
C    0.5103138    0.0000454    3.6635956  
C   -0.9576371   -0.0002459    3.5155732  
N   -1.2018458    0.0001392    2.1615969  
C   -1.8348311   -0.0008317    4.5510609  
C   -1.2972847   -0.0009736    5.9014604  
O   -2.0050672   -0.0014265    6.9001319  
C    0.2542623   -0.0004184    6.0817573  
O    0.7184670   -0.0002256    7.2139121  
C    1.0974552   -0.0000873    4.8889129  
H    2.0940752    0.0005483    2.0517982  
H   -2.9081052   -0.0011668    4.4207061  
H    2.1707277    0.0000911    5.0223670  
H   -2.1128194   -0.0014912    1.7406791  
