58

C    2.5250695   -2.1043380   -5.8790416  
C    1.9676431   -1.6402804   -7.0270846  
C    0.9000735   -0.7462062   -6.6452972  
C    0.8811187   -0.7272652   -5.1701460  
N    1.8902262   -1.5713252   -4.7674616  
C    0.0139742    0.0003886   -4.4216236  
C   -0.9662103    0.8193997   -5.1151612  
O   -1.7901772    1.5104543   -4.5305051  
C   -0.9644970    0.8143811   -6.6771399  
O   -1.7852530    1.4997467   -7.2720298  
C    0.0196115   -0.0107054   -7.3732831  
H    2.2697152   -1.8953392   -8.0272394  
H    3.3460911   -2.7910332   -5.7515134  
H    2.1300305   -1.7680898   -3.8130903  
C    3.2798086    0.0005858   -1.4499647  
C    2.5571147    0.0005568   -2.5996550  
C    1.1637435    0.0001551   -2.2210360  
C    1.1336965   -0.0000198   -0.7459472  
N    2.4483513   -0.0001427   -0.3402712  
C    0.0000000    0.0000000    0.0000000  
C   -1.2757369   -0.0000185   -0.6964413  
O   -2.3524596   -0.0000638   -0.1142313  
C   -1.2676493   -0.0000871   -2.2584077  
O   -2.3355763   -0.0004095   -2.8557296  
C    0.0181562    0.0001764   -2.9516296  
H    2.9547357    0.0006079   -3.5989103  
H    4.3498549    0.0008613   -1.3200020  
H    2.7563627    0.0012823    0.6148065  
C    0.5792570   -3.2337956  -10.3027583  
C    0.4471929   -2.5198504  -11.4503281  
C    0.2050341   -1.1488084  -11.0676555  
C    0.2068860   -1.1223246   -9.5924993  
N    0.4386343   -2.4175872   -9.1906574  
C    0.0123589   -0.0076463   -8.8432623  
C   -0.2141583    1.2498783   -9.5359793  
O   -0.3995956    2.3087902   -8.9506419  
C   -0.2205181    1.2451540  -11.0979471  
O   -0.4105100    2.2978115  -11.6921482  
C    0.0011443   -0.0193496  -11.7949032  
H    0.5118373   -2.9092562  -12.4507269  
H   -0.0045762   -0.0140422  -12.8764129  
H    0.7672673   -4.2875758  -10.1759141  
H    0.4986054   -2.7225907   -8.2364962  
C    2.5128556    2.1077716    2.9199648  
C    1.9592212    1.6432552    4.0696553  
C    0.8915788    0.7479214    3.6910360  
C    0.8684491    0.7287414    2.2159470  
N    1.8754542    1.5738793    1.8102719  
C    0.0000000    0.0000000    1.4700000  
C   -0.9772830   -0.8200135    2.1664417  
O   -1.8021297   -1.5120829    1.5842315  
C   -0.9711318   -0.8147624    3.7284083  
O   -1.7894187   -1.5009653    4.3257297  
C    0.0140216    0.0115358    4.4216297  
H    2.2638494    1.8988021    5.0689105  
H    0.0117648    0.0094386    5.5031631  
H    3.3327358    2.7953732    2.7900019  
H    2.1123206    1.7707734    0.8551938  
