58

C    6.6685704   -0.0005965    0.8976881  
C    7.6427401   -0.0013903   -0.0483928  
C    6.9825042   -0.0021114   -1.3324971  
C    5.5334437   -0.0016402   -1.0549828  
N    5.4101705   -0.0011222    0.3153067  
C    4.5679461   -0.0016852   -2.0086700  
C    4.9837201   -0.0024604   -3.4013893  
O    4.1902299   -0.0026236   -4.3334165  
C    6.5131876   -0.0032213   -3.7184579  
O    6.8752472   -0.0041837   -4.8872919  
C    7.4587617   -0.0028164   -2.6050207  
H    8.7028563   -0.0016447    0.1326236  
H    8.5159862   -0.0031429   -2.8330514  
H    6.7640836    0.0001114    1.9713577  
H    4.5400774    0.0008358    0.8152880  
C    3.1301152   -0.0010311   -1.7028251  
C    2.5367770   -0.0002766   -0.4864665  
C    1.1089905    0.0001028   -0.7656183  
C    1.0177873   -0.0004148   -2.2415130  
N    2.1993580   -0.0011610   -2.7963820  
C   -0.2459208   -0.0002877   -2.9257119  
C   -1.3675318   -0.0000605   -2.1698523  
O   -2.6129310    0.0000866   -2.6748492  
C   -1.3083584    0.0000911   -0.6783232  
O   -2.3693259    0.0004206   -0.0541692  
C    0.0000000    0.0000000    0.0000000  
H    3.0096019   -0.0001007    0.4807529  
H   -3.1967440    0.0002093   -1.8949035  
C    2.1650280   -2.1089222   -5.9297634  
C    1.5723618   -1.6445161   -7.0598735  
C    0.5184584   -0.7489600   -6.6450207  
C    0.5459270   -0.7295295   -5.1700093  
N    1.5661299   -1.5747492   -4.7989581  
C   -0.2963281   -0.0005339   -4.3948471  
C   -1.2968006    0.8195084   -5.0575089  
O   -2.1010989    1.5117980   -4.4474761  
C   -1.3442148    0.8139947   -6.6187672  
O   -2.1824049    1.5002194   -7.1877962  
C   -0.3835299   -0.0125662   -7.3452202  
H    1.8425093   -1.9002756   -8.0689433  
H   -0.4228717   -0.0106498   -8.4260400  
H    2.9887842   -2.7966240   -5.8278725  
H    1.8355792   -1.7715186   -3.8525303  
C    2.3971438    2.0127888    3.1728260  
C    1.9431056    1.6308205    1.9564670  
C    0.8496017    0.7127664    2.2356185  
C    0.7794028    0.6545384    3.7115134  
N    1.6840587    1.4146091    4.2663826  
C   -0.1885723   -0.1578550    4.3957118  
C   -1.0476298   -0.8789867    3.6398520  
O   -2.0015663   -1.6796266    4.1448486  
C   -1.0022026   -0.8410666    2.1483229  
O   -1.8147390   -1.5232959    1.5241687  
C    0.0000000    0.0000000    1.4700000  
H    2.3054237    1.9346118    0.9892483  
H   -0.2170646   -0.1815267    5.4753125  
H   -2.4487139   -2.0549881    3.3649027  
H    3.2048689    2.6911772    3.3971983  
