58

C   -3.2941074    0.0012873   -2.9038244  
C   -4.0168013    0.0014138   -1.7541335  
C   -5.4101724    0.0018621   -2.1327530  
C   -5.4402193    0.0019581   -3.6078421  
N   -4.1255645    0.0019956   -4.0135170  
C   -6.5739159    0.0019522   -4.3537889  
C   -7.8496532    0.0020703   -3.6573473  
O   -8.9263753    0.0021358   -4.2395574  
C   -7.8415650    0.0022235   -2.0953809  
O   -8.9094924    0.0026302   -1.4980594  
C   -6.5557598    0.0019360   -1.4021593  
H   -3.6191804    0.0013980   -0.7548788  
H   -6.5588369    0.0018390   -0.3206263  
H   -3.8175533    0.0005036   -4.9685951  
C    0.0000000    0.0000000    0.0000000  
C    1.0541687   -0.0001723   -0.8560393  
C    0.5103135   -0.0000455   -2.1935956  
C   -0.9576373    0.0002459   -2.0455732  
N   -1.2018461   -0.0001392   -0.6915970  
C   -1.8348312    0.0008316   -3.0810609  
C   -1.2972850    0.0009736   -4.4314604  
O   -2.0050673    0.0014264   -5.4301320  
C    0.2542625    0.0004184   -4.6117573  
O    0.7184672    0.0002257   -5.7439122  
C    1.0974555    0.0000873   -3.4189131  
H    2.0940747   -0.0005483   -0.5817983  
H    2.1707282   -0.0000911   -3.5523672  
H   -2.1128196    0.0014912   -0.2706795  
C   -4.0789163   -2.0923488   -7.3346131  
C   -4.6299242   -1.6297326   -6.1828962  
C   -5.6979547   -0.7332149   -6.5575988  
C   -5.7242126   -0.7113141   -8.0325980  
N   -4.7179295   -1.5555309   -8.4419654  
C   -6.5944186    0.0185876   -8.7753554  
C   -7.5701358    0.8374147   -8.0753324  
O   -8.3962809    1.5304747   -8.6545145  
C   -7.5603471    0.8296705   -6.5133946  
O   -8.3768953    1.5153268   -5.9130748  
C   -6.5739159    0.0018723   -5.8237887  
H   -4.3230785   -1.8870026   -5.1847624  
H   -6.5968747    0.0203865   -9.8565132  
H   -3.2596517   -2.7801091   -7.4675822  
H   -4.4850556   -1.7530061   -9.3979054  
C    1.0672568    0.0000697    2.3021913  
C    0.0000000    0.0000000    1.4700000  
C   -1.1601224    0.0000736    2.3478473  
C   -0.5938729    0.0000769    3.7138435  
N    0.7113367    0.0001554    3.6934124  
C   -1.4286986    0.0001879    4.8835240  
C   -2.7683114    0.0006799    4.6970523  
O   -3.6653903    0.0008304    5.6976972  
C   -3.3702025    0.0010610    3.3310774  
O   -4.5974910    0.0013779    3.2362962  
C   -2.4926826    0.0008943    2.1470656  
H   -0.9878360   -0.0000190    5.8697035  
H   -4.5324246    0.0012261    5.2533954  
H   -2.9677772    0.0012974    1.1752040  
H    2.1134392    0.0000545    2.0405121  
