60

C    0.0950458    0.0004351   -4.4015596  
C    1.1192403    0.0014130   -5.2932434  
C    0.5298398    0.0012533   -6.6113641  
C   -0.9321714    0.0001231   -6.4130920  
N   -1.1298075   -0.0007278   -5.0515383  
C   -1.8443578    0.0000533   -7.4178913  
C   -1.3534334    0.0009393   -8.7859304  
O   -2.0950446    0.0008914   -9.7597434  
C    0.1910183    0.0018907   -9.0193237  
O    0.6161280    0.0023346  -10.1667303  
C    1.0746185    0.0021557   -7.8560941  
H    2.1679388    0.0019785   -5.0548228  
H   -2.9125303   -0.0006547   -7.2508102  
H    2.1426831    0.0030210   -8.0262727  
H   -2.0258134   -0.0000364   -4.5996300  
C    3.3321177    0.0004714   -1.3379329  
C    2.6974191    0.0000116   -2.5332309  
C    1.2800443   -0.0002118   -2.2052838  
C    1.2395035    0.0000643   -0.7271296  
N    2.4394066    0.0005460   -0.2131032  
C    0.0000000    0.0000000    0.0000000  
C   -1.1468697    0.0000634   -0.7169547  
O   -2.3742196    0.0000072   -0.1695495  
C   -1.1388763    0.0001605   -2.2096359  
O   -2.2206227    0.0000904   -2.7970417  
C    0.1454530    0.0001814   -2.9324241  
H    3.1367996   -0.0000651   -3.5160943  
H   -2.9844343    0.0001024   -0.9290175  
C    4.7795907    0.0008674   -1.0815719  
C    5.7862029    0.0008769   -1.9861780  
C    7.0047301    0.0013413   -1.1913879  
C    6.5351382    0.0016829    0.2107775  
N    5.2316827    0.0013266    0.2814352  
C    7.4495162    0.0021411    1.3193796  
C    8.7728601    0.0018640    1.0399236  
O    9.7375499    0.0022383    1.9755596  
C    9.2780075    0.0011454   -0.3647066  
O   10.4956960    0.0010511   -0.5448607  
C    8.3200402    0.0007292   -1.4846268  
H    5.7111091    0.0005126   -3.0601598  
H    7.0785139    0.0025903    2.3339075  
H   10.5714823    0.0018722    1.4718640  
H    8.7261902    0.0000957   -2.4872595  
C    0.0000000    0.0000000    1.4700000  
C    1.0521667    0.0011902    2.3562342  
C    0.4917218    0.0011957    3.6679131  
C   -0.9187428   -0.0003148    3.5178682  
N   -1.1833171    0.0009411    2.1707914  
C   -1.7951701   -0.0010350    4.6072090  
C   -1.2375837   -0.0005224    5.8710424  
O   -2.0474215   -0.0015360    6.9697579  
C    0.1673580    0.0013566    6.0411963  
O    0.5673524    0.0020687    7.3615553  
C    1.0325770    0.0023412    4.9669890  
H    2.0953057    0.0030649    2.0900562  
H   -2.0989778   -0.0102372    1.7591824  
H   -2.8710934   -0.0020419    4.4995513  
H   -1.4634884   -0.0006497    7.7393593  
H    1.5290710    0.0033153    7.3880045  
H    2.1042148    0.0039609    5.1284455  
