60

C    3.3041270    0.0001178   -1.5420432  
C    2.5845372   -0.0004779   -0.3695853  
C    1.2040007   -0.0000006   -0.7283591  
C    1.1422373    0.0006039   -2.1454374  
N    2.4348636    0.0026110   -2.6077466  
C   -0.0655186    0.0008800   -2.8497915  
C   -1.2321770    0.0002326   -2.1101397  
O   -2.4392818    0.0001149   -2.7472515  
C   -1.1911209   -0.0000006   -0.6955262  
O   -2.4371522   -0.0002319   -0.1032858  
C    0.0000000    0.0000000    0.0000000  
H    3.0031535   -0.0000661    0.6222580  
H    2.7054625   -0.0071097   -3.5745263  
H   -3.1132993   -0.0000646   -2.0551781  
H   -2.3200286   -0.0004070    0.8516413  
C    5.7183462    0.0008988   -0.7610764  
C    6.9697732    0.0035942   -1.2883311  
C    6.8214686    0.0054665   -2.7245894  
C    5.3706562    0.0036572   -2.9927892  
N    4.7577214    0.0005130   -1.7610465  
C    4.8178652    0.0050248   -4.2321942  
C    5.7114453    0.0082855   -5.3785093  
O    5.3110217    0.0096651   -6.5352118  
C    7.2515428    0.0099939   -5.1179311  
O    8.0137026    0.0124328   -6.0752019  
C    7.7277041    0.0085533   -3.7369455  
H    7.8915733    0.0040190   -0.7343470  
H    3.7509359    0.0037840   -4.4070375  
H    8.7954986    0.0099565   -3.5650785  
H    5.4170503   -0.0010550    0.2738664  
C    0.6885576   -0.7240829   -5.1615361  
C    0.3679846   -0.5066242   -6.4630813  
C   -0.7389728    0.4203837   -6.4747896  
C   -1.0391596    0.7273897   -5.0632567  
N   -0.1387086    0.0017020   -4.3179679  
C   -2.0220479    1.5676167   -4.6513656  
C   -2.8389207    2.2124490   -5.6659812  
O   -3.7486839    2.9856886   -5.3962914  
C   -2.5388501    1.9016974   -7.1670460  
O   -3.2201592    2.4384509   -8.0301645  
C   -1.4526764    0.9788672   -7.4871439  
H    0.8516394   -0.9456596   -7.3174463  
H   -2.2256211    1.7792486   -3.6108468  
H   -1.2512191    0.7691660   -8.5288562  
H    1.4594109   -1.3536536   -4.7476336  
C    2.5128556    2.1077716    2.9199648  
C    1.9592212    1.6432552    4.0696553  
C    0.8915788    0.7479214    3.6910360  
C    0.8684491    0.7287414    2.2159470  
N    1.8754542    1.5738793    1.8102719  
C    0.0000000    0.0000000    1.4700000  
C   -0.9772830   -0.8200135    2.1664417  
O   -1.8021297   -1.5120829    1.5842315  
C   -0.9711318   -0.8147624    3.7284083  
O   -1.7894187   -1.5009653    4.3257297  
C    0.0140216    0.0115358    4.4216297  
H    2.2638494    1.8988021    5.0689105  
H    0.0117648    0.0094386    5.5031631  
H    3.3327358    2.7953732    2.7900019  
H    2.1123206    1.7707734    0.8551938  
