58

C    3.2573664   -0.0002920   -1.5109382  
C    2.5379465   -0.0001710   -0.3591962  
C    1.1435036    0.0000330   -0.7338498  
C    1.1092603   -0.0000084   -2.2088474  
N    2.4227555    0.0001909   -2.6182611  
C   -0.0265540   -0.0002525   -2.9515658  
C   -1.3003048   -0.0002641   -2.2514978  
O   -2.3786790   -0.0004135   -2.8306421  
C   -1.2877729    0.0000310   -0.6895604  
O   -2.3539957    0.0003305   -0.0892032  
C    0.0000000    0.0000000    0.0000000  
H    2.9384082   -0.0000368    0.6389235  
H   -0.0296295   -0.0004087   -4.0327230  
H    2.7280487   -0.0013408   -3.5742115  
C    6.7921799    0.0009713    1.2037504  
C    5.5119028    0.0013961    0.7650370  
C    5.6127419    0.0004334   -0.6862834  
C    7.0661036   -0.0004195   -0.9589048  
N    7.7625307   -0.0001897    0.1451694  
C    7.5891407   -0.0015551   -2.2973807  
C    6.7006580   -0.0022151   -3.3171516  
O    7.0481221   -0.0032832   -4.6153462  
C    5.2278295   -0.0017546   -3.0743860  
O    4.4775287   -0.0022801   -4.0502290  
C    4.7161327   -0.0005436   -1.6923260  
H    4.6104191    0.0021661    1.3535962  
H    6.2020979   -0.0035564   -5.0984572  
H    7.1449939    0.0014090    2.2228164  
C    9.0408287   -0.0020984   -2.5286837  
C   10.0520767   -0.0017951   -1.6223437  
C   11.2873964   -0.0025712   -2.3698871  
C   10.9102368   -0.0033280   -3.7962604  
N    9.5347009   -0.0033961   -3.8243799  
C   11.7947992   -0.0037840   -4.8254602  
C   13.2129598   -0.0037374   -4.5070946  
O   14.0878220   -0.0041854   -5.3632002  
C   13.6351454   -0.0031936   -3.0032446  
O   14.8262388   -0.0034562   -2.7229659  
C   12.5898359   -0.0024504   -1.9828625  
H    9.9448808   -0.0012886   -0.5522400  
H   11.4971903   -0.0042070   -5.8648535  
H   12.8905064   -0.0018718   -0.9439587  
H    8.9756861   -0.0022945   -4.6577755  
C    2.4951002    2.0940188    2.9809380  
C    1.9440701    1.6314916    1.8291961  
C    0.8759964    0.7350050    2.2038498  
C    0.8497377    0.7130254    3.6788474  
N    1.8560616    1.5571714    4.0882609  
C   -0.0205033   -0.0168748    4.4215661  
C   -0.9962600   -0.8356168    3.7214979  
O   -1.8224391   -1.5286685    4.3006425  
C   -0.9864710   -0.8277881    2.1595606  
O   -1.8030528   -1.5133726    1.5592035  
C    0.0000000    0.0000000    1.4700000  
H    2.2509283    1.8888011    0.8310761  
H   -0.0229599   -0.0187323    5.5027230  
H    3.3143982    2.7817323    3.1139444  
H    2.0889452    1.7545833    5.0442112  
