58

C    5.9325054   -2.3580425   -6.4481662  
C    5.4992129   -1.0738737   -6.5332720  
C    6.3049351   -0.4235272   -7.5395993  
C    7.2499092   -1.4413807   -8.0373847  
N    6.9723959   -2.5915251   -7.3352134  
C    8.1821078   -1.2203661   -8.9985614  
C    8.2600615    0.1087578   -9.5815609  
O    9.0656321    0.4074946  -10.4534061  
C    7.2692401    1.2022370   -9.0693303  
O    7.3256402    2.3250150   -9.5524958  
C    6.3083954    0.8439964   -8.0289978  
H    8.8656915   -1.9809194   -9.3495348  
H    5.6257236    1.6067939   -7.6799647  
H    5.5797796   -3.1534339   -5.8119062  
H    7.4501886   -3.4663825   -7.4509097  
C    4.1774649   -0.7039260   -4.3991482  
C    3.1006054    0.0006263   -3.9654951  
C    2.5992399    0.7428151   -5.0980249  
C    3.4785672    0.4104975   -6.2351873  
N    4.4147925   -0.4705965   -5.7452433  
C    3.3361156    0.9100880   -7.4889105  
C    2.2439822    1.8371252   -7.7346383  
O    2.0321273    2.3416470   -8.8295699  
C    1.3005623    2.2033757   -6.5448382  
O    0.3778220    2.9830422   -6.7395976  
C    1.5546720    1.6002373   -5.2388884  
H    3.9920978    0.6532718   -8.3090581  
H    0.8967555    1.8588593   -4.4203623  
H    4.8177812   -1.3738065   -3.8485622  
C    3.2798083    0.0005857   -1.4499652  
C    2.5571142    0.0005565   -2.5996556  
C    1.1637432    0.0001548   -2.2210361  
C    1.1336964   -0.0000200   -0.7459473  
N    2.4483512   -0.0001428   -0.3402723  
C    0.0000000    0.0000000    0.0000000  
C   -1.2757368   -0.0000186   -0.6964415  
O   -2.3524598   -0.0000639   -0.1142311  
C   -1.2676497   -0.0000872   -2.2584083  
O   -2.3355766   -0.0004101   -2.8557295  
C    0.0181558    0.0001758   -2.9516296  
H    0.0150788    0.0003319   -4.0331631  
H    4.3498547    0.0008612   -1.3200026  
H    2.7563626    0.0012823    0.6148059  
C    0.0000000    0.0000000    1.4700000  
C    1.0662921    0.0000102    2.3034270  
C    0.4961870   -0.0000064    3.6418889  
C   -0.9663858    0.0000850    3.4240247  
N   -1.2632773    0.0000084    2.1528658  
C   -1.8985362    0.0000517    4.5177257  
C   -1.3925775   -0.0004564    5.7720543  
O   -2.1456383   -0.0005410    6.8851312  
C    0.0786232   -0.0009323    6.0245000  
O    0.4683759   -0.0012588    7.1921102  
C    1.0143166   -0.0008442    4.8859032  
H    2.1107198   -0.0000632    2.0421868  
H   -2.9622183    0.0003270    4.3293377  
H   -1.5042274   -0.0009692    7.6184419  
H    2.0724152   -0.0013148    5.1109744  
