58

C    1.6728643   -2.3599182   -7.7797379  
C    1.2391460   -1.0756980   -7.6976283  
C    1.6122598   -0.4256191   -8.9317351  
C    2.3038371   -1.4436855   -9.7454007  
N    2.3076495   -2.5936851   -8.9901679  
C    2.8111092   -1.2229506  -10.9846165  
C    2.6664781    0.1060757  -11.5549731  
O    3.0894986    0.4045644  -12.6641429  
C    1.9377354    1.1997765  -10.7108418  
O    1.8102582    2.3224748  -11.1804785  
C    1.4333409    0.8418317   -9.3874695  
H    3.3147824   -1.9836568  -11.5647440  
H    0.9297918    1.6047814   -8.8094827  
H    1.5823589   -3.1551633   -7.0577387  
H    2.7079303   -3.4686305   -9.2752896  
C    0.8071496   -0.7052398   -5.2248761  
C   -0.0307352   -0.0004646   -4.4215603  
C   -0.9176981    0.7416309   -5.2860987  
C   -0.5250712    0.4090154   -6.6688499  
N    0.5261924   -0.4721443   -6.5625864  
C   -1.1240788    0.9084416   -7.7794661  
C   -2.2290977    1.8356037   -7.6010302  
O   -2.8333890    2.3399950   -8.5384317  
C   -2.6616049    2.2021691   -6.1455673  
O   -3.5904454    2.9819428   -5.9828759  
C   -1.9395302    1.5991864   -5.0280379  
H   -0.8206845    0.6514074   -8.7848490  
H   -2.2453232    1.8580264   -4.0234399  
H    1.6063820   -1.3751333   -4.9521863  
C    3.2573670   -0.0002920   -1.5109380  
C    2.5379468   -0.0001709   -0.3591961  
C    1.1435043    0.0000332   -0.7338500  
C    1.1092609   -0.0000082   -2.2088477  
N    2.4227562    0.0001909   -2.6182613  
C   -0.0265532   -0.0002522   -2.9515663  
C   -1.3003035   -0.0002639   -2.2514981  
O   -2.3786784   -0.0004131   -2.8306429  
C   -1.2877725    0.0000312   -0.6895608  
O   -2.3539958    0.0003307   -0.0892036  
C    0.0000000    0.0000000    0.0000000  
H    2.9384091   -0.0000369    0.6389239  
H    4.3270394   -0.0004765   -1.6439446  
H    2.7280494   -0.0013406   -3.5742113  
C    2.5528530    2.1414826    2.8079335  
C    2.0663498    1.7338582    4.0032312  
C    0.9804344    0.8229586    3.6752840  
C    0.9495562    0.7966882    2.1971295  
N    1.8690446    1.5676019    1.6831036  
C    0.0000000    0.0000000    1.4700000  
C   -0.8785127   -0.7372425    2.1869543  
O   -1.8187535   -1.5261249    1.6395491  
C   -0.8723269   -0.7321790    3.6796354  
O   -1.7010379   -1.4274584    4.2670412  
C    0.1115397    0.0933559    4.4024240  
H    2.4028853    2.0163452    4.9860947  
H   -2.2861435   -1.9184361    2.3990168  
H    0.0832434    0.0693689    5.4835595  
H    3.3664920    2.8238276    2.6198634  
