58

C    4.4508002   -2.0874923   -1.5922070  
C    3.2092511   -1.6264350   -1.8923016  
C    3.3527768   -0.7316627   -3.0164098  
C    4.7900153   -0.7090876   -3.3490145  
N    5.4005100   -1.5512867   -2.4485216  
C    5.3348439    0.0196057   -4.3559269  
C    4.4464356    0.8363280   -5.1660073  
O    4.8404657    1.5281790   -6.0957290  
C    2.9207213    0.8278369   -4.8314465  
O    2.1630645    1.5117246   -5.5063638  
C    2.4521480    0.0014830   -3.7217483  
H    2.2970209   -1.8836390   -1.3840736  
H    6.3918284    0.0219293   -4.5832759  
H    4.7519003   -2.7737078   -0.8173928  
H    6.3841500   -1.7478733   -2.4193062  
C    0.0000000    0.0000000    0.0000000  
C    1.0662921   -0.0000106   -0.8334269  
C    0.4961870    0.0000059   -2.1718889  
C   -0.9663856   -0.0000854   -1.9540246  
N   -1.2632773   -0.0000087   -0.6828657  
C   -1.8985362   -0.0000522   -3.0477258  
C   -1.3925773    0.0004558   -4.3020541  
O   -2.1456384    0.0005402   -5.4151311  
C    0.0786236    0.0009315   -4.5544999  
O    0.4683762    0.0012578   -5.7221098  
C    1.0143167    0.0008435   -3.4159031  
H    2.1107198    0.0000631   -0.5721865  
H   -1.5042271    0.0009682   -6.1484419  
C   -3.3460094   -0.0004268   -2.7913647  
C   -3.9807082   -0.0008724   -1.5960671  
C   -5.3980828   -0.0011000   -1.9240143  
C   -5.4386232   -0.0006192   -3.4021683  
N   -4.2387207   -0.0003041   -3.9161945  
C   -6.6781267   -0.0007185   -4.1292983  
C   -7.8249967   -0.0016618   -3.4123439  
O   -9.0523465   -0.0018581   -3.9597493  
C   -7.8170032   -0.0025378   -1.9196631  
O   -8.8987494   -0.0032508   -1.3322576  
C   -6.5326743   -0.0023731   -1.1968746  
H   -3.5413282   -0.0011176   -0.6132034  
H   -6.6781269   -0.0001524   -5.2095336  
H   -9.6625606   -0.0026196   -3.2002818  
H   -6.5697686   -0.0031425   -0.1157395  
C    3.2798086   -0.0005857    2.9199648  
C    2.5571146   -0.0005566    4.0696553  
C    1.1637436   -0.0001548    3.6910360  
C    1.1336965    0.0000200    2.2159470  
N    2.4483514    0.0001428    1.8102719  
C    0.0000000    0.0000000    1.4700000  
C   -1.2757367    0.0000186    2.1664417  
O   -2.3524596    0.0000640    1.5842315  
C   -1.2676493    0.0000873    3.7284083  
O   -2.3355761    0.0004100    4.3257297  
C    0.0181563   -0.0001760    4.4216297  
H    2.9547357   -0.0006076    5.0689105  
H    0.0150794   -0.0003319    5.5031631  
H    4.3498549   -0.0008612    2.7900019  
H    2.7563627   -0.0012824    0.8551938  
