62

C    3.3003554    0.0005279   -1.4738974  
C    2.5232827    0.0003500   -2.6090737  
C    1.1623213   -0.0001318   -2.1820100  
C    1.1711891    0.0000584   -0.7636139  
N    2.4852307   -0.0014918   -0.3662351  
C    0.0000000    0.0000000    0.0000000  
C   -1.2020377    0.0000521   -0.6806487  
O   -2.3759251    0.0003494    0.0157735  
C   -1.2314643   -0.0005113   -2.0955516  
O   -2.5054380   -0.0008037   -2.6250188  
C   -0.0764500   -0.0007272   -2.8495198  
H    2.8036267    0.0088182    0.5858675  
H   -3.0835632    0.0000344   -0.6418834  
H   -2.4360031   -0.0011528   -3.5845932  
H   -0.1304077   -0.0013419   -3.9319084  
H    4.3715557    0.0004898   -1.3667115  
C    4.1182206   -0.7098242   -4.4345219  
C    4.3063937   -0.4605390   -5.7742663  
C    3.2826558    0.4475822   -6.1766057  
C    2.4931738    0.7193452   -5.0299633  
N    3.0267454   -0.0008948   -3.9901688  
C    1.3904701    1.5784648   -5.0572790  
C    1.0792537    2.1743287   -6.2640385  
O    0.0128535    3.0222365   -6.3468383  
C    1.8547108    1.9154240   -7.4192234  
O    1.4171373    2.5841568   -8.5437985  
C    2.9425281    1.0677821   -7.3930712  
H    0.7846364    1.7896272   -4.1868892  
H   -0.0265946    3.3225741   -7.2641747  
H    1.9945715    2.3544012   -9.2782274  
H    3.5175178    0.8886452   -8.2940571  
H    4.6753598   -1.3383447   -3.7610852  
C    6.0875365   -4.4960477   -5.9708066  
C    5.3373683   -3.4114656   -5.6467659  
C    5.7688216   -2.3305993   -6.5014064  
C    6.8395020   -2.8783184   -7.3560645  
N    6.9846959   -4.1949861   -6.9843194  
C    7.5071071   -2.1694489   -8.3013215  
C    7.1472593   -0.7738521   -8.4893454  
O    7.6900219   -0.0514409   -9.3150764  
C    6.0163712   -0.1728910   -7.5950618  
O    5.7049850    1.0010309   -7.7440804  
C    5.3695493   -1.0364347   -6.6102949  
H    4.5695331   -3.3729447   -4.8947288  
H    8.2892857   -2.5903435   -8.9177270  
H    6.0606004   -5.4898836   -5.5543277  
H    7.6399232   -4.8386673   -7.3885466  
C    0.8400945    0.7047457    2.2710304  
C    0.0000000    0.0000000    1.4700000  
C   -0.8844236   -0.7423113    2.3369512  
C   -0.4878984   -0.4098547    3.7186280  
N    0.5629682    0.4714286    3.6095011  
C   -1.0836927   -0.9095027    4.8308716  
C   -2.1891196   -1.8367527    4.6554461  
O   -2.7906899   -2.3413415    5.5944904  
C   -2.6257283   -2.2031529    3.2011665  
O   -3.5549479   -2.9829990    3.0410059  
C   -1.9068976   -1.5999348    2.0816745  
H   -0.7774656   -0.6525820    5.8354244  
H   -2.2155208   -1.8586617    1.0779135  
H    1.6384792    1.3747609    1.9961646  
H    1.0518368    0.8833920    4.3830260  
