58

C    0.5163337   -0.7047867   -5.2241140  
C   -0.2963289   -0.0005348   -4.3948470  
C   -1.2105192    0.7409700   -5.2310660  
C   -0.8613561    0.4085787   -6.6254800  
N    0.1932978   -0.4719007   -6.5523272  
C   -1.4953156    0.9075948   -7.7167101  
C   -2.5947747    1.8340477   -7.5036128  
O   -3.2285718    2.3380296   -8.4215491  
C   -2.9815338    2.2003648   -6.0352690  
O   -3.9053018    2.9795430   -5.8434493  
C   -2.2242841    1.5978720   -4.9409993  
H   -1.2235223    0.6507348   -8.7311368  
H   -2.4985003    1.8565365   -3.9272825  
H    1.3241786   -1.3741586   -4.9766922  
H    0.6556640   -0.8836281   -7.3421030  
C    3.1301148   -0.0010315   -1.7028253  
C    2.5367766   -0.0002767   -0.4864666  
C    1.1089903    0.0001025   -0.7656183  
C    1.0177867   -0.0004153   -2.2415131  
N    2.1993574   -0.0011616   -2.7963821  
C   -0.2459218   -0.0002884   -2.9257117  
C   -1.3675324   -0.0000610   -2.1698519  
O   -2.6129318    0.0000862   -2.6748483  
C   -1.3083588    0.0000908   -0.6783229  
O   -2.3693264    0.0004202   -0.0541688  
C    0.0000000    0.0000000    0.0000000  
H    3.0096015   -0.0001006    0.4807520  
H   -3.1967441    0.0002093   -1.8949029  
C    4.5679459   -0.0016858   -2.0086704  
C    5.6049851   -0.0016935   -1.1391137  
C    6.7955417   -0.0024724   -1.9752204  
C    6.2781448   -0.0029791   -3.3604583  
N    4.9730334   -0.0024407   -3.3863785  
C    7.1539707   -0.0037592   -4.4997631  
C    8.4861191   -0.0036322   -4.2658499  
O    9.4181578   -0.0043068   -5.2340156  
C    9.0391353   -0.0027534   -2.8793678  
O   10.2622853   -0.0028101   -2.7410749  
C    8.1201338   -0.0020069   -1.7272567  
H    5.5667632   -0.0011380   -0.0631886  
H    6.7483977   -0.0043232   -5.5009723  
H   10.2688719   -0.0039804   -4.7592124  
H    8.5604255   -0.0012659   -0.7391411  
C    2.5128556    2.1077716    2.9199648  
C    1.9592212    1.6432552    4.0696553  
C    0.8915788    0.7479214    3.6910360  
C    0.8684491    0.7287414    2.2159470  
N    1.8754542    1.5738793    1.8102719  
C    0.0000000    0.0000000    1.4700000  
C   -0.9772830   -0.8200135    2.1664417  
O   -1.8021297   -1.5120829    1.5842315  
C   -0.9711318   -0.8147624    3.7284083  
O   -1.7894187   -1.5009653    4.3257297  
C    0.0140216    0.0115358    4.4216297  
H    2.2638494    1.8988021    5.0689105  
H    0.0117648    0.0094386    5.5031631  
H    3.3327358    2.7953732    2.7900019  
H    2.1123206    1.7707734    0.8551938  
