60

C   -3.3041035    0.0127939   -1.5420414  
C   -2.5845161    0.0105776   -0.3695841  
C   -1.2039919    0.0047056   -0.7283581  
C   -1.1422324    0.0038597   -2.1454365  
N   -2.4348569    0.0069038   -2.6077451  
C    0.0655126   -0.0011360   -2.8497915  
C    1.2321660   -0.0050477   -2.1101403  
O    2.4392609   -0.0096470   -2.7472527  
C    1.1911105   -0.0046539   -0.6955270  
O    2.4371339   -0.0092919   -0.1032872  
C    0.0000000    0.0000000    0.0000000  
H   -3.0031302    0.0118016    0.6222597  
H   -2.7054161    0.0176819   -3.5745247  
H    0.1193466   -0.0019510   -3.9297471  
H    3.1132746   -0.0121014   -2.0551798  
H    2.3200124   -0.0086591    0.8516402  
C   -5.7131368    0.0220918   -0.7960682  
C   -4.7576885    0.0180790   -1.7610437  
C   -5.4429414    0.0197132   -3.0319735  
C   -6.8862794    0.0250745   -2.7261369  
N   -6.9826945    0.0258870   -1.3536963  
C   -7.8702614    0.0283904   -3.6607351  
C   -7.4818437    0.0263306   -5.0613289  
O   -8.2934285    0.0289429   -5.9776394  
C   -5.9588894    0.0204104   -5.4082866  
O   -5.6197921    0.0183253   -6.5839859  
C   -4.9916985    0.0175077   -4.3135786  
H   -3.9391481    0.0136157   -4.5622683  
H   -5.5966160    0.0223789    0.2755248  
H   -7.8428185    0.0307512   -0.8367725  
C  -10.4080076    2.0519800   -0.6063328  
C   -9.3280346    1.6656619   -1.3246618  
C   -9.8517383    0.7491448   -2.3257766  
C  -11.3051995    0.6964741   -2.0588356  
N  -11.6371985    1.4582153   -1.0520997  
C  -12.1944453   -0.1129222   -2.8457328  
C  -11.6562074   -0.8364974   -3.8537379  
O  -12.3677036   -1.6348175   -4.6676782  
C  -10.1932231   -0.8041820   -4.1483464  
O   -9.7725331   -1.4883826   -5.0811435  
C   -9.3018172    0.0338941   -3.3267938  
H   -8.3026643    1.9656690   -1.1916678  
H  -13.2523728   -0.1325391   -2.6282160  
H  -11.7111411   -2.0128980   -5.2801592  
H  -10.4404781    2.7308450    0.2309610  
C    2.5128556    2.1077716    2.9199648  
C    1.9592212    1.6432552    4.0696553  
C    0.8915788    0.7479214    3.6910360  
C    0.8684491    0.7287414    2.2159470  
N    1.8754542    1.5738793    1.8102719  
C    0.0000000    0.0000000    1.4700000  
C   -0.9772830   -0.8200135    2.1664417  
O   -1.8021297   -1.5120829    1.5842315  
C   -0.9711318   -0.8147624    3.7284083  
O   -1.7894187   -1.5009653    4.3257297  
C    0.0140216    0.0115358    4.4216297  
H    2.2638494    1.8988021    5.0689105  
H    0.0117648    0.0094386    5.5031631  
H    3.3327358    2.7953732    2.7900019  
H    2.1123206    1.7707734    0.8551938  
