62

C   -0.9836065    0.5332696   -0.8003809  
C    0.0000000    0.0000000    0.0000000  
C    0.9946722   -0.5412269   -0.8673524  
C    0.5599444   -0.3063491   -2.1969278  
N   -0.6454422    0.3461666   -2.1202241  
C    1.2967070   -0.7073601   -3.3154807  
C    2.4942843   -1.3570490   -3.0876857  
O    3.2536947   -1.7698871   -4.1440344  
C    2.9447547   -1.6009054   -1.7684324  
O    4.1559932   -2.2585610   -1.7073116  
C    2.2183079   -1.2058192   -0.6644815  
H    0.9708103   -0.5314628   -4.3313808  
H    4.0359892   -2.1944620   -3.7685123  
H    4.3877111   -2.3838282   -0.7819908  
H    2.5887888   -1.4066302    0.3339659  
H   -1.9003181    1.0310143   -0.5342071  
C   -3.0642315    3.9631418   -3.0853096  
C   -2.2724341    3.0894118   -2.4210561  
C   -2.1060538    1.9670064   -3.3315631  
C   -2.8863484    2.3409839   -4.5306729  
N   -3.4502236    3.5101109   -4.3921944  
C   -2.9761687    1.4811956   -5.6786203  
C   -2.3161483    0.3016033   -5.6309823  
O   -2.3128035   -0.5974551   -6.6298437  
C   -1.5199333   -0.1040792   -4.4353132  
O   -0.9449942   -1.1921930   -4.4612749  
C   -1.4432823    0.7952503   -3.2703001  
H   -1.8529941    3.1937323   -1.4350221  
H   -3.5537184    1.7797644   -6.5412921  
H   -1.7594800   -1.3295291   -6.3026528  
C   -3.2735865    5.8480135   -1.4090291  
C   -3.5501343    5.2728789   -2.6277203  
C   -4.3858794    6.1845720   -3.3383154  
C   -4.5869757    7.3079429   -2.4959823  
N   -3.8994396    7.0701790   -1.3317746  
C   -5.3635036    8.4073945   -2.8741328  
C   -5.9474196    8.3723037   -4.1255276  
O   -6.7154200    9.4196576   -4.5453339  
C   -5.7588142    7.2601942   -4.9801963  
O   -6.4058668    7.3753399   -6.1932123  
C   -4.9931005    6.1750910   -4.6076917  
H   -3.8486605    7.6972536   -0.5493555  
H   -5.5207656    9.2665630   -2.2367158  
H   -7.0220787    9.1946756   -5.4333701  
H   -6.2271409    6.5835243   -6.7096314  
H   -4.8668346    5.3374855   -5.2836752  
H   -2.6805928    5.4824979   -0.5882266  
C    0.8400945    0.7047457    2.2710304  
C    0.0000000    0.0000000    1.4700000  
C   -0.8844236   -0.7423113    2.3369512  
C   -0.4878984   -0.4098547    3.7186280  
N    0.5629682    0.4714286    3.6095011  
C   -1.0836927   -0.9095027    4.8308716  
C   -2.1891196   -1.8367527    4.6554461  
O   -2.7906899   -2.3413415    5.5944904  
C   -2.6257283   -2.2031529    3.2011665  
O   -3.5549479   -2.9829990    3.0410059  
C   -1.9068976   -1.5999348    2.0816745  
H   -0.7774656   -0.6525820    5.8354244  
H   -2.2155208   -1.8586617    1.0779135  
H    1.6384792    1.3747609    1.9961646  
H    1.0518368    0.8833920    4.3830260  
