58

C    6.7719812    0.0228172   -4.6650012  
C    7.7800551   -0.6532835   -4.0561088  
C    8.9993965   -0.3006158   -4.7443446  
C    8.6163242    0.6431555   -5.8117441  
N    7.2529124    0.7969663   -5.7100553  
C    9.4862769    1.2098553   -6.6856646  
C   10.8937978    0.8672395   -6.5672014  
O   11.7552535    1.3248295   -7.3066659  
C   11.3219643   -0.1304153   -5.4441861  
O   12.5041660   -0.4265998   -5.3349349  
C   10.2926859   -0.6753967   -4.5624651  
H    7.6807806   -1.3228039   -3.2203459  
H    9.1845793    1.8999281   -7.4613506  
H   10.5974343   -1.3653414   -3.7873340  
H    6.6936800    1.3830485   -6.3023507  
C    4.4498803   -2.0927814   -1.5965442  
C    3.2085346   -1.6305559   -1.8956810  
C    3.3524547   -0.7335190   -3.0179322  
C    4.7897030   -0.7108880   -3.3504911  
N    5.3998262   -1.5552207   -2.4517466  
C    5.3348522    0.0196507   -4.3558917  
C    4.4468030    0.8384415   -5.1642761  
O    4.8411378    1.5320449   -6.0925628  
C    2.9210858    0.8299298   -4.8297316  
O    2.1637303    1.5155489   -5.5032295  
C    2.4521483    0.0014840   -3.7217481  
H    2.2961914   -1.8884108   -1.3879858  
H    4.7506785   -2.7807339   -0.8231546  
H    6.3833793   -1.7523009   -2.4229400  
C    0.0000000    0.0000000    0.0000000  
C    1.0662923   -0.0000101   -0.8334270  
C    0.4961873    0.0000065   -2.1718887  
C   -0.9663854   -0.0000848   -1.9540250  
N   -1.2632773   -0.0000083   -0.6828660  
C   -1.8985359   -0.0000514   -3.0477261  
C   -1.3925770    0.0004566   -4.3020547  
O   -2.1456378    0.0005414   -5.4151314  
C    0.0786240    0.0009326   -4.5545000  
O    0.4683767    0.0012591   -5.7221100  
C    1.0143171    0.0008444   -3.4159031  
H    2.1107200    0.0000633   -0.5721865  
H   -2.9622181   -0.0003268   -2.8593381  
H   -1.5042265    0.0009697   -6.1484419  
C    3.2573670    0.0002920    2.9809380  
C    2.5379467    0.0001709    1.8291961  
C    1.1435042   -0.0000331    2.2038498  
C    1.1092607    0.0000083    3.6788474  
N    2.4227561   -0.0001909    4.0882609  
C   -0.0265533    0.0002524    4.4215661  
C   -1.3003036    0.0002640    3.7214979  
O   -2.3786784    0.0004133    4.3006425  
C   -1.2877726   -0.0000311    2.1595606  
O   -2.3539958   -0.0003306    1.5592035  
C    0.0000000    0.0000000    1.4700000  
H    2.9384090    0.0000368    0.8310761  
H   -0.0296291    0.0004086    5.5027230  
H    4.3270393    0.0004765    3.1139444  
H    2.7280493    0.0013407    5.0442112  
