58

C   -4.3359692    2.1064015   -0.0635816  
C   -5.5644950    1.6417187   -0.4083563  
C   -5.3776805    0.7467253   -1.5259085  
C   -3.9292259    0.7279267   -1.8059378  
N   -3.3543293    1.5729380   -0.8848842  
C   -3.3460098   -0.0004261   -2.7913644  
C   -4.2020398   -0.8203938   -3.6324361  
O   -3.7724548   -1.5121261   -4.5463635  
C   -5.7389990   -0.8155424   -3.3539780  
O   -6.4697274   -1.5017105   -4.0557394  
C   -6.2499650    0.0103540   -2.2628040  
H   -6.4953651    1.8969411    0.0659379  
H   -7.3153175    0.0079816   -2.0764123  
H   -4.0651604    2.7938487    0.7212548  
H   -2.3726201    1.7700214   -0.8181559  
C    0.0000000    0.0000000    0.0000000  
C    1.0662918   -0.0000103   -0.8334272  
C    0.4961866    0.0000066   -2.1718888  
C   -0.9663862   -0.0000848   -1.9540246  
N   -1.2632777   -0.0000084   -0.6828658  
C   -1.8985367   -0.0000514   -3.0477256  
C   -1.3925783    0.0004569   -4.3020543  
O   -2.1456389    0.0005417   -5.4151310  
C    0.0786225    0.0009329   -4.5544999  
O    0.4683752    0.0012595   -5.7221105  
C    1.0143159    0.0008446   -3.4159033  
H    2.1107193    0.0000632   -0.5721869  
H   -1.5042282    0.0009699   -6.1484418  
C    4.2926939   -2.1403416   -1.5040825  
C    5.3604699   -1.7320207   -2.2284491  
C    4.8134469   -0.8208702   -3.2219631  
C    3.3612062   -0.7952317   -2.9446121  
N    3.0500060   -1.5667024   -1.9386414  
C    2.4521470    0.0014842   -3.7217487  
C    2.9703718    0.7393572   -4.7298763  
O    2.2390450    1.5283422   -5.5352977  
C    4.4316761    0.7349409   -5.0343922  
O    4.8335641    1.4307763   -5.9668731  
C    5.3436383   -0.0906362   -4.2228059  
H    6.3919426   -2.0142022   -2.1038967  
H    2.8845110    1.9211532   -6.1502982  
H    6.3952192   -0.0661685   -4.4754112  
H    4.2782624   -2.8230633   -0.6694231  
C    3.3321173   -0.0004715    2.8079335  
C    2.6974184   -0.0000116    4.0032312  
C    1.2800439    0.0002118    3.6752840  
C    1.2395035   -0.0000644    2.1971295  
N    2.4394063   -0.0005460    1.6831036  
C    0.0000000    0.0000000    1.4700000  
C   -1.1468701   -0.0000635    2.1869543  
O   -2.3742202   -0.0000073    1.6395491  
C   -1.1388768   -0.0001607    3.6796354  
O   -2.2206231   -0.0000905    4.2670412  
C    0.1454524   -0.0001816    4.4024240  
H    3.1367986    0.0000651    4.9860947  
H   -2.9844344   -0.0001026    2.3990168  
H    0.1083576   -0.0003682    5.4835595  
H    4.3940039   -0.0007619    2.6198634  
