58

C    1.6915906   -2.3583764   -7.8123776  
C    1.2609980   -1.0740754   -7.7162733  
C    1.5952845   -0.4236982   -8.9613017  
C    2.2606710   -1.4416778   -9.7966282  
N    2.2879369   -2.5919171   -9.0422434  
C    2.7287786   -1.2206761  -11.0511144  
C    2.5666235    0.1085661  -11.6162309  
O    2.9546307    0.4073014  -12.7380639  
C    1.8650673    1.2021798  -10.7492637  
O    1.7231721    2.3250579  -11.2143131  
C    1.4024471    0.8439407   -9.4107953  
H    3.2137640   -1.9813229  -11.6470307  
H    0.9175189    1.6068317   -8.8170219  
H    1.6236311   -3.1538275   -7.0881346  
H    2.6788289   -3.4668707   -9.3400807  
C    0.9070721   -0.7042926   -5.2310448  
C    0.0950446    0.0004351   -4.4015596  
C   -0.8184769    0.7430225   -5.2375488  
C   -0.4696135    0.4107476   -6.6320657  
N    0.5842459   -0.4707048   -6.5591861  
C   -1.1031229    0.9106726   -7.7231412  
C   -2.2017460    1.8380505   -7.5097575  
O   -2.8350881    2.3428871   -8.4275364  
C   -2.5881747    2.2042622   -6.0413003  
O   -3.5112398    2.9842135   -5.8492391  
C   -1.8314682    1.6007481   -4.9472170  
H   -0.8315613    0.6538815   -8.7376471  
H   -2.1054516    1.8593459   -3.9334198  
H    1.7143129   -1.3744694   -4.9838303  
C    3.3321173    0.0004713   -1.3379338  
C    2.6974181    0.0000116   -2.5332314  
C    1.2800438   -0.0002119   -2.2052841  
C    1.2395034    0.0000643   -0.7271299  
N    2.4394062    0.0005460   -0.2131038  
C    0.0000000    0.0000000    0.0000000  
C   -1.1468702    0.0000634   -0.7169543  
O   -2.3742203    0.0000074   -0.1695487  
C   -1.1388770    0.0001607   -2.2096355  
O   -2.2206234    0.0000905   -2.7970411  
C    0.1454522    0.0001815   -2.9324241  
H    3.1367984   -0.0000653   -3.5160950  
H   -2.9844346    0.0001026   -0.9290167  
H    4.3940038    0.0007618   -1.1498640  
C    2.5528530    2.1414826    2.8079335  
C    2.0663498    1.7338582    4.0032312  
C    0.9804344    0.8229586    3.6752840  
C    0.9495562    0.7966882    2.1971295  
N    1.8690446    1.5676019    1.6831036  
C    0.0000000    0.0000000    1.4700000  
C   -0.8785127   -0.7372425    2.1869543  
O   -1.8187535   -1.5261249    1.6395491  
C   -0.8723269   -0.7321790    3.6796354  
O   -1.7010379   -1.4274584    4.2670412  
C    0.1115397    0.0933559    4.4024240  
H    2.4028853    2.0163452    4.9860947  
H   -2.2861435   -1.9184361    2.3990168  
H    0.0832434    0.0693689    5.4835595  
H    3.3664920    2.8238276    2.6198634  
