60

C    3.3003547    0.0005275   -1.4738980  
C    2.5232816    0.0003495   -2.6090742  
C    1.1623206   -0.0001320   -2.1820096  
C    1.1711889    0.0000583   -0.7636136  
N    2.4852300   -0.0014920   -0.3662353  
C    0.0000000    0.0000000    0.0000000  
C   -1.2020382    0.0000519   -0.6806479  
O   -2.3759247    0.0003494    0.0157745  
C   -1.2314650   -0.0005113   -2.0955508  
O   -2.5054383   -0.0008037   -2.6250181  
C   -0.0764510   -0.0007273   -2.8495192  
H    2.8919962   -0.0005621   -3.6205295  
H    2.8036265    0.0088181    0.5858667  
H   -3.0835641    0.0000347   -0.6418820  
H   -2.4360047   -0.0011529   -3.5845921  
C    6.5907968    0.0004118   -4.4182867  
C    5.3731496    0.0003983   -3.8171125  
C    5.6071060    0.0003103   -2.3922969  
C    7.0713653    0.0003027   -2.2113673  
N    7.6095207   -0.0000327   -3.4775735  
C    7.6973073    0.0006258   -1.0072490  
C    6.8738985    0.0007804    0.1904707  
O    7.3427981    0.0010092    1.3211495  
C    5.3209696    0.0005394    0.0224896  
O    4.6174382    0.0003600    1.0236411  
C    4.7630506    0.0004754   -1.3275394  
H    4.4198603    0.0002623   -4.3149615  
H    8.7727856    0.0007440   -0.8965445  
H    6.8296430    0.0004925   -5.4694015  
H    8.5911171    0.0014367   -3.6861718  
C   -0.1496409   -0.0015614   -4.3176961  
C    0.8605992   -0.0020607   -5.2251594  
C    0.2508230   -0.0027747   -6.5339786  
C   -1.2079374   -0.0026205   -6.3130523  
N   -1.3844299   -0.0022740   -4.9485963  
C   -2.1355994   -0.0027543   -7.3035806  
C   -1.6659548   -0.0032977   -8.6790687  
O   -2.4225823   -0.0035181   -9.6412628  
C   -0.1253088   -0.0037216   -8.9363927  
O    0.2819513   -0.0044870  -10.0902551  
C    0.7762289   -0.0032489   -7.7870091  
H    1.9128700   -0.0021246   -5.0030339  
H   -3.2010522   -0.0025068   -7.1199508  
H    1.8415257   -0.0033414   -7.9737350  
H   -2.2733171   -0.0005419   -4.4828448  
C    2.4951002    2.0940188    2.9809380  
C    1.9440701    1.6314916    1.8291961  
C    0.8759964    0.7350050    2.2038498  
C    0.8497377    0.7130254    3.6788474  
N    1.8560616    1.5571714    4.0882609  
C   -0.0205033   -0.0168748    4.4215661  
C   -0.9962600   -0.8356168    3.7214979  
O   -1.8224391   -1.5286685    4.3006425  
C   -0.9864710   -0.8277881    2.1595606  
O   -1.8030528   -1.5133726    1.5592035  
C    0.0000000    0.0000000    1.4700000  
H    2.2509283    1.8888011    0.8310761  
H   -0.0229599   -0.0187323    5.5027230  
H    3.3143982    2.7817323    3.1139444  
H    2.0889452    1.7545833    5.0442112  
