58

C   -0.9804205    0.5657140   -0.8009271  
C   -0.6915150    0.3962509   -2.1169404  
C    0.5567221   -0.3263881   -2.1842674  
C    0.9743268   -0.5657785   -0.7896026  
N    0.0000000    0.0000000    0.0000000  
C    2.1063612   -1.2208945   -0.4276293  
C    2.9712926   -1.7235812   -1.4820183  
O    4.0128524   -2.3264447   -1.2583917  
C    2.5487572   -1.4812000   -2.9661070  
O    3.2691357   -1.8995491   -3.8623773  
C    1.3053821   -0.7617630   -3.2312125  
H    2.3942461   -1.3859521    0.6013445  
H    1.0198532   -0.5982522   -4.2614851  
H   -1.8269655    1.0564661   -0.3488062  
C   -3.0369836    4.0731047   -3.0356157  
C   -2.2534970    3.1801584   -2.3872521  
C   -2.1362526    2.0525553   -3.2989892  
C   -2.9329369    2.4448686   -4.4813459  
N   -3.4632913    3.6283558   -4.3327800  
C   -3.0702191    1.5860756   -5.6253366  
C   -2.4399348    0.3899058   -5.5899299  
O   -2.4818256   -0.5103401   -6.5868471  
C   -1.6282325   -0.0345178   -4.4113014  
O   -1.0822475   -1.1371466   -4.4477816  
C   -1.5027158    0.8641672   -3.2500368  
H   -1.8098351    3.2749997   -1.4109095  
H   -3.6587898    1.8982437   -6.4756574  
H   -1.9404672   -1.2559946   -6.2704871  
C   -2.3042038    6.3177244    0.6954895  
C   -2.3178255    5.3780919   -0.2848065  
C   -3.1276608    5.9022682   -1.3591629  
C   -3.5880026    7.2338636   -0.9212937  
N   -3.0545833    7.4257731    0.3323112  
C   -4.3787939    8.0546342   -1.6579673  
C   -4.8051515    7.5958244   -2.9695492  
O   -5.5181500    8.2616854   -3.7088482  
C   -4.3297433    6.1888232   -3.4534294  
O   -4.6825753    5.7917282   -4.5557386  
C   -3.4787388    5.3955895   -2.5700132  
H   -1.8177948    4.4263160   -0.2582508  
H   -4.7051076    9.0277751   -1.3182211  
H   -1.8092957    6.2938569    1.6527701  
H   -3.1879998    8.2454446    0.8956821  
C    2.5128556    2.1077716    2.9199648  
C    1.9592212    1.6432552    4.0696553  
C    0.8915788    0.7479214    3.6910360  
C    0.8684491    0.7287414    2.2159470  
N    1.8754542    1.5738793    1.8102719  
C    0.0000000    0.0000000    1.4700000  
C   -0.9772830   -0.8200135    2.1664417  
O   -1.8021297   -1.5120829    1.5842315  
C   -0.9711318   -0.8147624    3.7284083  
O   -1.7894187   -1.5009653    4.3257297  
C    0.0140216    0.0115358    4.4216297  
H    2.2638494    1.8988021    5.0689105  
H    0.0117648    0.0094386    5.5031631  
H    3.3327358    2.7953732    2.7900019  
H    2.1123206    1.7707734    0.8551938  
