64

C    2.8127783   -0.7365250   -3.3573037  
C    1.6478437   -0.0100096   -3.2702997  
C    1.5143087    0.7107914   -4.4939068  
C    2.6370073    0.3812884   -5.2957182  
N    3.4061782   -0.4980964   -4.5748329  
C    2.8346057    0.9108205   -6.5745224  
C    1.8813276    1.7887461   -7.0527328  
O    2.0247688    2.3349769   -8.2953388  
C    0.7544619    2.1300936   -6.2675751  
O   -0.1041855    3.0169822   -6.8836081  
C    0.5590206    1.6082896   -5.0058107  
H    3.6882152    0.6638026   -7.1905868  
H    1.2608975    2.9107773   -8.4303227  
H   -0.8375012    3.1947276   -6.2867335  
H   -0.3138101    1.8884589   -4.4277537  
H    3.2680676   -1.4048169   -2.6466308  
C    5.0876531   -4.6192883   -4.1528360  
C    4.2805553   -3.5075086   -4.0820752  
C    4.9580329   -2.4567978   -4.7688292  
C    6.1839106   -2.9912226   -5.2416297  
N    6.2316987   -4.3057250   -4.8486714  
C    7.1096823   -2.2341480   -5.9659048  
C    6.7920157   -0.9135997   -6.2177344  
O    7.6600670   -0.1292830   -6.9208334  
C    5.5739745   -0.3621059   -5.7540025  
O    5.4036004    0.9663269   -6.0850354  
C    4.6603309   -1.1083173   -5.0391947  
H    3.3219843   -3.4593926   -3.5944076  
H    6.9794224   -4.9447895   -5.0498845  
H    8.0458072   -2.6355142   -6.3289168  
H    7.2507504    0.7435969   -6.9825245  
H    4.5573215    1.2609188   -5.7348470  
H    4.9384070   -5.6107380   -3.7607746  
C    1.1188642    0.0008224   -0.8003808  
C    0.0000000    0.0000000    0.0000000  
C   -1.1323861    0.0008899   -0.8673529  
C   -0.6382661    0.0019681   -2.1969282  
N    0.7324017    0.0038483   -2.1202240  
C   -1.4770912    0.0027320   -3.3154810  
C   -2.8395474    0.0020946   -3.0876860  
O   -3.7039199    0.0024426   -4.1440353  
C   -3.3517867    0.0013927   -1.7684331  
O   -4.7300496    0.0012363   -1.7073125  
C   -2.5248543    0.0009121   -0.6644818  
H   -1.1067568    0.0036992   -4.3313814  
H   -4.5940031    0.0021828   -3.7685133  
H   -4.9934602    0.0007260   -0.7819919  
H   -2.9462579    0.0005600    0.3339656  
H    2.1619896    0.0009357   -0.5342065  
C    0.8400945    0.7047457    2.2710304  
C    0.0000000    0.0000000    1.4700000  
C   -0.8844236   -0.7423113    2.3369512  
C   -0.4878984   -0.4098547    3.7186280  
N    0.5629682    0.4714286    3.6095011  
C   -1.0836927   -0.9095027    4.8308716  
C   -2.1891196   -1.8367527    4.6554461  
O   -2.7906899   -2.3413415    5.5944904  
C   -2.6257283   -2.2031529    3.2011665  
O   -3.5549479   -2.9829990    3.0410059  
C   -1.9068976   -1.5999348    2.0816745  
H   -0.7774656   -0.6525820    5.8354244  
H   -2.2155208   -1.8586617    1.0779135  
H    1.6384792    1.3747609    1.9961646  
H    1.0518368    0.8833920    4.3830260  
