60

C   -1.1187020    0.0190826   -0.8003806  
C    0.0000000    0.0000000    0.0000000  
C    1.1321912   -0.0210350   -0.8673528  
C    0.6381298   -0.0133224   -2.1969280  
N   -0.7323547    0.0091820   -2.1202234  
C    1.4768084   -0.0290089   -3.3154811  
C    2.8390601   -0.0526098   -3.0876859  
O    3.7032899   -0.0683351   -4.1440352  
C    3.3512313   -0.0610213   -1.7684335  
O    4.7292788   -0.0853843   -1.7073129  
C    2.5244384   -0.0458295   -0.6644819  
H   -1.3573172    0.0297682   -2.9057039  
H    4.5932365   -0.0839100   -3.7685137  
H    4.9926571   -0.0895601   -0.7819922  
H    2.9457816   -0.0529744    0.3339657  
H   -2.1616637    0.0375267   -0.5342067  
C    0.9734026   -0.0213666   -4.6965766  
C   -0.3136515    0.0008193   -5.1144027  
C   -0.2364710   -0.0017787   -6.5671706  
C    1.2120386   -0.0272940   -6.8634017  
N    1.9262407   -0.0389472   -5.7708041  
C    1.7131330   -0.0372395   -8.2102096  
C    0.8082924   -0.0227601   -9.2153900  
O    1.1345184   -0.0296592  -10.5190658  
C   -0.6601715    0.0026949   -8.9486941  
O   -1.4261515    0.0149606   -9.9122014  
C   -1.1492185    0.0125211   -7.5584926  
H   -1.2052965    0.0168647   -4.5112544  
H    2.7768449   -0.0557428   -8.3975169  
H    0.2808634   -0.0155420  -10.9883482  
C   -2.6046254    0.0375317   -7.3533951  
C   -3.2810082    0.0503985   -6.1812519  
C   -4.6857249    0.0738621   -6.5590348  
C   -4.6740821    0.0720619   -8.0376983  
N   -3.4569664    0.0507263   -8.5090402  
C   -5.8869807    0.0917938   -8.8081347  
C   -7.0582740    0.1119990   -8.1321180  
O   -8.2653710    0.1317869   -8.7225141  
C   -7.1029579    0.1139923   -6.6400861  
O   -8.2046037    0.1330479   -6.0912383  
C   -5.8451137    0.0935470   -5.8724051  
H   -2.8766427    0.0445841   -5.1834890  
H   -5.8488647    0.0901839   -9.8876972  
H   -8.9019187    0.1430393   -7.9850637  
H   -5.9203310    0.0955926   -4.7932534  
C    0.8400945    0.7047457    2.2710304  
C    0.0000000    0.0000000    1.4700000  
C   -0.8844236   -0.7423113    2.3369512  
C   -0.4878984   -0.4098547    3.7186280  
N    0.5629682    0.4714286    3.6095011  
C   -1.0836927   -0.9095027    4.8308716  
C   -2.1891196   -1.8367527    4.6554461  
O   -2.7906899   -2.3413415    5.5944904  
C   -2.6257283   -2.2031529    3.2011665  
O   -3.5549479   -2.9829990    3.0410059  
C   -1.9068976   -1.5999348    2.0816745  
H   -0.7774656   -0.6525820    5.8354244  
H   -2.2155208   -1.8586617    1.0779135  
H    1.6384792    1.3747609    1.9961646  
H    1.0518368    0.8833920    4.3830260  
