58

C    3.4581239   -0.7257445   -2.8368658  
C    4.7325807   -0.5094664   -3.2528695  
C    4.6630932    0.4165070   -4.3585729  
C    3.2334366    0.7241930   -4.5540252  
N    2.5562222   -0.0001542   -3.6002998  
C    2.7506137    1.5637880   -5.5046386  
C    3.7025411    2.2071745   -6.3948200  
O    3.3668888    2.9797535   -7.2829419  
C    5.2214745    1.8956821   -6.2060902  
O    6.0322624    2.4312178   -6.9497868  
C    5.6203304    0.9736418   -5.1456149  
H    5.6200556   -0.9486333   -2.8331856  
H    1.6980332    1.7759375   -5.6310405  
H    6.6739456    0.7634204   -5.0214136  
H    3.1018815   -1.3543197   -2.0369445  
C    0.0000000    0.0000000    0.0000000  
C    1.0541691   -0.0001719   -0.8560389  
C    0.5103143   -0.0000448   -2.1935953  
C   -0.9576364    0.0002464   -2.0455731  
N   -1.2018458   -0.0001389   -0.6915972  
C   -1.8348303    0.0008322   -3.0810611  
C   -1.2972837    0.0009745   -4.4314603  
O   -2.0050658    0.0014276   -5.4301322  
C    0.2542633    0.0004194   -4.6117570  
O    0.7184681    0.0002269   -5.7439118  
C    1.0974560    0.0000881   -3.4189126  
H    2.0940754   -0.0005481   -0.5817976  
H   -2.1128195    0.0014913   -0.2706792  
C   -4.4297975    2.1087666   -0.2339407  
C   -5.6380116    1.6447702   -0.6450379  
C   -5.3911863    0.7496344   -1.7507705  
C   -3.9296535    0.7300040   -1.9515866  
N   -3.4052343    1.5747187   -1.0006233  
C   -3.2941065    0.0012879   -2.9038247  
C   -4.1035791   -0.8182211   -3.7902190  
O   -3.6253047   -1.5102273   -4.6794214  
C   -5.6534078   -0.8124876   -3.5957865  
O   -6.3452673   -1.4982637   -4.3362610  
C   -6.2225092    0.0137344   -2.5340273  
H   -6.5931607    1.9005368   -0.2220874  
H   -7.2964256    0.0119731   -2.4058688  
H   -4.2016945    2.7960857    0.5644648  
H   -2.4284973    1.7712468   -0.8805872  
C    0.0000000    0.0000000    1.4700000  
C    1.0541688    0.0001722    2.3260392  
C    0.5103138    0.0000454    3.6635956  
C   -0.9576371   -0.0002459    3.5155732  
N   -1.2018458    0.0001392    2.1615969  
C   -1.8348311   -0.0008317    4.5510609  
C   -1.2972847   -0.0009736    5.9014604  
O   -2.0050672   -0.0014265    6.9001319  
C    0.2542623   -0.0004184    6.0817573  
O    0.7184670   -0.0002256    7.2139121  
C    1.0974552   -0.0000873    4.8889129  
H    2.0940752    0.0005483    2.0517982  
H   -2.9081052   -0.0011668    4.4207061  
H    2.1707277    0.0000911    5.0223670  
H   -2.1128194   -0.0014912    1.7406791  
