58

C    8.4364684   -0.7083638    0.0605729  
C    8.1165426   -0.0037914   -1.0553572  
C    9.2958552    0.7358423   -1.4387628  
C   10.3365337    0.4020037   -0.4476371  
N    9.7517225   -0.4774418    0.4341008  
C   11.5992414    0.8990771   -0.4614881  
C   11.9571407    1.8248172   -1.5233022  
O   13.0689911    2.3270751   -1.6224242  
C   10.8707173    2.1926412   -2.5835829  
O   11.1603100    2.9712366   -3.4820180  
C    9.5444388    1.5922049   -2.4639392  
H   12.3475406    0.6411801    0.2750211  
H    8.7979541    1.8519032   -3.2022075  
H    7.8219955   -1.3767023    0.6416364  
H   10.2103885   -0.8897527    1.2257278  
C    5.5795936   -0.0015222   -1.1027757  
C    4.5679461   -0.0016854   -2.0086701  
C    5.1756898   -0.0023284   -3.3184345  
C    6.6347911   -0.0025574   -3.0997722  
N    6.8134018   -0.0016468   -1.7355922  
C    7.5609147   -0.0035413   -4.0917394  
C    7.0891356   -0.0042082   -5.4664974  
O    7.8442685   -0.0050456   -6.4298635  
C    5.5480924   -0.0037283   -5.7214291  
O    5.1390415   -0.0039759   -6.8746585  
C    4.6483398   -0.0029380   -4.5706482  
H    8.6266511   -0.0038221   -3.9097631  
H    3.5827541   -0.0028153   -4.7557202  
H    5.5275967   -0.0011045   -0.0261209  
C    3.1301149   -0.0010311   -1.7028252  
C    2.5367768   -0.0002767   -0.4864665  
C    1.1089904    0.0001028   -0.7656183  
C    1.0177872   -0.0004148   -2.2415132  
N    2.1993578   -0.0011611   -2.7963820  
C   -0.2459209   -0.0002877   -2.9257118  
C   -1.3675319   -0.0000605   -2.1698524  
O   -2.6129313    0.0000867   -2.6748490  
C   -1.3083584    0.0000910   -0.6783232  
O   -2.3693261    0.0004206   -0.0541692  
C    0.0000000    0.0000000    0.0000000  
H    3.0096017   -0.0001007    0.4807525  
H   -0.2829630   -0.0004687   -4.0053125  
H   -3.1967441    0.0002094   -1.8949034  
C    0.0000000    0.0000000    1.4700000  
C    1.0541688    0.0001722    2.3260392  
C    0.5103138    0.0000454    3.6635956  
C   -0.9576371   -0.0002459    3.5155732  
N   -1.2018458    0.0001392    2.1615969  
C   -1.8348311   -0.0008317    4.5510609  
C   -1.2972847   -0.0009736    5.9014604  
O   -2.0050672   -0.0014265    6.9001319  
C    0.2542623   -0.0004184    6.0817573  
O    0.7184670   -0.0002256    7.2139121  
C    1.0974552   -0.0000873    4.8889129  
H    2.0940752    0.0005483    2.0517982  
H   -2.9081052   -0.0011668    4.4207061  
H    2.1707277    0.0000911    5.0223670  
H   -2.1128194   -0.0014912    1.7406791  
