60

C    3.3003547    0.0005275   -1.4738980  
C    2.5232816    0.0003495   -2.6090742  
C    1.1623206   -0.0001320   -2.1820096  
C    1.1711889    0.0000583   -0.7636136  
N    2.4852300   -0.0014920   -0.3662353  
C    0.0000000    0.0000000    0.0000000  
C   -1.2020382    0.0000519   -0.6806479  
O   -2.3759247    0.0003494    0.0157745  
C   -1.2314650   -0.0005113   -2.0955508  
O   -2.5054383   -0.0008037   -2.6250181  
C   -0.0764510   -0.0007273   -2.8495192  
H    2.8919962   -0.0005621   -3.6205295  
H    2.8036265    0.0088181    0.5858667  
H   -3.0835641    0.0000347   -0.6418820  
H   -2.4360047   -0.0011529   -3.5845921  
C    6.5907968    0.0004118   -4.4182867  
C    5.3731496    0.0003983   -3.8171125  
C    5.6071060    0.0003103   -2.3922969  
C    7.0713653    0.0003027   -2.2113673  
N    7.6095207   -0.0000327   -3.4775735  
C    7.6973073    0.0006258   -1.0072490  
C    6.8738985    0.0007804    0.1904707  
O    7.3427981    0.0010092    1.3211495  
C    5.3209696    0.0005394    0.0224896  
O    4.6174382    0.0003600    1.0236411  
C    4.7630506    0.0004754   -1.3275394  
H    4.4198603    0.0002623   -4.3149615  
H    8.7727856    0.0007440   -0.8965445  
H    6.8296430    0.0004925   -5.4694015  
H    8.5911171    0.0014367   -3.6861718  
C    2.2882822   -2.1097770   -5.8897962  
C    1.6780097   -1.6459966   -7.0107556  
C    0.6303825   -0.7506088   -6.5799497  
C    0.6807213   -0.7305953   -5.1055495  
N    1.7068267   -1.5753511   -4.7500425  
C   -0.1496409   -0.0015614   -4.3176961  
C   -1.1605334    0.8179096   -4.9650744  
O   -1.9554930    1.5101851   -4.3429047  
C   -1.2321577    0.8117731   -6.5254067  
O   -2.0792923    1.4975138   -7.0816293  
C   -0.2825933   -0.0147700   -7.2663562  
H    1.9325538   -1.9020645   -8.0237955  
H   -0.3386962   -0.0132868   -8.3464369  
H    3.1137391   -2.7971813   -5.8004310  
H    1.9909868   -1.7716677   -3.8078326  
C    0.0000000    0.0000000    1.4700000  
C    1.0662921    0.0000102    2.3034270  
C    0.4961870   -0.0000064    3.6418889  
C   -0.9663858    0.0000850    3.4240247  
N   -1.2632773    0.0000084    2.1528658  
C   -1.8985362    0.0000517    4.5177257  
C   -1.3925775   -0.0004564    5.7720543  
O   -2.1456383   -0.0005410    6.8851312  
C    0.0786232   -0.0009323    6.0245000  
O    0.4683759   -0.0012588    7.1921102  
C    1.0143166   -0.0008442    4.8859032  
H    2.1107198   -0.0000632    2.0421868  
H   -2.9622183    0.0003270    4.3293377  
H   -1.5042274   -0.0009692    7.6184419  
H    2.0724152   -0.0013148    5.1109744  
