60

C    1.1188648    0.0008219   -0.8003803  
C    0.0000000    0.0000000    0.0000000  
C   -1.1323859    0.0008905   -0.8673531  
C   -0.6382653    0.0019685   -2.1969280  
N    0.7324026    0.0038483   -2.1202236  
C   -1.4770902    0.0027330   -3.3154810  
C   -2.8395463    0.0020962   -3.0876863  
O   -3.7039186    0.0024449   -4.1440360  
C   -3.3517862    0.0013949   -1.7684340  
O   -4.7300486    0.0012388   -1.7073134  
C   -2.5248542    0.0009135   -0.6644822  
H    1.3576326   -0.0056167   -2.9057036  
H   -4.5940017    0.0021852   -3.7685142  
H   -4.9934593    0.0007283   -0.7819930  
H   -2.9462580    0.0005616    0.3339644  
H    2.1619896    0.0009347   -0.5342064  
C    1.8844591   -2.1024764   -5.2000019  
C    1.7579335   -1.6369210   -6.4693814  
C    0.6249295   -0.7419050   -6.4785607  
C    0.0979881   -0.7240436   -5.1005897  
N    0.9053934   -1.5695639   -4.3752747  
C   -0.9736279    0.0040475   -4.6965766  
C   -1.6535166    0.8247030   -5.6849142  
O   -2.6280780    1.5162674   -5.4198324  
C   -1.1127759    0.8208485   -7.1503118  
O   -1.6771933    1.5076014   -7.9911827  
C    0.0504565   -0.0048491   -7.4649008  
H    2.3864479   -1.8915802   -7.3040861  
H    0.4187514   -0.0017845   -8.4817951  
H    0.8008852   -1.7673167   -3.3970014  
C    2.8745163   -3.0403734   -4.6513346  
C    3.9012976   -3.6669034   -5.2816165  
C    4.5698517   -4.4788713   -4.2923850  
C    3.8431696   -4.2725722   -3.0250396  
N    2.8272111   -3.3897604   -3.3102789  
C    4.1656655   -4.8667133   -1.8483078  
C    5.3046164   -5.7694534   -1.8286540  
O    5.6747351   -6.3529378   -0.8182783  
C    6.0888902   -6.0025248   -3.1592171  
O    7.0497365   -6.7601631   -3.1548644  
C    5.6457408   -5.3055852   -4.3641011  
H    4.1608586   -3.5710408   -6.3208722  
H    3.6193829   -4.7018546   -0.9299908  
H    6.1940162   -5.4725417   -5.2812946  
H    2.1537519   -3.0528994   -2.6469351  
C    0.8400945    0.7047457    2.2710304  
C    0.0000000    0.0000000    1.4700000  
C   -0.8844236   -0.7423113    2.3369512  
C   -0.4878984   -0.4098547    3.7186280  
N    0.5629682    0.4714286    3.6095011  
C   -1.0836927   -0.9095027    4.8308716  
C   -2.1891196   -1.8367527    4.6554461  
O   -2.7906899   -2.3413415    5.5944904  
C   -2.6257283   -2.2031529    3.2011665  
O   -3.5549479   -2.9829990    3.0410059  
C   -1.9068976   -1.5999348    2.0816745  
H   -0.7774656   -0.6525820    5.8354244  
H   -2.2155208   -1.8586617    1.0779135  
H    1.6384792    1.3747609    1.9961646  
H    1.0518368    0.8833920    4.3830260  
