58

C    1.0965515    0.0001360   -0.8010307  
C    0.0000000    0.0000000    0.0000000  
C   -1.1546563    0.0001472   -0.8669511  
C   -0.6372017    0.0003524   -2.2486278  
N    0.7342869    0.0007340   -2.1395012  
C   -1.4147741    0.0001358   -3.3608716  
C   -2.8576051   -0.0001044   -3.1854456  
O   -3.6427780   -0.0002487   -4.1244900  
C   -3.4275842   -0.0000722   -1.7311660  
O   -4.6406833    0.0000335   -1.5710051  
C   -2.4891865   -0.0001088   -0.6116743  
H   -2.8919121   -0.0002918    0.3920869  
H    2.1388271    0.0000664   -0.5261648  
H    1.3735870   -0.0006094   -2.9130262  
C    1.9957409   -2.1407946   -5.0258946  
C    1.9855622   -1.7332332   -6.3163865  
C    0.8551744   -0.8225474   -6.4132066  
C    0.2799730   -0.7963189   -5.0512082  
N    0.9444049   -1.5670709   -4.2336137  
C   -0.8712830    0.0001717   -4.7267109  
C   -1.4226090    0.7372654   -5.7177037  
O   -2.4987602    1.5259561   -5.5567517  
C   -0.8649837    0.7322393   -7.1023299  
O   -1.4179259    1.4273760   -7.9545387  
C    0.3165519   -0.0930913   -7.4101073  
H   -2.6523128    1.9181971   -6.4352280  
H    0.6899756   -0.0690833   -8.4250994  
H    2.6823199   -2.8229899   -4.5502983  
C    3.4299064   -3.3423121   -7.6444889  
C    2.9087503   -2.1188225   -7.3933934  
C    3.4615437   -1.2564512   -8.4264645  
C    4.3186587   -2.1480776   -9.2369833  
N    4.3040274   -3.3720350   -8.7834377  
C    5.0542664   -1.6686414  -10.3745724  
C    4.9385605   -0.3581296  -10.6884273  
O    5.5680624    0.2242699  -11.7231150  
C    4.0812066    0.5669795   -9.8901294  
O    4.0230709    1.7476854  -10.2333117  
C    3.3365854    0.0511029   -8.7276599  
H    5.6731797   -2.3425010  -10.9488278  
H    5.2898797    1.1573384  -11.6891996  
H    2.7265569    0.7534067   -8.1755142  
H    3.2641852   -4.2590070   -7.1011837  
C    2.4951002    2.0940188    2.9809380  
C    1.9440701    1.6314916    1.8291961  
C    0.8759964    0.7350050    2.2038498  
C    0.8497377    0.7130254    3.6788474  
N    1.8560616    1.5571714    4.0882609  
C   -0.0205033   -0.0168748    4.4215661  
C   -0.9962600   -0.8356168    3.7214979  
O   -1.8224391   -1.5286685    4.3006425  
C   -0.9864710   -0.8277881    2.1595606  
O   -1.8030528   -1.5133726    1.5592035  
C    0.0000000    0.0000000    1.4700000  
H    2.2509283    1.8888011    0.8310761  
H   -0.0229599   -0.0187323    5.5027230  
H    3.3143982    2.7817323    3.1139444  
H    2.0889452    1.7545833    5.0442112  
