58

C    4.6170338    0.5595432   -8.4628485  
C    5.6891483   -0.2731740   -8.4278232  
C    6.2708932   -0.2662977   -9.7493245  
C    5.4439018    0.6452426  -10.5629396  
N    4.4581603    1.1124248   -9.7245220  
C    5.6668538    0.9231991  -11.8724191  
C    6.7965952    0.2816019  -12.5240122  
O    7.0805508    0.4670912  -13.7001342  
C    7.6857450   -0.6877036  -11.6815961  
O    8.6394764   -1.2339259  -12.2194625  
C    7.3456025   -0.9077816  -10.2781292  
H    6.0330907   -0.8289661   -7.5737677  
H    5.0481658    1.5950125  -12.4510397  
H    7.9663582   -1.5802101   -9.7017390  
H    3.7359148    1.7574037   -9.9879834  
C    4.3913907   -0.7046358   -4.2635296  
C    3.2973506   -0.0000934   -3.8752374  
C    2.8435635    0.7418819   -5.0277935  
C    3.7695334    0.4094497   -6.1272746  
N    4.6845879   -0.4715002   -5.5986044  
C    3.6794141    0.9088337   -7.3859248  
C    2.5984071    1.8357535   -7.6770940  
O    2.4323282    2.3400888   -8.7799836  
C    1.6062052    2.2021221   -6.5276973  
O    0.6923306    2.9816915   -6.7608613  
C    1.8057160    1.5992066   -5.2121968  
H    1.1142472    1.8579094   -4.4218378  
H    5.0082525   -1.3743839   -3.6866339  
H    5.4466834   -0.8833671   -6.1051831  
C    3.3321174    0.0004714   -1.3379332  
C    2.6974186    0.0000115   -2.5332308  
C    1.2800441   -0.0002119   -2.2052838  
C    1.2395035    0.0000643   -0.7271293  
N    2.4394063    0.0005458   -0.2131034  
C    0.0000000    0.0000000    0.0000000  
C   -1.1468701    0.0000634   -0.7169542  
O   -2.3742201    0.0000072   -0.1695492  
C   -1.1388767    0.0001606   -2.2096354  
O   -2.2206229    0.0000903   -2.7970413  
C    0.1454526    0.0001815   -2.9324239  
H   -2.9844344    0.0001023   -0.9290168  
H    0.1083580    0.0003680   -4.0135594  
H    4.3940040    0.0007617   -1.1498630  
C    0.8175213    0.6860729    2.3021913  
C    0.0000000    0.0000000    1.4700000  
C   -0.8887526   -0.7456559    2.3478473  
C   -0.4549825   -0.3816753    3.7138435  
N    0.5448156    0.4573574    3.6934124  
C   -1.0945674   -0.9182058    4.8835240  
C   -2.1210866   -1.7789155    4.6970523  
O   -2.8083856   -2.3554314    5.6976972  
C   -2.5824069   -2.1655116    3.3310774  
O   -3.5227682   -2.9541547    3.2362962  
C   -1.9100805   -1.6015804    2.1470656  
H   -0.7567140   -0.6349833    5.8697035  
H   -3.4728268   -2.9124471    5.2533954  
H   -2.2742832   -1.9066565    1.1752040  
H    1.6189533    1.3585343    2.0405121  
