58

C    2.7524404    2.2033912   -2.8642448  
C    1.6367583    1.9634904   -3.6002996  
C    1.5487627    3.0146995   -4.5862266  
C    2.7129961    3.8929713   -4.3626442  
N    3.4022679    3.3463528   -3.3048152  
C    2.9897128    5.0034584   -5.0919941  
C    2.0800613    5.3573923   -6.1689345  
O    2.2424672    6.3384787   -6.8826536  
C    0.8405006    4.4416715   -6.4233943  
O    0.0674713    4.7297661   -7.3271017  
C    0.6482964    3.2711505   -5.5708743  
H   -0.2123088    2.6421464   -5.7537308  
H    3.1544806    1.6414954   -2.0368836  
H    4.2482759    3.7190538   -2.9144158  
C    0.0000000    0.0000000    0.0000000  
C    0.6750715    0.8096610   -0.8560388  
C    0.3267671    0.3919749   -2.1935956  
C   -0.6133226   -0.7354611   -2.0455734  
N   -0.7693836   -0.9232996   -0.6915975  
C   -1.1754020   -1.4089115   -3.0810616  
C   -0.8313432   -0.9958981   -4.4314610  
O   -1.2848536   -1.5392986   -5.4301327  
C    0.1624721    0.1955836   -4.6117574  
O    0.4598309    0.5520445   -5.7439117  
C    0.7025866    0.8430788   -3.4189126  
H    1.3411676    1.6082351   -0.5817976  
H   -1.8628308   -2.2331437   -2.9507073  
H   -1.3538933   -1.6220303   -0.2706797  
C    7.1836500    4.0990942   -4.0482284  
C    5.8651286    4.0110981   -4.3610121  
C    5.3821047    5.3609738   -4.5323516  
C    6.5355785    6.2489758   -4.2920549  
N    7.5965234    5.4220603   -4.0030983  
C    6.4900948    7.6036533   -4.3590150  
C    5.2202886    8.2288197   -4.6896104  
O    5.0769039    9.4415021   -4.7741276  
C    3.9854797    7.3077413   -4.9478096  
O    2.9110785    7.8226959   -5.2266358  
C    4.1583784    5.8607636   -4.8467436  
H    5.2958240    3.1040869   -4.4601913  
H    7.3479410    8.2366746   -4.1793054  
H    7.8884073    3.3087863   -3.8466829  
H    8.5278234    5.7318131   -3.7938578  
C    3.1301144    0.0010313    3.1728260  
C    2.5367765    0.0002768    1.9564670  
C    1.1089900   -0.0001027    2.2356185  
C    1.0177864    0.0004150    3.7115134  
N    2.1993570    0.0011613    4.2663826  
C   -0.2459220    0.0002880    4.3957118  
C   -1.3675327    0.0000606    3.6398520  
O   -2.6129319   -0.0000866    4.1448486  
C   -1.3083589   -0.0000910    2.1483229  
O   -2.3693264   -0.0004206    1.5241687  
C    0.0000000    0.0000000    1.4700000  
H    3.0096015    0.0001008    0.9892483  
H   -0.2829642    0.0004689    5.4753125  
H   -3.1967446   -0.0002093    3.3649027  
H    4.1849273    0.0015113    3.3971983  
