58

C   -3.2572830   -0.0232444   -1.5109398  
C   -2.5378817   -0.0181672   -0.3591974  
C   -1.1434731   -0.0082956   -0.7338502  
C   -1.1092305   -0.0080067   -2.2088479  
N   -2.4226898   -0.0176966   -2.6182622  
C    0.0265527    0.0004444   -2.9515660  
C    1.3002704    0.0096596   -2.2514971  
O    2.3786151    0.0176009   -2.8306408  
C    1.2877401    0.0092738   -0.6895599  
O    2.3539370    0.0166785   -0.0892023  
C    0.0000000    0.0000000    0.0000000  
H   -2.9383324   -0.0211950    0.6389222  
H    0.0296280    0.0006228   -4.0327229  
H   -2.7279857   -0.0183709   -3.5742125  
C   -5.6461989   -0.0410305   -0.7029989  
C   -4.7160130   -0.0335333   -1.6923281  
C   -5.4338487   -0.0379004   -2.9451366  
C   -6.8687767   -0.0486041   -2.6021261  
N   -6.9297056   -0.0504169   -1.2276537  
C   -7.8765537   -0.0549280   -3.5109994  
C   -7.5244508   -0.0511510   -4.9211571  
O   -8.3594182   -0.0563226   -5.8162015  
C   -6.0109935   -0.0400922   -5.3073318  
O   -5.7023816   -0.0371357   -6.4913966  
C   -5.0158695   -0.0337218   -4.2379678  
H   -3.9701151   -0.0258690   -4.5137579  
H   -5.5020423   -0.0407051    0.3652274  
H   -7.7761899   -0.0555106   -0.6886865  
C  -10.1465468    2.0200886   -0.3427399  
C   -9.1677814    1.5652707   -1.1668965  
C   -9.7933457    0.6651666   -2.1067457  
C  -11.2270750    0.6326627   -1.7601130  
N  -11.3754065    1.4747893   -0.6822866  
C  -12.1600759   -0.1032994   -2.4155320  
C  -11.7229672   -0.9179256   -3.5370730  
O  -12.4868346   -1.6158354   -4.1910822  
C  -10.2091655   -0.8989683   -3.9215862  
O   -9.8293359   -1.5810051   -4.8638265  
C   -9.2989802   -0.0653933   -3.1401974  
H   -8.1263917    1.8299591   -1.1214980  
H  -13.2068504   -0.1128561   -2.1451925  
H  -10.0734794    2.7075843    0.4842431  
H  -12.2430810    1.6656028   -0.2156183  
C    0.0000000    0.0000000    1.4700000  
C    1.0541688    0.0001722    2.3260392  
C    0.5103138    0.0000454    3.6635956  
C   -0.9576371   -0.0002459    3.5155732  
N   -1.2018458    0.0001392    2.1615969  
C   -1.8348311   -0.0008317    4.5510609  
C   -1.2972847   -0.0009736    5.9014604  
O   -2.0050672   -0.0014265    6.9001319  
C    0.2542623   -0.0004184    6.0817573  
O    0.7184670   -0.0002256    7.2139121  
C    1.0974552   -0.0000873    4.8889129  
H    2.0940752    0.0005483    2.0517982  
H   -2.9081052   -0.0011668    4.4207061  
H    2.1707277    0.0000911    5.0223670  
H   -2.1128194   -0.0014912    1.7406791  
