60

C    2.5409847   -2.0883880   -5.9976700  
C    2.0288632   -1.6271493   -4.8275993  
C    0.9468074   -0.7327103   -5.1651928  
C    0.8699422   -0.7105281   -6.6384172  
N    1.8632952   -1.5526132   -7.0822998  
C   -0.0266912    0.0177793   -7.3506832  
C   -0.9794780    0.8344709   -6.6173703  
O   -1.8263935    1.5259884   -7.1676779  
C   -0.9161196    0.8263918   -5.0566895  
O   -1.7129824    1.5102577   -4.4285200  
C    0.0950450    0.0004357   -4.4015596  
H    2.3702732   -1.8840240   -3.8406506  
H   -0.0662236    0.0198186   -8.4311192  
H    3.3565926   -2.7744583   -6.1588575  
H    2.0636497   -1.7493994   -8.0457214  
C    3.3321174    0.0004722   -1.3379336  
C    2.6974183    0.0000122   -2.5332313  
C    1.2800441   -0.0002113   -2.2052840  
C    1.2395036    0.0000646   -0.7271298  
N    2.4394063    0.0005463   -0.2131037  
C    0.0000000    0.0000000    0.0000000  
C   -1.1468699    0.0000637   -0.7169543  
O   -2.3742201    0.0000076   -0.1695489  
C   -1.1388769    0.0001611   -2.2096357  
O   -2.2206234    0.0000908   -2.7970412  
C    0.1454523    0.0001820   -2.9324241  
H    3.1367987   -0.0000643   -3.5160945  
H   -2.9844345    0.0001025   -0.9290168  
C    6.7793186   -0.0000196   -4.0582538  
C    7.7853567    0.0004716   -3.1461343  
C    7.1695419    0.0010655   -1.8401451  
C    5.7118174    0.0008495   -2.0678069  
N    5.5416285    0.0005856   -3.4330633  
C    4.7795905    0.0008679   -1.0815729  
C    5.2428774    0.0013432    0.2960701  
O    4.4818140    0.0014591    1.2547585  
C    6.7823186    0.0018308    0.5605059  
O    7.1842453    0.0025397    1.7162373  
C    7.6891554    0.0014827   -0.5847011  
H    8.8386418    0.0006057   -3.3633971  
H    8.7535790    0.0016187   -0.3930571  
H    6.8379582   -0.0005559   -5.1345674  
H    4.6549026   -0.0011617   -3.9029153  
C    0.0000000    0.0000000    1.4700000  
C    1.0521667    0.0011902    2.3562342  
C    0.4917218    0.0011957    3.6679131  
C   -0.9187428   -0.0003148    3.5178682  
N   -1.1833171    0.0009411    2.1707914  
C   -1.7951701   -0.0010350    4.6072090  
C   -1.2375837   -0.0005224    5.8710424  
O   -2.0474215   -0.0015360    6.9697579  
C    0.1673580    0.0013566    6.0411963  
O    0.5673524    0.0020687    7.3615553  
C    1.0325770    0.0023412    4.9669890  
H    2.0953057    0.0030649    2.0900562  
H   -2.0989778   -0.0102372    1.7591824  
H   -2.8710934   -0.0020419    4.4995513  
H   -1.4634884   -0.0006497    7.7393593  
H    1.5290710    0.0033153    7.3880045  
H    2.1042148    0.0039609    5.1284455  
