60

C   -3.3001091   -0.0403324   -1.4738970  
C   -2.5230953   -0.0307824   -2.6090734  
C   -1.1622390   -0.0138866   -2.1820093  
C   -1.1711032   -0.0141838   -0.7636133  
N   -2.4850675   -0.0284820   -0.3662345  
C    0.0000000    0.0000000    0.0000000  
C    1.2019506    0.0144456   -0.6806484  
O    2.3757556    0.0283061    0.0157735  
C    1.2313682    0.0153636   -2.0955516  
O    2.5052460    0.0310211   -2.6250189  
C    0.0764354    0.0016492   -2.8495196  
H   -2.8917941   -0.0343178   -3.6205288  
H   -2.8033159   -0.0426314    0.5858677  
H    3.0833394    0.0371555   -0.6418829  
H    2.4358119    0.0305327   -3.5845934  
H    0.1303822    0.0029149   -3.9319086  
C   -5.6722887   -0.0680841   -2.3740952  
C   -6.9483496   -0.0812676   -1.9098002  
C   -6.8717568   -0.0792640   -0.4679385  
C   -5.4361809   -0.0636918   -0.1278382  
N   -4.7626992   -0.0579216   -1.3275378  
C   -4.9458278   -0.0570295    1.1375529  
C   -5.8953346   -0.0660063    2.2379579  
O   -5.5530333   -0.0610940    3.4131630  
C   -7.4204573   -0.0827774    1.9010238  
O   -8.2292956   -0.0907522    2.8191619  
C   -7.8272321   -0.0884126    0.4980432  
H   -7.8413663   -0.0914385   -2.5089923  
H   -3.8889896   -0.0454619    1.3652995  
H   -5.3198482   -0.0651545   -3.3927545  
C  -10.2020664   -2.2106595   -2.5601688  
C   -9.1949860   -1.7366885   -1.7822127  
C   -9.7929442   -0.8455474   -0.8162165  
C  -11.2413301   -0.8391757   -1.0971578  
N  -11.4236578   -1.6863352   -2.1657863  
C  -12.1564058   -0.1182496   -0.4010207  
C  -11.6831664    0.7066146    0.6981506  
O  -12.4287000    1.3924765    1.3852260  
C  -10.1533180    0.7152903    1.0132601  
O   -9.7431073    1.4061513    1.9361359  
C   -9.2650392   -0.1039336    0.1924769  
H   -8.1522146   -1.9830602   -1.8746414  
H  -13.2144163   -0.1278107   -0.6233578  
H  -10.1545731   -2.8987115   -3.3885520  
H  -12.3081741   -1.8935376   -2.5921034  
C    2.4951002    2.0940188    2.9809380  
C    1.9440701    1.6314916    1.8291961  
C    0.8759964    0.7350050    2.2038498  
C    0.8497377    0.7130254    3.6788474  
N    1.8560616    1.5571714    4.0882609  
C   -0.0205033   -0.0168748    4.4215661  
C   -0.9962600   -0.8356168    3.7214979  
O   -1.8224391   -1.5286685    4.3006425  
C   -0.9864710   -0.8277881    2.1595606  
O   -1.8030528   -1.5133726    1.5592035  
C    0.0000000    0.0000000    1.4700000  
H    2.2509283    1.8888011    0.8310761  
H   -0.0229599   -0.0187323    5.5027230  
H    3.3143982    2.7817323    3.1139444  
H    2.0889452    1.7545833    5.0442112  
