60

C    1.1188646    0.0008222   -0.8003804  
C    0.0000000    0.0000000    0.0000000  
C   -1.1323861    0.0008899   -0.8673531  
C   -0.6382658    0.0019679   -2.1969280  
N    0.7324023    0.0038481   -2.1202236  
C   -1.4770906    0.0027317   -3.3154813  
C   -2.8395469    0.0020945   -3.0876864  
O   -3.7039191    0.0024426   -4.1440354  
C   -3.3517867    0.0013931   -1.7684336  
O   -4.7300488    0.0012366   -1.7073134  
C   -2.5248543    0.0009122   -0.6644821  
H    1.3576321   -0.0056167   -2.9057040  
H   -4.5940021    0.0021828   -3.7685142  
H   -4.9934598    0.0007262   -0.7819928  
H   -2.9462578    0.0005605    0.3339647  
H    2.1619890    0.0009354   -0.5342068  
C    1.8836778   -2.1362885   -5.0810760  
C    1.8358591   -1.7275861   -6.3703606  
C    0.7030374   -0.8169590   -6.4333928  
C    0.1677643   -0.7920098   -5.0551894  
N    0.8558155   -1.5634006   -4.2579875  
C   -0.9736286    0.0040462   -4.6965764  
C   -1.5536716    0.7419465   -5.6704281  
O   -2.6247560    1.5303572   -5.4774861  
C   -1.0366284    0.7382179   -7.0707188  
O   -1.6142386    1.4340382   -7.9058361  
C    0.1355215   -0.0866895   -7.4135267  
H    2.4887449   -2.0092005   -7.1787599  
H   -2.8038808    1.9233564   -6.3507665  
H    2.5838930   -2.8188171   -4.6262937  
C    1.6809841   -3.0953380  -10.3159430  
C    1.1931842   -2.5391128   -9.1826978  
C    1.0366419   -1.1269232   -9.4952917  
C    1.4893753   -1.0031754  -10.8975410  
N    1.8682006   -2.1537851  -11.3839333  
C    1.4895063    0.2567759  -11.5886336  
C    1.0566542    1.3436274  -10.9098649  
O    1.0030191    2.5814226  -11.4304673  
C    0.5931027    1.2509894   -9.4939906  
O    0.2126208    2.2811923   -8.9379908  
C    0.6025524   -0.0527795   -8.8069517  
H    0.9673831   -3.0268998   -8.2498780  
H    1.8259640    0.3181175  -12.6133016  
H    0.6549202    3.1382274  -10.7107804  
H    1.9332531   -4.1287301  -10.4932412  
C    0.0000000    0.0000000    1.4700000  
C    1.0541688    0.0001722    2.3260392  
C    0.5103138    0.0000454    3.6635956  
C   -0.9576371   -0.0002459    3.5155732  
N   -1.2018458    0.0001392    2.1615969  
C   -1.8348311   -0.0008317    4.5510609  
C   -1.2972847   -0.0009736    5.9014604  
O   -2.0050672   -0.0014265    6.9001319  
C    0.2542623   -0.0004184    6.0817573  
O    0.7184670   -0.0002256    7.2139121  
C    1.0974552   -0.0000873    4.8889129  
H    2.0940752    0.0005483    2.0517982  
H   -2.9081052   -0.0011668    4.4207061  
H    2.1707277    0.0000911    5.0223670  
H   -2.1128194   -0.0014912    1.7406791  
