62

C   -3.3003284   -0.0132753   -1.4738976  
C   -2.5232619   -0.0100960   -2.6090741  
C   -1.1623133   -0.0043576   -2.1820095  
C   -1.1711796   -0.0045821   -0.7636135  
N   -2.4852176   -0.0081074   -0.3662350  
C    0.0000000    0.0000000    0.0000000  
C    1.2020289    0.0045909   -0.6806481  
O    2.3759077    0.0088277    0.0157742  
C    1.2314530    0.0052677   -2.0955513  
O    2.5054160    0.0104809   -2.6250183  
C    0.0764466    0.0010224   -2.8495191  
H   -2.8919774   -0.0106086   -3.6205293  
H   -2.8035713   -0.0196472    0.5858673  
H    3.0835406    0.0118757   -0.6418825  
H    2.4359807    0.0105618   -3.5845921  
H    0.1304027    0.0018456   -3.9319086  
C   -5.6708102   -0.0220601   -2.3611548  
C   -4.7630138   -0.0188731   -1.3275388  
C   -5.5133116   -0.0203130   -0.1144228  
C   -6.8854705   -0.0247226   -0.4737104  
N   -6.9456207   -0.0237281   -1.8452054  
C   -7.9149459   -0.0274972    0.4723137  
C   -7.5526339   -0.0260965    1.8053202  
O   -8.5176702   -0.0290281    2.7705720  
C   -6.1889440   -0.0213342    2.1836645  
O   -5.9909051   -0.0200734    3.5489934  
C   -5.1728145   -0.0183216    1.2509277  
H   -7.7894045   -0.0367212   -2.3891184  
H   -8.0553978   -0.0270931    3.6188440  
H   -5.0439614   -0.0168339    3.7189671  
H   -4.1373787   -0.0145095    1.5708280  
H   -5.5098161   -0.0218296   -3.4255986  
C   -9.9414583   -0.7200319   -0.8888484  
C   -9.3392994   -0.0318745    0.1088600  
C  -10.4118680    0.7107397    0.7527698  
C  -11.6271056    0.3429003   -0.0051723  
N  -11.3575925   -0.4955904   -0.9686480  
C  -12.9202120    0.8756400    0.3252079  
C  -12.9959192    1.7364109    1.3657250  
O  -14.1371558    2.3096163    1.7841208  
C  -11.7875825    2.1268525    2.1503508  
O  -11.9306139    2.9153253    3.0847346  
C  -10.4724128    1.5667704    1.7917963  
H  -13.7913844    0.5896435   -0.2459087  
H  -13.8726048    2.8676354    2.5376326  
H   -9.6216936    1.8745652    2.3848980  
H   -9.4877340   -1.3913284   -1.6005145  
C    0.8400945    0.7047457    2.2710304  
C    0.0000000    0.0000000    1.4700000  
C   -0.8844236   -0.7423113    2.3369512  
C   -0.4878984   -0.4098547    3.7186280  
N    0.5629682    0.4714286    3.6095011  
C   -1.0836927   -0.9095027    4.8308716  
C   -2.1891196   -1.8367527    4.6554461  
O   -2.7906899   -2.3413415    5.5944904  
C   -2.6257283   -2.2031529    3.2011665  
O   -3.5549479   -2.9829990    3.0410059  
C   -1.9068976   -1.5999348    2.0816745  
H   -0.7774656   -0.6525820    5.8354244  
H   -2.2155208   -1.8586617    1.0779135  
H    1.6384792    1.3747609    1.9961646  
H    1.0518368    0.8833920    4.3830260  
