58

C    0.5163337   -0.7047867   -5.2241140  
C   -0.2963289   -0.0005348   -4.3948470  
C   -1.2105192    0.7409700   -5.2310660  
C   -0.8613561    0.4085787   -6.6254800  
N    0.1932978   -0.4719007   -6.5523272  
C   -1.4953156    0.9075948   -7.7167101  
C   -2.5947747    1.8340477   -7.5036128  
O   -3.2285718    2.3380296   -8.4215491  
C   -2.9815338    2.2003648   -6.0352690  
O   -3.9053018    2.9795430   -5.8434493  
C   -2.2242841    1.5978720   -4.9409993  
H   -1.2235223    0.6507348   -8.7311368  
H   -2.4985003    1.8565365   -3.9272825  
H    1.3241786   -1.3741586   -4.9766922  
H    0.6556640   -0.8836281   -7.3421030  
C    3.1301148   -0.0010315   -1.7028253  
C    2.5367766   -0.0002767   -0.4864666  
C    1.1089903    0.0001025   -0.7656183  
C    1.0177867   -0.0004153   -2.2415131  
N    2.1993574   -0.0011616   -2.7963821  
C   -0.2459218   -0.0002884   -2.9257117  
C   -1.3675324   -0.0000610   -2.1698519  
O   -2.6129318    0.0000862   -2.6748483  
C   -1.3083588    0.0000908   -0.6783229  
O   -2.3693264    0.0004202   -0.0541688  
C    0.0000000    0.0000000    0.0000000  
H    3.0096015   -0.0001006    0.4807520  
H   -3.1967441    0.0002093   -1.8949029  
C    5.6039774   -0.0017522   -1.1379130  
C    4.5679459   -0.0016858   -2.0086704  
C    5.1852099   -0.0025566   -3.3260481  
C    6.6391261   -0.0029696   -3.0563966  
N    6.8907015   -0.0025818   -1.7754988  
C    7.6095171   -0.0038936   -4.1163145  
C    7.1484094   -0.0047718   -5.3878147  
O    7.9405118   -0.0056820   -6.4734544  
C    5.6870980   -0.0047557   -5.6923321  
O    5.3390440   -0.0054603   -6.8730428  
C    4.7115721   -0.0037546   -4.5876729  
H    8.6658404   -0.0039713   -3.8902820  
H    7.3255396   -0.0061836   -7.2290739  
H    3.6621307   -0.0038915   -4.8501668  
H    5.5656909   -0.0012540   -0.0601804  
C    2.3971438    2.0127888    3.1728260  
C    1.9431056    1.6308205    1.9564670  
C    0.8496017    0.7127664    2.2356185  
C    0.7794028    0.6545384    3.7115134  
N    1.6840587    1.4146091    4.2663826  
C   -0.1885723   -0.1578550    4.3957118  
C   -1.0476298   -0.8789867    3.6398520  
O   -2.0015663   -1.6796266    4.1448486  
C   -1.0022026   -0.8410666    2.1483229  
O   -1.8147390   -1.5232959    1.5241687  
C    0.0000000    0.0000000    1.4700000  
H    2.3054237    1.9346118    0.9892483  
H   -0.2170646   -0.1815267    5.4753125  
H   -2.4487139   -2.0549881    3.3649027  
H    3.2048689    2.6911772    3.3971983  
