58

C    6.9454050   -0.0095707   -4.1350277  
C    7.8972531   -0.6850328   -3.4409007  
C    9.1713230   -0.3333693   -4.0222053  
C    8.8816373    0.6091171   -5.1197447  
N    7.5145656    0.7632177   -5.1358237  
C    9.8236222    1.1746230   -5.9163446  
C   11.2156740    0.8319862   -5.6769042  
O   12.1376087    1.2885510   -6.3401413  
C   11.5454911   -0.1643194   -4.5200120  
O   12.7138573   -0.4605096   -4.3091756  
C   10.4441047   -0.7080783   -3.7293634  
H    7.7263491   -1.3534991   -2.6159417  
H    9.5898772    1.8637647   -6.7159428  
H   10.6809369   -1.3970930   -2.9300557  
H    7.0084517    1.3486286   -5.7747212  
C    4.3047788   -2.1086501   -1.2859241  
C    5.3774559   -1.6442162   -1.9771117  
C    4.8701586   -0.7486140   -2.9897226  
C    3.4034918   -0.7291863   -2.8306571  
N    3.1250154   -1.5744519   -1.7814348  
C    2.5562217   -0.0001543   -3.6003001  
C    3.1269049    0.8199330   -4.6559100  
O    2.4474939    1.5122577   -5.4024942  
C    4.6776933    0.8144231   -4.8425423  
O    5.1696074    1.5006854   -5.7281633  
C    5.4870227   -0.0121795   -3.9505977  
H    6.4066157   -1.8999867   -1.7981563  
H    4.2768475   -2.7963886   -0.4563905  
H    2.2064271   -1.7712342   -1.4285624  
C    0.0000000    0.0000000    0.0000000  
C    1.0541688   -0.0001719   -0.8560391  
C    0.5103141   -0.0000449   -2.1935955  
C   -0.9576367    0.0002461   -2.0455733  
N   -1.2018459   -0.0001392   -0.6915970  
C   -1.8348306    0.0008319   -3.0810611  
C   -1.2972842    0.0009739   -4.4314605  
O   -2.0050664    0.0014267   -5.4301321  
C    0.2542628    0.0004190   -4.6117571  
O    0.7184677    0.0002263   -5.7439119  
C    1.0974556    0.0000880   -3.4189127  
H    2.0940752   -0.0005479   -0.5817978  
H   -2.9081050    0.0011669   -2.9507065  
H   -2.1128195    0.0014911   -0.2706793  
C    3.1301144    0.0010313    3.1728260  
C    2.5367765    0.0002768    1.9564670  
C    1.1089900   -0.0001027    2.2356185  
C    1.0177864    0.0004150    3.7115134  
N    2.1993570    0.0011613    4.2663826  
C   -0.2459220    0.0002880    4.3957118  
C   -1.3675327    0.0000606    3.6398520  
O   -2.6129319   -0.0000866    4.1448486  
C   -1.3083589   -0.0000910    2.1483229  
O   -2.3693264   -0.0004206    1.5241687  
C    0.0000000    0.0000000    1.4700000  
H    3.0096015    0.0001008    0.9892483  
H   -0.2829642    0.0004689    5.4753125  
H   -3.1967446   -0.0002093    3.3649027  
H    4.1849273    0.0015113    3.3971983  
