62

C   -4.7630504   -0.0022798   -1.3275397  
C   -5.7496376   -0.0047933   -2.2862402  
C   -6.9989987   -0.0047031   -1.5979844  
C   -6.7092695   -0.0017732   -0.2094693  
N   -5.3425441   -0.0023123   -0.0803285  
C   -7.7059382   -0.0005748    0.7710608  
C   -9.0190067   -0.0020599    0.3420777  
O  -10.0316328   -0.0006360    1.2572822  
C   -9.3281945   -0.0053599   -1.0389398  
O  -10.6818172   -0.0069109   -1.3054859  
C   -8.3454685   -0.0068169   -2.0068102  
H   -5.5886396   -0.0075890   -3.3506951  
H   -4.8418190    0.0098947    0.7897903  
H  -10.8555480   -0.0023516    0.7528761  
H  -10.8038876   -0.0090994   -2.2597906  
H   -8.6128179   -0.0095313   -3.0570459  
C   -3.3003544   -0.0017778   -1.4738983  
C   -2.5232812   -0.0013056   -2.6090745  
C   -1.1623201   -0.0003085   -2.1820101  
C   -1.1711884   -0.0005020   -0.7636141  
N   -2.4852304    0.0005505   -0.3662357  
C    0.0000000    0.0000000    0.0000000  
C    1.2020381    0.0004033   -0.6806480  
O    2.3759247    0.0005506    0.0157743  
C    1.2314653    0.0009776   -2.0955511  
O    2.5054377    0.0017526   -2.6250183  
C    0.0764514    0.0007561   -2.8495196  
H   -2.8919959   -0.0005337   -3.6205296  
H   -2.8036229   -0.0098801    0.5858666  
H    3.0835639    0.0011332   -0.6418822  
H    2.4360034    0.0020753   -3.5845927  
H    0.1304080    0.0013913   -3.9319088  
C   -6.4054932    0.7303567    2.8236071  
C   -6.3948915    0.5160817    4.1645205  
C   -7.4639603   -0.4111593    4.4511428  
C   -8.1028231   -0.7217719    3.1580208  
N   -7.4146766    0.0022629    2.2119143  
C   -9.1562294   -1.5632635    3.0033238  
C   -9.6970091   -2.2057486    4.1896229  
O  -10.6445278   -2.9798796    4.1545336  
C   -9.0361751   -1.8911662    5.5695289  
O   -9.4830449   -2.4259198    6.5753156  
C   -7.9053900   -0.9672767    5.6095946  
H   -5.7157927    0.9573716    4.8721233  
H   -9.6100200   -1.7775496    2.0456885  
H   -7.4533545   -0.7549188    6.5689133  
H   -5.7611066    1.3590738    2.2308423  
C    0.8681109    0.7263879    2.2709268  
C    0.6127770    0.5096195    3.5869401  
C   -0.4920590   -0.4175482    3.6542670  
C   -0.8620974   -0.7254003    2.2596025  
N    0.0000000    0.0000000    1.4700000  
C   -1.8641242   -1.5660088    1.8976294  
C   -2.6293522   -2.2103885    2.9520183  
O   -3.5512764   -2.9839180    2.7283916  
C   -2.2549728   -1.8987399    4.4361073  
O   -2.8923672   -2.4351063    5.3323774  
C   -1.1543735   -0.9755647    4.7012123  
H    1.1382914    0.9492124    4.4159191  
H   -2.1192137   -1.7782617    0.8686553  
H   -0.9013378   -0.7652422    5.7314848  
H    1.6172880    1.3558399    1.8188057  
