58

C    6.8148664   -1.8475902   -1.9160708  
C    7.4251230   -2.6617861   -1.0167672  
C    8.8430797   -2.5920682   -1.2801576  
C    9.0100885   -1.6638369   -2.4147435  
N    7.7431567   -1.2479700   -2.7536096  
C   10.2045457   -1.3301726   -2.9657814  
C   11.4057987   -1.9251388   -2.4040485  
O   12.5284802   -1.6880608   -2.8302862  
C   11.2524809   -2.9111155   -1.2023207  
O   12.2566999   -3.4184520   -0.7212631  
C    9.9119991   -3.1927780   -0.6947543  
H    6.9375866   -3.2448282   -0.2558580  
H   10.3051097   -0.6470563   -3.7977366  
H    9.8144671   -3.8763838    0.1376489  
H    7.5264398   -0.6060241   -3.4938707  
C    4.3630981   -2.0949035   -1.3110652  
C    3.1522514   -1.6320804   -1.7156885  
C    3.3924172   -0.7354492   -2.8216759  
C    4.8529064   -0.7137076   -3.0297340  
N    5.3832064   -1.5581152   -2.0817637  
C    5.4827050    0.0162381   -3.9848456  
C    4.6677391    0.8352839   -4.8666219  
O    5.1406430    1.5283993   -5.7578308  
C    3.1189447    0.8277106   -4.6641774  
O    2.4225435    1.5135518   -5.4003220  
C    2.5562217   -0.0001543   -3.6003001  
H    2.1995747   -1.8892845   -1.2880584  
H    6.5552966    0.0179178   -4.1206901  
H    4.5960544   -2.7827971   -0.5145582  
C    0.0000000    0.0000000    0.0000000  
C    1.0541688   -0.0001719   -0.8560391  
C    0.5103141   -0.0000449   -2.1935955  
C   -0.9576367    0.0002461   -2.0455733  
N   -1.2018459   -0.0001392   -0.6915970  
C   -1.8348306    0.0008319   -3.0810611  
C   -1.2972842    0.0009739   -4.4314605  
O   -2.0050664    0.0014267   -5.4301321  
C    0.2542628    0.0004190   -4.6117571  
O    0.7184677    0.0002263   -5.7439119  
C    1.0974556    0.0000880   -3.4189127  
H    2.0940752   -0.0005479   -0.5817978  
H   -2.9081050    0.0011669   -2.9507065  
H   -2.1128195    0.0014911   -0.2706793  
C    1.1319247   -0.0015655    2.2709268  
C    0.7969915   -0.0034943    3.5869401  
C   -0.6453339   -0.0035710    3.6542670  
C   -1.1266833   -0.0015433    2.2596025  
N    0.0000000    0.0000000    1.4700000  
C   -2.4346130   -0.0013964    1.8976294  
C   -3.4350110   -0.0031408    2.9520183  
O   -4.6384611   -0.0030974    2.7283916  
C   -2.9478959   -0.0050506    4.4361073  
O   -3.7809380   -0.0062218    5.3323774  
C   -1.5113823   -0.0053090    4.7012123  
H    1.4821238   -0.0045407    4.4159191  
H   -2.7664565   -0.0000232    0.8686553  
H   -1.1823530   -0.0068408    5.7314848  
H    2.1104316   -0.0009391    1.8188057  
