58

C    7.6123318   -0.7249674   -5.0536386  
C    8.9455443   -0.5083240   -4.9133352  
C    9.3331283    0.4175491   -5.9513009  
C    8.1076417    0.7247778   -6.7132606  
N    7.1003450    0.0002888   -6.1188200  
C    8.0546062    1.5641555   -7.7783127  
C    9.2867844    2.2077737   -8.2026120  
O    9.3426181    2.9801855   -9.1505372  
C   10.5965186    1.8967657   -7.4103524  
O   11.6400894    2.4324998   -7.7585012  
C   10.5280818    0.9749246   -6.2792566  
H    9.5845772   -0.9471855   -4.1679153  
H    7.1452074    1.7759692   -8.3233253  
H   11.4393239    0.7650389   -5.7358311  
H    6.9608053   -1.3535961   -4.4686348  
C    3.2973507   -0.0000930   -3.8752373  
C    4.6090968    0.0000009   -4.2265165  
C    4.6584752   -0.0001359   -5.6695676  
C    3.2579291   -0.0002893   -6.1335296  
N    2.4824026   -0.0006539   -4.9971104  
C    2.8797130   -0.0000493   -7.4368552  
C    3.9215762    0.0001635   -8.4502935  
O    3.6829951    0.0003259   -9.6508676  
C    5.4116113    0.0000766   -7.9816782  
O    6.2974493   -0.0000527   -8.8258056  
C    5.6945668    0.0000918   -6.5485739  
H    5.4465356   -0.0000332   -3.5517502  
H    1.8466888   -0.0000377   -7.7558720  
H    1.4789639    0.0007238   -4.9846265  
C    3.3321175    0.0004715   -1.3379331  
C    2.6974186    0.0000117   -2.5332308  
C    1.2800441   -0.0002117   -2.2052838  
C    1.2395036    0.0000644   -0.7271292  
N    2.4394065    0.0005460   -0.2131033  
C    0.0000000    0.0000000    0.0000000  
C   -1.1468701    0.0000635   -0.7169542  
O   -2.3742199    0.0000073   -0.1695491  
C   -1.1388766    0.0001607   -2.2096354  
O   -2.2206227    0.0000905   -2.7970412  
C    0.1454526    0.0001817   -2.9324239  
H   -2.9844344    0.0001026   -0.9290168  
H    0.1083579    0.0003683   -4.0135594  
H    4.3940038    0.0007619   -1.1498630  
C    0.0000000    0.0000000    1.4700000  
C    1.0662921    0.0000102    2.3034270  
C    0.4961870   -0.0000064    3.6418889  
C   -0.9663858    0.0000850    3.4240247  
N   -1.2632773    0.0000084    2.1528658  
C   -1.8985362    0.0000517    4.5177257  
C   -1.3925775   -0.0004564    5.7720543  
O   -2.1456383   -0.0005410    6.8851312  
C    0.0786232   -0.0009323    6.0245000  
O    0.4683759   -0.0012588    7.1921102  
C    1.0143166   -0.0008442    4.8859032  
H    2.1107198   -0.0000632    2.0421868  
H   -2.9622183    0.0003270    4.3293377  
H   -1.5042274   -0.0009692    7.6184419  
H    2.0724152   -0.0013148    5.1109744  
