58

C    1.0965514    0.0001358   -0.8010306  
C    0.0000000    0.0000000    0.0000000  
C   -1.1546563    0.0001469   -0.8669509  
C   -0.6372022    0.0003521   -2.2486280  
N    0.7342868    0.0007339   -2.1395012  
C   -1.4147750    0.0001354   -3.3608711  
C   -2.8576060   -0.0001044   -3.1854453  
O   -3.6427790   -0.0002492   -4.1244898  
C   -3.4275848   -0.0000724   -1.7311655  
O   -4.6406836    0.0000336   -1.5710048  
C   -2.4891872   -0.0001088   -0.6116739  
H   -1.0150456    0.0001618   -4.3654240  
H   -2.8919117   -0.0002917    0.3920867  
H    2.1388271    0.0000661   -0.5261648  
C    4.4892970   -2.1441339   -2.6751667  
C    4.8760700   -1.7381811   -3.9069086  
C    3.8307835   -0.8270017   -4.3469398  
C    2.8653297   -0.7987567   -3.2272588  
N    3.2460493   -1.5688475   -2.2444047  
C    1.6707635   -0.0012343   -3.2725975  
C    1.4508812    0.7349196   -4.3857298  
O    0.3779849    1.5243969   -4.5636594  
C    2.4065718    0.7278584   -5.5323626  
O    2.1425163    1.4222296   -6.5138631  
C    3.6247981   -0.0984999   -5.4617876  
H    0.5018301    1.9156225   -5.4472639  
H    4.2917519   -0.0759645   -6.3131955  
H    4.9961447   -2.8261076   -2.0110957  
C    6.0849166   -2.1256196   -4.6481784  
C    7.0826825   -2.9690454   -4.2778101  
C    8.0310562   -3.0028165   -5.3660567  
C    7.5002256   -2.1034584   -6.4082488  
N    6.3185165   -1.6038045   -5.9114597  
C    8.1074917   -1.8619493   -7.5976211  
C    9.3679179   -2.5327230   -7.8695071  
O    9.9920724   -2.3808760   -8.9114642  
C    9.9484640   -3.4897714   -6.7800898  
O   11.0088058   -4.0603072   -6.9978650  
C    9.2024439   -3.6696895   -5.5371354  
H    7.1468900   -3.5063694   -3.3484156  
H    7.7012436   -1.1984685   -8.3483977  
H    9.6113181   -4.3338662   -4.7878589  
H    5.7192159   -0.9578467   -6.3916935  
C    2.5128556    2.1077716    2.9199648  
C    1.9592212    1.6432552    4.0696553  
C    0.8915788    0.7479214    3.6910360  
C    0.8684491    0.7287414    2.2159470  
N    1.8754542    1.5738793    1.8102719  
C    0.0000000    0.0000000    1.4700000  
C   -0.9772830   -0.8200135    2.1664417  
O   -1.8021297   -1.5120829    1.5842315  
C   -0.9711318   -0.8147624    3.7284083  
O   -1.7894187   -1.5009653    4.3257297  
C    0.0140216    0.0115358    4.4216297  
H    2.2638494    1.8988021    5.0689105  
H    0.0117648    0.0094386    5.5031631  
H    3.3327358    2.7953732    2.7900019  
H    2.1123206    1.7707734    0.8551938  
