60

C   -3.3039187    0.0371450   -1.5420422  
C   -2.5843676    0.0296254   -0.3695845  
C   -1.2039244    0.0135790   -0.7283586  
C   -1.1421724    0.0122780   -2.1454371  
N   -2.4347393    0.0248487   -2.6077460  
C    0.0655031   -0.0016186   -2.8497917  
C    1.2320950   -0.0141285   -2.1101403  
O    2.4391243   -0.0276240   -2.7472529  
C    1.1910451   -0.0134322   -0.6955268  
O    2.4370003   -0.0272533   -0.1032870  
C    0.0000000    0.0000000    0.0000000  
H   -3.0029617    0.0339345    0.6222590  
H   -2.7052112    0.0376206   -3.5745253  
H    0.1193298   -0.0028304   -3.9297476  
H    3.1131015   -0.0350458   -2.0551796  
H    2.3198863   -0.0257573    0.8516402  
C   -6.6796741    0.0786716    1.2661404  
C   -7.7088159    0.0889356    0.3802301  
C   -7.1268895    0.0808264   -0.9411827  
C   -5.6638733    0.0648532   -0.7511336  
N   -5.4585738    0.0647035    0.6092859  
C   -4.7574256    0.0531429   -1.7610447  
C   -5.2560250    0.0567210   -3.1262998  
O   -4.5199627    0.0470375   -4.1042669  
C   -6.8016704    0.0738140   -3.3510068  
O   -7.2332125    0.0772722   -4.4960041  
C   -7.6786451    0.0851466   -2.1828287  
H   -8.7475871    0.0967511   -2.3469990  
H   -6.7105622    0.0803534    2.3436064  
H   -4.5601073    0.0538548    1.0561503  
C   -9.7215657    0.8180624    1.7133523  
C   -9.1402873    0.1054427    0.7141709  
C  -10.1937656   -0.6259528    0.0507852  
C  -11.4454165   -0.2785101    0.7503857  
N  -11.0905304    0.6001453    1.7478373  
C  -12.6694650   -0.7648732    0.4234893  
C  -12.7601690   -1.6926178   -0.6916777  
O  -13.8169249   -2.1858589   -1.0635382  
C  -11.4473037   -2.0747659   -1.4467631  
O  -11.5111872   -2.8551705   -2.3870548  
C  -10.1870833   -1.4850784   -1.0018290  
H  -13.5752385   -0.4970807    0.9495799  
H   -9.2826462   -1.7546649   -1.5300707  
H   -9.2650129    1.4839254    2.4275478  
H  -11.7280991    1.0201423    2.3991091  
C    2.4951002    2.0940188    2.9809380  
C    1.9440701    1.6314916    1.8291961  
C    0.8759964    0.7350050    2.2038498  
C    0.8497377    0.7130254    3.6788474  
N    1.8560616    1.5571714    4.0882609  
C   -0.0205033   -0.0168748    4.4215661  
C   -0.9962600   -0.8356168    3.7214979  
O   -1.8224391   -1.5286685    4.3006425  
C   -0.9864710   -0.8277881    2.1595606  
O   -1.8030528   -1.5133726    1.5592035  
C    0.0000000    0.0000000    1.4700000  
H    2.2509283    1.8888011    0.8310761  
H   -0.0229599   -0.0187323    5.5027230  
H    3.3143982    2.7817323    3.1139444  
H    2.0889452    1.7545833    5.0442112  
