58

C    0.8807936   -0.7246964   -5.2251247  
C    0.6214206   -0.5080871   -6.5403741  
C   -0.4848681    0.4175795   -6.6044203  
C   -0.8513575    0.7247245   -5.2086628  
N    0.0139734    0.0003888   -4.4216239  
C   -1.8534974    1.5639103   -4.8437161  
C   -2.6226025    2.2073963   -5.8958280  
O   -3.5449425    2.9796328   -5.6694648  
C   -2.2520214    1.8964737   -7.3810223  
O   -2.8926950    2.4320977   -8.2753961  
C   -1.1509204    0.9748416   -7.6493941  
H    1.1451744   -0.9468419   -7.3709103  
H   -2.1059483    1.7756660   -3.8139887  
H    1.6321137   -1.3531896   -4.7752303  
C    3.2798082    0.0005861   -1.4499653  
C    2.5571141    0.0005572   -2.5996559  
C    1.1637433    0.0001554   -2.2210362  
C    1.1336966   -0.0000198   -0.7459475  
N    2.4483514   -0.0001427   -0.3402724  
C    0.0000000    0.0000000    0.0000000  
C   -1.2757370   -0.0000185   -0.6964413  
O   -2.3524597   -0.0000641   -0.1142310  
C   -1.2676496   -0.0000871   -2.2584082  
O   -2.3355767   -0.0004097   -2.8557289  
C    0.0181556    0.0001766   -2.9516298  
H    2.9547351    0.0006083   -3.5989109  
H    4.3498546    0.0008617   -1.3200028  
H    2.7563630    0.0012823    0.6148051  
C   -0.4567518   -0.5538836   -9.5518910  
C   -0.1996117   -0.4867582  -10.8835997  
C   -0.3966358    0.8871230  -11.2816792  
C   -0.7924488    1.6201682  -10.0639895  
N   -0.8105958    0.6896488   -9.0507305  
C   -1.0692584    2.9480599  -10.0217515  
C   -0.9709945    3.7058126  -11.2581539  
O   -1.2002691    4.9064173  -11.3235923  
C   -0.5537417    2.9498511  -12.5597787  
O   -0.4679572    3.5772409  -13.6068142  
C   -0.2802900    1.5171289  -12.4798837  
H    0.0943436   -1.3062016  -11.5150389  
H   -1.3577339    3.4665213   -9.1179322  
H    0.0082233    1.0011527  -13.3855617  
H   -0.4177359   -1.4072140   -8.8944762  
C    2.5128556    2.1077716    2.9199648  
C    1.9592212    1.6432552    4.0696553  
C    0.8915788    0.7479214    3.6910360  
C    0.8684491    0.7287414    2.2159470  
N    1.8754542    1.5738793    1.8102719  
C    0.0000000    0.0000000    1.4700000  
C   -0.9772830   -0.8200135    2.1664417  
O   -1.8021297   -1.5120829    1.5842315  
C   -0.9711318   -0.8147624    3.7284083  
O   -1.7894187   -1.5009653    4.3257297  
C    0.0140216    0.0115358    4.4216297  
H    2.2638494    1.8988021    5.0689105  
H    0.0117648    0.0094386    5.5031631  
H    3.3327358    2.7953732    2.7900019  
H    2.1123206    1.7707734    0.8551938  
