58

C    3.2798087    0.0005862   -1.4499649  
C    2.5571146    0.0005569   -2.5996553  
C    1.1637436    0.0001550   -2.2210358  
C    1.1336964   -0.0000199   -0.7459473  
N    2.4483515   -0.0001427   -0.3402724  
C    0.0000000    0.0000000    0.0000000  
C   -1.2757367   -0.0000186   -0.6964419  
O   -2.3524602   -0.0000642   -0.1142313  
C   -1.2676494   -0.0000873   -2.2584084  
O   -2.3355762   -0.0004101   -2.8557298  
C    0.0181559    0.0001762   -2.9516298  
H    0.0150792    0.0003318   -4.0331633  
H    4.3498552    0.0008614   -1.3200022  
H    2.7563627    0.0012825    0.6148060  
C    5.9694211   -2.1380306   -4.2640189  
C    5.9589013   -1.7308758   -5.5546363  
C    4.8277515   -0.8211665   -5.6517371  
C    4.2525284   -0.7949997   -4.2897470  
N    4.9176049   -1.5649431   -3.4719145  
C    3.1006055    0.0006267   -3.9654946  
C    2.5486628    0.7369528   -4.9567151  
O    1.4718512    1.5247921   -4.7960058  
C    3.1062921    0.7319668   -6.3413394  
O    2.5527683    1.4263777   -7.1937629  
C    4.2885184   -0.0924693   -6.6488624  
H    6.6352655   -2.0129520   -6.3433318  
H    1.3179705    1.9166331   -5.6746031  
H    4.6619225   -0.0684616   -7.6638621  
C    7.9573945   -3.7123923   -4.1719858  
C    6.9060855   -3.0669575   -3.6154399  
C    6.8991414   -3.4916182   -2.2239965  
C    8.0459657   -4.4182797   -2.1114052  
N    8.6701624   -4.5515832   -3.2500879  
C    8.3837971   -5.0637837   -0.8727447  
C    7.6113107   -4.7954408    0.2045628  
O    7.8110682   -5.3271204    1.4225341  
C    6.4473297   -3.8645035    0.1229205  
O    5.7879964   -3.6668243    1.1434216  
C    6.1211756   -3.2147707   -1.1590294  
H    9.2272713   -5.7365392   -0.8192574  
H    7.1049383   -4.9488842    1.9770342  
H    5.2702301   -2.5470759   -1.1765244  
H    8.3013644   -3.6642879   -5.1929378  
C    2.5128556    2.1077716    2.9199648  
C    1.9592212    1.6432552    4.0696553  
C    0.8915788    0.7479214    3.6910360  
C    0.8684491    0.7287414    2.2159470  
N    1.8754542    1.5738793    1.8102719  
C    0.0000000    0.0000000    1.4700000  
C   -0.9772830   -0.8200135    2.1664417  
O   -1.8021297   -1.5120829    1.5842315  
C   -0.9711318   -0.8147624    3.7284083  
O   -1.7894187   -1.5009653    4.3257297  
C    0.0140216    0.0115358    4.4216297  
H    2.2638494    1.8988021    5.0689105  
H    0.0117648    0.0094386    5.5031631  
H    3.3327358    2.7953732    2.7900019  
H    2.1123206    1.7707734    0.8551938  
