58

C    3.5234935   -4.3191710   -1.8654364  
C    2.8198995   -3.4992653   -2.6881053  
C    3.4606468   -3.5494784   -3.9810701  
C    4.6033852   -4.4724870   -3.8432547  
N    4.5862000   -4.9042598   -2.5370511  
C    5.4614797   -4.7888488   -4.8458982  
C    5.2452465   -4.1794395   -6.1475893  
O    5.9631036   -4.4004973   -7.1140852  
C    4.0412993   -3.1986815   -6.3162043  
O    3.8494456   -2.6793014   -7.4073950  
C    3.1854957   -2.9361432   -5.1618532  
H    1.9512877   -2.9247062   -2.4197613  
H    6.2934524   -5.4684259   -4.7238079  
H    3.3552032   -4.5450361   -0.8249780  
H    5.2431290   -5.5471171   -2.1342801  
C    2.0552331   -2.0117600   -5.3319182  
C    1.1441930   -1.6301402   -4.4067419  
C    0.2595430   -0.7123102   -5.1078000  
C    0.7977765   -0.6538175   -6.4838332  
N    1.8503505   -1.4135520   -6.6212381  
C    0.1930648    0.1584612   -7.5034472  
C   -0.8998972    0.8792300   -7.1639455  
O   -1.5649246    1.6797247   -8.0142327  
C   -1.4671321    0.8410357   -5.7837477  
O   -2.4638599    1.5229391   -5.5455002  
C   -0.8287665    0.0000939   -4.7555305  
H    1.0803195   -1.9340247   -3.3758927  
H    0.6076492    0.1823324   -8.5006729  
H   -2.2915643    2.0548234   -7.4846588  
C    1.0672569   -0.0000698   -0.8321910  
C    0.0000000    0.0000000    0.0000000  
C   -1.1601223   -0.0000736   -0.8778472  
C   -0.5938729   -0.0000768   -2.2438435  
N    0.7113367   -0.0001553   -2.2234123  
C   -1.4286985   -0.0001877   -3.4135239  
C   -2.7683113   -0.0006798   -3.2270524  
O   -3.6653902   -0.0008302   -4.2276970  
C   -3.3702024   -0.0010610   -1.8610774  
O   -4.5974910   -0.0013779   -1.7662963  
C   -2.4926825   -0.0008943   -0.6770658  
H   -4.5324245   -0.0012258   -3.7833954  
H   -2.9677772   -0.0012974    0.2947961  
H    2.1134391   -0.0000547   -0.5705119  
C    2.4951002    2.0940188    2.9809380  
C    1.9440701    1.6314916    1.8291961  
C    0.8759964    0.7350050    2.2038498  
C    0.8497377    0.7130254    3.6788474  
N    1.8560616    1.5571714    4.0882609  
C   -0.0205033   -0.0168748    4.4215661  
C   -0.9962600   -0.8356168    3.7214979  
O   -1.8224391   -1.5286685    4.3006425  
C   -0.9864710   -0.8277881    2.1595606  
O   -1.8030528   -1.5133726    1.5592035  
C    0.0000000    0.0000000    1.4700000  
H    2.2509283    1.8888011    0.8310761  
H   -0.0229599   -0.0187323    5.5027230  
H    3.3143982    2.7817323    3.1139444  
H    2.0889452    1.7545833    5.0442112  
