58

C   -8.0477622   -0.6911209   -2.7818669  
C   -8.3659938    0.1202646   -1.7404943  
C   -9.7981778    0.0471004   -1.5721749  
C  -10.2917739   -0.8800903   -2.6082593  
N   -9.1811896   -1.2921254   -3.3080572  
C  -11.5951290   -1.2162260   -2.7814208  
C  -12.5773519   -0.6252079   -1.8878486  
O  -13.7753919   -0.8647292   -1.9628762  
C  -12.0770686    0.3596035   -0.7834627  
O  -12.8948106    0.8636246   -0.0254892  
C  -10.6470096    0.6441850   -0.6951829  
H   -7.6762022    0.7036127   -1.1569666  
H  -11.9361450   -1.8985208   -3.5476397  
H  -10.3087562    1.3269605    0.0723626  
H   -9.1920933   -1.9325219   -4.0805996  
C   -3.9834218    0.7255593   -1.7966834  
C   -5.3237519    0.5085135   -1.8186564  
C   -5.5825292   -0.4184187   -2.8950700  
C   -4.2737049   -0.7258308   -3.5027434  
N   -3.3460097   -0.0004262   -2.7913647  
C   -4.0918501   -1.5661180   -4.5527674  
C   -5.2633971   -2.2105920   -5.1225626  
O   -5.2038133   -2.9838537   -6.0695664  
C   -6.6595196   -1.8994069   -4.4950181  
O   -7.6531000   -2.4358562   -4.9664841  
C   -6.7288178   -0.9765509   -3.3648030  
H   -6.0484725    0.9477752   -1.1565069  
H   -3.1230856   -1.7780505   -4.9834537  
H   -3.4077091    1.3549554   -1.1376649  
C    0.0000000    0.0000000    0.0000000  
C    1.0662919   -0.0000103   -0.8334272  
C    0.4961868    0.0000066   -2.1718889  
C   -0.9663860   -0.0000849   -1.9540248  
N   -1.2632775   -0.0000084   -0.6828659  
C   -1.8985364   -0.0000515   -3.0477258  
C   -1.3925778    0.0004567   -4.3020543  
O   -2.1456385    0.0005412   -5.4151314  
C    0.0786229    0.0009326   -4.5544999  
O    0.4683756    0.0012594   -5.7221104  
C    1.0143162    0.0008443   -3.4159034  
H    2.1107195    0.0000631   -0.5721869  
H   -1.5042277    0.0009692   -6.1484420  
H    2.0724151    0.0013151   -3.6409746  
C    0.0000000    0.0000000    1.4700000  
C    1.0541688    0.0001722    2.3260392  
C    0.5103138    0.0000454    3.6635956  
C   -0.9576371   -0.0002459    3.5155732  
N   -1.2018458    0.0001392    2.1615969  
C   -1.8348311   -0.0008317    4.5510609  
C   -1.2972847   -0.0009736    5.9014604  
O   -2.0050672   -0.0014265    6.9001319  
C    0.2542623   -0.0004184    6.0817573  
O    0.7184670   -0.0002256    7.2139121  
C    1.0974552   -0.0000873    4.8889129  
H    2.0940752    0.0005483    2.0517982  
H   -2.9081052   -0.0011668    4.4207061  
H    2.1707277    0.0000911    5.0223670  
H   -2.1128194   -0.0014912    1.7406791  
