58

C    1.5273206   -1.0743985   -7.2944628  
C    2.4889694   -1.9479457   -6.8992133  
C    3.3053794   -2.2274422   -8.0568795  
C    2.7364748   -1.4394493   -9.1669277  
N    1.6609108   -0.7631138   -8.6390797  
C    3.2258944   -1.4295328  -10.4326585  
C    4.3905718   -2.2498656  -10.7209575  
O    4.9058256   -2.3088440  -11.8297107  
C    5.0093158   -3.0927075   -9.5605362  
O    5.9898179   -3.7874042   -9.7913496  
C    4.3933153   -3.0210095   -8.2379426  
H    2.6122214   -2.3507088   -5.9096663  
H    2.7936944   -0.8442256  -11.2323639  
H    4.8278946   -3.6074676   -7.4398627  
H    1.0659836   -0.1379469   -9.1512079  
C    0.2055739   -0.7043959   -5.1603477  
C   -0.8712826    0.0001710   -4.7267111  
C   -1.3726447    0.7423359   -5.8592582  
C   -0.4933186    0.4099884   -6.9964127  
N    0.4429027   -0.4710985   -6.5064483  
C   -0.6357679    0.9095507   -8.2501475  
C   -1.7278970    1.8365866   -8.4958968  
O   -1.9397499    2.3410845   -9.5908403  
C   -2.6713157    2.2028687   -7.3061049  
O   -3.5940526    2.9825347   -7.5008825  
C   -2.4172090    1.5997595   -6.0001412  
H    0.0202133    0.6527126   -9.0702891  
H   -3.0751241    1.8584032   -5.1816215  
H    0.8458870   -1.3742663   -4.6097463  
C    1.0965514    0.0001359   -0.8010305  
C    0.0000000    0.0000000    0.0000000  
C   -1.1546563    0.0001470   -0.8669513  
C   -0.6372014    0.0003519   -2.2486282  
N    0.7342871    0.0007337   -2.1395014  
C   -1.4147739    0.0001352   -3.3608717  
C   -2.8576049   -0.0001048   -3.1854462  
O   -3.6427779   -0.0002494   -4.1244907  
C   -3.4275840   -0.0000725   -1.7311666  
O   -4.6406831    0.0000333   -1.5710060  
C   -2.4891867   -0.0001091   -0.6116744  
H   -2.8919122   -0.0002918    0.3920866  
H    2.1388272    0.0000663   -0.5261648  
H    1.3735872   -0.0006099   -2.9130262  
C    2.5128556    2.1077716    2.9199648  
C    1.9592212    1.6432552    4.0696553  
C    0.8915788    0.7479214    3.6910360  
C    0.8684491    0.7287414    2.2159470  
N    1.8754542    1.5738793    1.8102719  
C    0.0000000    0.0000000    1.4700000  
C   -0.9772830   -0.8200135    2.1664417  
O   -1.8021297   -1.5120829    1.5842315  
C   -0.9711318   -0.8147624    3.7284083  
O   -1.7894187   -1.5009653    4.3257297  
C    0.0140216    0.0115358    4.4216297  
H    2.2638494    1.8988021    5.0689105  
H    0.0117648    0.0094386    5.5031631  
H    3.3327358    2.7953732    2.7900019  
H    2.1123206    1.7707734    0.8551938  
