58

C    5.8009416   -1.0748218   -6.3406657  
C    6.7453476   -1.9482424   -5.9055696  
C    7.6093072   -2.2278309   -7.0281744  
C    7.0870944   -1.4400298   -8.1610697  
N    5.9904221   -0.7637061   -7.6785908  
C    7.6288299   -1.4302445   -9.4053100  
C    8.8045671   -2.2505267   -9.6447160  
O    9.3655779   -2.3096136  -10.7310282  
C    9.3744802   -3.0931663   -8.4594053  
O   10.3637976   -3.7878187   -8.6490672  
C    8.7038989   -3.0213391   -7.1636381  
H    6.8272880   -2.3508641   -4.9116914  
H    7.2302865   -0.8450772  -10.2224099  
H    9.1048874   -3.6076575   -6.3480630  
H    5.4173071   -0.1386531   -8.2151492  
C    4.3913908   -0.7046356   -4.2635301  
C    3.2973506   -0.0000934   -3.8752374  
C    2.8435631    0.7418821   -5.0277932  
C    3.7695328    0.4094502   -6.1272744  
N    4.6845873   -0.4714996   -5.5986041  
C    3.6794133    0.9088342   -7.3859241  
C    2.5984069    1.8357540   -7.6770941  
O    2.4323272    2.3400895   -8.7799830  
C    1.6062045    2.2021224   -6.5276965  
O    0.6923299    2.9816918   -6.7608606  
C    1.8057156    1.5992068   -5.2121965  
H    4.3690173    0.6519371   -8.1779845  
H    1.1142469    1.8579095   -4.4218374  
H    5.0082524   -1.3743835   -3.6866344  
C    3.3321174    0.0004714   -1.3379332  
C    2.6974186    0.0000115   -2.5332308  
C    1.2800441   -0.0002119   -2.2052838  
C    1.2395035    0.0000643   -0.7271293  
N    2.4394063    0.0005458   -0.2131034  
C    0.0000000    0.0000000    0.0000000  
C   -1.1468701    0.0000634   -0.7169542  
O   -2.3742201    0.0000072   -0.1695492  
C   -1.1388767    0.0001606   -2.2096354  
O   -2.2206229    0.0000903   -2.7970413  
C    0.1454526    0.0001815   -2.9324239  
H   -2.9844344    0.0001023   -0.9290168  
H    0.1083580    0.0003680   -4.0135594  
H    4.3940040    0.0007617   -1.1498630  
C    2.5528530    2.1414826    2.8079335  
C    2.0663498    1.7338582    4.0032312  
C    0.9804344    0.8229586    3.6752840  
C    0.9495562    0.7966882    2.1971295  
N    1.8690446    1.5676019    1.6831036  
C    0.0000000    0.0000000    1.4700000  
C   -0.8785127   -0.7372425    2.1869543  
O   -1.8187535   -1.5261249    1.6395491  
C   -0.8723269   -0.7321790    3.6796354  
O   -1.7010379   -1.4274584    4.2670412  
C    0.1115397    0.0933559    4.4024240  
H    2.4028853    2.0163452    4.9860947  
H   -2.2861435   -1.9184361    2.3990168  
H    0.0832434    0.0693689    5.4835595  
H    3.3664920    2.8238276    2.6198634  
