58

C   -7.0246461    3.3931982    0.8236420  
C   -8.2455119    3.4222579    1.4175439  
C   -8.7774568    2.0815104    1.3522374  
C   -7.7591088    1.2630861    0.6667158  
N   -6.7218118    2.1175760    0.3721797  
C   -7.8843410   -0.0635533    0.4097159  
C   -9.1035605   -0.7297544    0.8365835  
O   -9.3111632   -1.9217592    0.6513070  
C  -10.1955766    0.1175612    1.5641566  
O  -11.2263796   -0.4323440    1.9278988  
C   -9.9461361    1.5398896    1.7846413  
H   -8.7194343    4.2845541    1.8516589  
H   -7.1252857   -0.6454698   -0.0943854  
H  -10.7071474    2.1194625    2.2892995  
H   -6.3207703    4.1963914    0.6775990  
C   -4.2186866    2.1401319   -0.0437262  
C   -5.4804250    1.7323141   -0.3144295  
C   -5.3466897    0.8217461   -1.4411419  
C   -3.8965662    0.7958597   -1.7293373  
N   -3.2302259    1.5666944   -0.9133753  
C   -3.3460097   -0.0004262   -2.7913647  
C   -4.2050297   -0.7376508   -3.5315800  
O   -3.8298204   -1.5261789   -4.5530898  
C   -5.6737587   -0.7329691   -3.2651710  
O   -6.3965398   -1.4282086   -3.9789291  
C   -6.2140638    0.0921568   -2.1701081  
H   -4.6590777   -1.9185767   -4.8809755  
H   -7.2835616    0.0679006   -2.0094323  
H   -3.8917478    2.8223391    0.7248296  
C    0.0000000    0.0000000    0.0000000  
C    1.0662919   -0.0000103   -0.8334272  
C    0.4961868    0.0000066   -2.1718889  
C   -0.9663860   -0.0000849   -1.9540248  
N   -1.2632775   -0.0000084   -0.6828659  
C   -1.8985364   -0.0000515   -3.0477258  
C   -1.3925778    0.0004567   -4.3020543  
O   -2.1456385    0.0005412   -5.4151314  
C    0.0786229    0.0009326   -4.5544999  
O    0.4683756    0.0012594   -5.7221104  
C    1.0143162    0.0008443   -3.4159034  
H    2.1107195    0.0000631   -0.5721869  
H   -1.5042277    0.0009692   -6.1484420  
H    2.0724151    0.0013151   -3.6409746  
C    3.2798086   -0.0005857    2.9199648  
C    2.5571146   -0.0005566    4.0696553  
C    1.1637436   -0.0001548    3.6910360  
C    1.1336965    0.0000200    2.2159470  
N    2.4483514    0.0001428    1.8102719  
C    0.0000000    0.0000000    1.4700000  
C   -1.2757367    0.0000186    2.1664417  
O   -2.3524596    0.0000640    1.5842315  
C   -1.2676493    0.0000873    3.7284083  
O   -2.3355761    0.0004100    4.3257297  
C    0.0181563   -0.0001760    4.4216297  
H    2.9547357   -0.0006076    5.0689105  
H    0.0150794   -0.0003319    5.5031631  
H    4.3498549   -0.0008612    2.7900019  
H    2.7563627   -0.0012824    0.8551938  
