58

C   -0.0307349   -0.0004645   -4.4215602  
C    1.0209944   -0.0006522   -5.2805950  
C    0.4733365   -0.0007743   -6.6165989  
C   -0.9941876   -0.0006123   -6.4644010  
N   -1.2345433   -0.0008269   -5.1097353  
C   -1.8743237   -0.0002661   -7.4973889  
C   -1.3406212   -0.0002641   -8.8493122  
O   -2.0512420   -0.0000281   -9.8459661  
C    0.2104067   -0.0006861   -9.0340219  
O    0.6713888   -0.0009948  -10.1674926  
C    1.0569896   -0.0007584   -7.8435814  
H    2.0616766   -0.0008820   -5.0093136  
H   -2.9472226   -0.0000223   -7.3639811  
H   -2.1443161    0.0007708   -4.6862279  
C    3.2573673   -0.0002919   -1.5109376  
C    2.5379466   -0.0001709   -0.3591957  
C    1.1435043    0.0000333   -0.7338496  
C    1.1092610   -0.0000081   -2.2088474  
N    2.4227563    0.0001910   -2.6182605  
C   -0.0265530   -0.0002522   -2.9515662  
C   -1.3003033   -0.0002639   -2.2514978  
O   -2.3786785   -0.0004131   -2.8306426  
C   -1.2877724    0.0000312   -0.6895606  
O   -2.3539955    0.0003307   -0.0892032  
C    0.0000000    0.0000000    0.0000000  
H    2.9384091   -0.0000367    0.6389241  
H    4.3270393   -0.0004764   -1.6439444  
H    2.7280496   -0.0013406   -3.5742111  
C    4.3288306   -2.0951105   -5.7447310  
C    3.1167905   -1.6324698   -6.1459746  
C    3.3537165   -0.7359742   -7.2527697  
C    4.8136058   -0.7141130   -7.4649856  
N    5.3466879   -1.5583292   -6.5184063  
C    5.4406090    0.0157593   -8.4219906  
C    4.6230540    0.8345940   -9.3015625  
O    5.0933492    1.5276294  -10.1942136  
C    3.0748425    0.8268914   -9.0947118  
O    2.3762792    1.5125546   -9.8289706  
C    2.5152338   -0.0008774   -8.0291182  
H    2.1653610   -1.8897099   -5.7155987  
H    6.5128106    0.0175293   -8.5608860  
H    4.5641232   -2.7828652   -4.9487904  
H    6.3243696   -1.7558272   -6.4080456  
C    2.5528530    2.1414826    2.8079335  
C    2.0663498    1.7338582    4.0032312  
C    0.9804344    0.8229586    3.6752840  
C    0.9495562    0.7966882    2.1971295  
N    1.8690446    1.5676019    1.6831036  
C    0.0000000    0.0000000    1.4700000  
C   -0.8785127   -0.7372425    2.1869543  
O   -1.8187535   -1.5261249    1.6395491  
C   -0.8723269   -0.7321790    3.6796354  
O   -1.7010379   -1.4274584    4.2670412  
C    0.1115397    0.0933559    4.4024240  
H    2.4028853    2.0163452    4.9860947  
H   -2.2861435   -1.9184361    2.3990168  
H    0.0832434    0.0693689    5.4835595  
H    3.3664920    2.8238276    2.6198634  
