62

C    2.8328491   -0.6823044   -3.3633882  
C    1.6628815    0.0345983   -3.2649297  
C    1.5242912    0.7738313   -4.4769226  
C    2.6492360    0.4649617   -5.2837838  
N    3.4245380   -0.4204016   -4.5769204  
C    2.8431021    1.0161408   -6.5539830  
C    1.8837143    1.8949006   -7.0182411  
O    2.0233097    2.4618221   -8.2519853  
C    0.7545198    2.2158484   -6.2278435  
O   -0.1103054    3.1064221   -6.8297560  
C    0.5627562    1.6726824   -4.9745582  
H    3.6983950    0.7849126   -7.1738300  
H    1.2554401    3.0343597   -8.3778525  
H   -0.8448250    3.2695318   -6.2301888  
H   -0.3119894    1.9375279   -4.3921880  
H    3.2928057   -1.3586318   -2.6634023  
C    1.1243370    0.0104708   -0.7919001  
C    0.7473984    0.0237727   -2.1148544  
C   -0.6787472    0.0231603   -2.1414704  
C   -1.1201781    0.0093826   -0.7935552  
N    0.0000000    0.0000000    0.0000000  
C   -2.4730837    0.0053186   -0.4408252  
C   -3.3972020    0.0156525   -1.4675073  
O   -4.7313574    0.0126130   -1.1793487  
C   -2.9763764    0.0290844   -2.8186338  
O   -4.0166627    0.0378030   -3.7247643  
C   -1.6418692    0.0328277   -3.1673487  
H   -2.8160145   -0.0053094    0.5845953  
H   -5.1938903    0.0208767   -2.0274402  
H   -3.6464859    0.0466784   -4.6127360  
H   -1.3497638    0.0430128   -4.2109241  
H    2.1062445    0.0061782   -0.3505403  
C    4.6829000   -1.0144005   -5.0508309  
C    5.5011728   -1.8989631   -4.4246894  
C    6.6020794   -2.1615193   -5.3212971  
C    6.3563628   -1.3515811   -6.5297733  
N    5.1773016   -0.6800034   -6.3024238  
C    7.1718664   -1.3214419   -7.6140928  
C    8.3715514   -2.1416107   -7.5893400  
O    9.1692238   -2.1832401   -8.5168577  
C    8.6515473   -3.0074959   -6.3198321  
O    9.6582848   -3.7022635   -6.2876234  
C    7.6987116   -2.9564873   -5.2137786  
H    5.3506316   -2.3196699   -3.4464475  
H    6.9733330   -0.7202311   -8.4904715  
H    7.8999781   -3.5588309   -4.3383369  
H    4.7438724   -0.0433098   -6.9457027  
C    0.8175213    0.6860729    2.3021913  
C    0.0000000    0.0000000    1.4700000  
C   -0.8887526   -0.7456559    2.3478473  
C   -0.4549825   -0.3816753    3.7138435  
N    0.5448156    0.4573574    3.6934124  
C   -1.0945674   -0.9182058    4.8835240  
C   -2.1210866   -1.7789155    4.6970523  
O   -2.8083856   -2.3554314    5.6976972  
C   -2.5824069   -2.1655116    3.3310774  
O   -3.5227682   -2.9541547    3.2362962  
C   -1.9100805   -1.6015804    2.1470656  
H   -0.7567140   -0.6349833    5.8697035  
H   -3.4728268   -2.9124471    5.2533954  
H   -2.2742832   -1.9066565    1.1752040  
H    1.6189533    1.3585343    2.0405121  
