58

C   -1.1252703    0.5589541   -9.0959919  
C   -0.1470814   -0.2742576   -9.5352855  
C   -0.2048195   -0.2675165  -10.9780125  
C   -1.3046970    0.6444835  -11.3458649  
N   -1.8218545    1.1120338  -10.1597645  
C   -1.6793707    0.9224681  -12.6202464  
C   -0.9508733    0.2804182  -13.7017267  
O   -1.2122154    0.4658944  -14.8830814  
C    0.2174698   -0.6893783  -13.3352919  
O    0.8378303   -1.2359839  -14.2373107  
C    0.5281637   -0.9094400  -11.9250108  
H    0.5367486   -0.8302922   -8.9189949  
H   -2.4890126    1.5946223  -12.8684365  
H    1.3386836   -1.5822103  -11.6797325  
H   -2.5861323    1.7573696  -10.0793325  
C    0.5157024   -0.7055390   -5.2240921  
C   -0.2963293   -0.0005341   -4.3948471  
C   -1.2098550    0.7417636   -5.2310892  
C   -0.8609892    0.4090165   -6.6254931  
N    0.1928754   -0.4724049   -6.5523137  
C   -1.4945014    0.9085670   -7.7167386  
C   -2.5931301    1.8360107   -7.5036702  
O   -3.2264749    2.3405318   -8.4216212  
C   -2.9795611    2.2027194   -6.0353377  
O   -3.9026310    2.9827307   -5.8435417  
C   -2.2228514    1.5995819   -4.9410487  
H   -2.4968363    1.8585227   -3.9273399  
H    1.3229471   -1.3756270   -4.9766497  
H    0.6548727   -0.8845706   -7.3420756  
C    3.1301146   -0.0010313   -1.7028256  
C    2.5367765   -0.0002766   -0.4864669  
C    1.1089901    0.0001027   -0.7656184  
C    1.0177865   -0.0004150   -2.2415133  
N    2.1993571   -0.0011612   -2.7963824  
C   -0.2459219   -0.0002879   -2.9257116  
C   -1.3675326   -0.0000606   -2.1698520  
O   -2.6129318    0.0000865   -2.6748483  
C   -1.3083588    0.0000910   -0.6783229  
O   -2.3693264    0.0004206   -0.0541685  
C    0.0000000    0.0000000    0.0000000  
H    3.0096016   -0.0001007    0.4807518  
H   -3.1967444    0.0002093   -1.8949026  
H    4.1849275   -0.0015114   -1.9271979  
C    0.8681109    0.7263879    2.2709268  
C    0.6127770    0.5096195    3.5869401  
C   -0.4920590   -0.4175482    3.6542670  
C   -0.8620974   -0.7254003    2.2596025  
N    0.0000000    0.0000000    1.4700000  
C   -1.8641242   -1.5660088    1.8976294  
C   -2.6293522   -2.2103885    2.9520183  
O   -3.5512764   -2.9839180    2.7283916  
C   -2.2549728   -1.8987399    4.4361073  
O   -2.8923672   -2.4351063    5.3323774  
C   -1.1543735   -0.9755647    4.7012123  
H    1.1382914    0.9492124    4.4159191  
H   -2.1192137   -1.7782617    0.8686553  
H   -0.9013378   -0.7652422    5.7314848  
H    1.6172880    1.3558399    1.8188057  
