58

C    3.2798082    0.0005862   -1.4499650  
C    2.5571139    0.0005570   -2.5996554  
C    1.1637431    0.0001552   -2.2210361  
C    1.1336960   -0.0000198   -0.7459469  
N    2.4483511   -0.0001427   -0.3402720  
C    0.0000000    0.0000000    0.0000000  
C   -1.2757371   -0.0000185   -0.6964412  
O   -2.3524599   -0.0000640   -0.1142311  
C   -1.2676497   -0.0000868   -2.2584076  
O   -2.3355765   -0.0004097   -2.8557291  
C    0.0181554    0.0001764   -2.9516295  
H    0.0150782    0.0003325   -4.0331629  
H    4.3498545    0.0008616   -1.3200025  
H    2.7563624    0.0012824    0.6148065  
C    4.2042264   -0.7245765   -4.3883883  
C    4.4532742   -0.5080826   -5.7056510  
C    3.4504640    0.4176292   -6.1771001  
C    2.5906250    0.7249267   -5.0182058  
N    3.1006049    0.0006270   -3.9654950  
C    1.5247255    1.5641946   -5.0527251  
C    1.2027489    2.2076140   -6.3156099  
O    0.2625092    2.9799153   -6.4490272  
C    2.0996878    1.8965305   -7.5559858  
O    1.8381619    2.4320976   -8.6246447  
C    3.2214644    0.9748211   -7.3949816  
H    0.9070130    1.7760617   -4.1910679  
H    3.8377462    0.7648819   -8.2586052  
H    4.7339420   -1.3530606   -3.6910372  
C    6.1436379   -4.5608725   -5.7357458  
C    7.0972535   -4.3995304   -6.6889829  
C    7.0163997   -3.0295162   -7.1377140  
C    5.9297381   -2.4014142   -6.3621851  
N    5.4415161   -3.3828503   -5.5307333  
C    5.5403572   -1.1079407   -6.4926200  
C    6.2379423   -0.2791482   -7.4616469  
O    5.9614506    0.8977863   -7.6531603  
C    7.3918334   -0.9236093   -8.2941197  
O    7.9861783   -0.2357505   -9.1131838  
C    7.7206418   -2.3281960   -8.0641761  
H    7.7793445   -5.1541762   -7.0380863  
H    8.5209920   -2.7668076   -8.6445067  
H    5.8945760   -5.4413065   -5.1659265  
H    4.6920821   -3.2614500   -4.8744880  
C    2.5128556    2.1077716    2.9199648  
C    1.9592212    1.6432552    4.0696553  
C    0.8915788    0.7479214    3.6910360  
C    0.8684491    0.7287414    2.2159470  
N    1.8754542    1.5738793    1.8102719  
C    0.0000000    0.0000000    1.4700000  
C   -0.9772830   -0.8200135    2.1664417  
O   -1.8021297   -1.5120829    1.5842315  
C   -0.9711318   -0.8147624    3.7284083  
O   -1.7894187   -1.5009653    4.3257297  
C    0.0140216    0.0115358    4.4216297  
H    2.2638494    1.8988021    5.0689105  
H    0.0117648    0.0094386    5.5031631  
H    3.3327358    2.7953732    2.7900019  
H    2.1123206    1.7707734    0.8551938  
