62

C    3.3003558    0.0005277   -1.4738965  
C    2.5232833    0.0003499   -2.6090730  
C    1.1623222   -0.0001318   -2.1820092  
C    1.1711891    0.0000584   -0.7636132  
N    2.4852306   -0.0014919   -0.3662342  
C    0.0000000    0.0000000    0.0000000  
C   -1.2020379    0.0000521   -0.6806485  
O   -2.3759245    0.0003495    0.0157732  
C   -1.2314636   -0.0005111   -2.0955515  
O   -2.5054372   -0.0008035   -2.6250194  
C   -0.0764493   -0.0007270   -2.8495195  
H    2.8919983   -0.0005617   -3.6205280  
H    2.8036262    0.0088181    0.5858683  
H   -3.0835632    0.0000348   -0.6418837  
H   -2.4360019   -0.0011525   -3.5845935  
H   -0.1304067   -0.0013419   -3.9319088  
C    6.5582239    0.0029729   -4.4647435  
C    7.6103908    0.0023861   -3.5785091  
C    7.0499451    0.0016139   -2.2668308  
C    5.6394797    0.0014822   -2.4168767  
N    5.3749078    0.0042717   -3.7639519  
C    4.7630518    0.0004756   -1.3275370  
C    5.3206374   -0.0007212   -0.0637039  
O    4.5107978   -0.0020884    1.0350105  
C    6.7255798   -0.0002355    0.1064516  
O    7.1255739   -0.0011496    1.4268105  
C    7.5908002    0.0010306   -0.9677543  
H    8.6535308    0.0036057   -3.8446851  
H    4.4592377   -0.0057078   -4.1755712  
H    5.0947313   -0.0024569    1.8046121  
H    8.0872931   -0.0007698    1.4532610  
H    6.5582248    0.0040135   -5.5412935  
C   11.0841484    2.0172262   -2.8640437  
C    9.8139483    1.6343138   -2.5965559  
C    9.9276193    0.7155440   -1.4743080  
C   11.3766190    0.6579781   -1.1850501  
N   12.0596199    1.4190224   -1.9964134  
C   11.9094546   -0.1548366   -0.1265112  
C   11.0344764   -0.8770041    0.6098457  
O   11.3921943   -1.6781413    1.6278130  
C    9.5663381   -0.8397729    0.3427396  
O    8.8285029   -1.5229378    1.0527434  
C    9.0443948    0.0017445   -0.7487495  
H    8.9113223    1.9379175   -3.0987178  
H   12.9727765   -0.1780062    0.0624887  
H   10.5545591   -2.0542297    1.9535097  
H   11.4259486    2.6963523   -3.6288531  
C    2.4951002    2.0940188    2.9809380  
C    1.9440701    1.6314916    1.8291961  
C    0.8759964    0.7350050    2.2038498  
C    0.8497377    0.7130254    3.6788474  
N    1.8560616    1.5571714    4.0882609  
C   -0.0205033   -0.0168748    4.4215661  
C   -0.9962600   -0.8356168    3.7214979  
O   -1.8224391   -1.5286685    4.3006425  
C   -0.9864710   -0.8277881    2.1595606  
O   -1.8030528   -1.5133726    1.5592035  
C    0.0000000    0.0000000    1.4700000  
H    2.2509283    1.8888011    0.8310761  
H   -0.0229599   -0.0187323    5.5027230  
H    3.3143982    2.7817323    3.1139444  
H    2.0889452    1.7545833    5.0442112  
