58

C    1.0965519    0.0001359   -0.8010306  
C    0.0000000    0.0000000    0.0000000  
C   -1.1546563    0.0001470   -0.8669511  
C   -0.6372013    0.0003523   -2.2486282  
N    0.7342872    0.0007341   -2.1395009  
C   -1.4147734    0.0001358   -3.3608715  
C   -2.8576047   -0.0001043   -3.1854462  
O   -3.6427777   -0.0002487   -4.1244906  
C   -3.4275841   -0.0000724   -1.7311667  
O   -4.6406823    0.0000333   -1.5710060  
C   -2.4891864   -0.0001091   -0.6116749  
H   -1.0150445    0.0001622   -4.3654245  
H   -2.8919117   -0.0002919    0.3920858  
H    2.1388270    0.0000662   -0.5261642  
C    4.6035261   -2.0133271   -3.0543719  
C    3.4786152   -1.6302938   -2.4067307  
C    2.8134675   -0.7139707   -3.3202022  
C    3.6995837   -0.6578057   -4.5026686  
N    4.7504690   -1.4174964   -4.3526668  
C    3.3892458    0.1524703   -5.6481948  
C    2.2454698    0.8735475   -5.6141508  
O    1.8317922    1.6723273   -6.6125811  
C    1.3302972    0.8376807   -4.4354510  
O    0.3062889    1.5197371   -4.4732203  
C    1.6707645   -0.0012339   -3.2725972  
H    3.1417505   -1.9323407   -1.4298139  
H    0.9902138    2.0481781   -6.2969307  
H    5.3691409   -2.6910132   -2.7115176  
C    5.7157084   -2.9927828   -7.6954822  
C    4.8978394   -2.3082492   -6.8548996  
C    4.9194162   -0.9278767   -7.2779142  
C    5.8233562   -0.8638755   -8.4422107  
N    6.2731906   -2.1483893   -8.6436131  
C    6.1102999    0.2693949   -9.1314612  
C    5.4874368    1.5088469   -8.6974862  
O    5.6822635    2.5822328   -9.2526308  
C    4.5268452    1.4644772   -7.4665920  
O    3.9968570    2.5017496   -7.0918382  
C    4.2952826    0.1826680   -6.8053838  
H    4.3429154   -2.7229311   -6.0322747  
H    6.7760902    0.2946052   -9.9829300  
H    5.9582505   -4.0430311   -7.7019479  
H    6.9070751   -2.4295394   -9.3690048  
C    0.8400945    0.7047457    2.2710304  
C    0.0000000    0.0000000    1.4700000  
C   -0.8844236   -0.7423113    2.3369512  
C   -0.4878984   -0.4098547    3.7186280  
N    0.5629682    0.4714286    3.6095011  
C   -1.0836927   -0.9095027    4.8308716  
C   -2.1891196   -1.8367527    4.6554461  
O   -2.7906899   -2.3413415    5.5944904  
C   -2.6257283   -2.2031529    3.2011665  
O   -3.5549479   -2.9829990    3.0410059  
C   -1.9068976   -1.5999348    2.0816745  
H   -0.7774656   -0.6525820    5.8354244  
H   -2.2155208   -1.8586617    1.0779135  
H    1.6384792    1.3747609    1.9961646  
H    1.0518368    0.8833920    4.3830260  
