58

C   -0.9804205    0.5657140   -0.8009271  
C   -0.6915150    0.3962509   -2.1169404  
C    0.5567221   -0.3263881   -2.1842674  
C    0.9743268   -0.5657785   -0.7896026  
N    0.0000000    0.0000000    0.0000000  
C    2.1063612   -1.2208945   -0.4276293  
C    2.9712926   -1.7235812   -1.4820183  
O    4.0128524   -2.3264447   -1.2583917  
C    2.5487572   -1.4812000   -2.9661070  
O    3.2691357   -1.8995491   -3.8623773  
C    1.3053821   -0.7617630   -3.2312125  
H    2.3942461   -1.3859521    0.6013445  
H    1.0198532   -0.5982522   -4.2614851  
H   -1.8269655    1.0564661   -0.3488062  
C   -3.0369836    4.0731047   -3.0356157  
C   -2.2534970    3.1801584   -2.3872521  
C   -2.1362526    2.0525553   -3.2989892  
C   -2.9329369    2.4448686   -4.4813459  
N   -3.4632913    3.6283558   -4.3327800  
C   -3.0702191    1.5860756   -5.6253366  
C   -2.4399348    0.3899058   -5.5899299  
O   -2.4818256   -0.5103401   -6.5868471  
C   -1.6282325   -0.0345178   -4.4113014  
O   -1.0822475   -1.1371466   -4.4477816  
C   -1.5027158    0.8641672   -3.2500368  
H   -1.8098351    3.2749997   -1.4109095  
H   -3.6587898    1.8982437   -6.4756574  
H   -1.9404672   -1.2559946   -6.2704871  
C   -2.4248818    6.5077475    0.6470856  
C   -2.3565712    5.4927925   -0.2455397  
C   -3.1545179    5.9354536   -1.3786029  
C   -3.6432165    7.2757007   -0.9893804  
N   -3.2186900    7.6165732    0.1970314  
C   -4.4806578    8.0608396   -1.8538662  
C   -4.8143888    7.5313127   -3.0528486  
O   -5.5888410    8.1527665   -3.9584199  
C   -4.3367057    6.1814517   -3.4745781  
O   -4.6797835    5.7622296   -4.5799155  
C   -3.4787388    5.3955895   -2.5700132  
H   -1.8296866    4.5590845   -0.1472647  
H   -4.8234633    9.0371506   -1.5436850  
H   -5.6464038    7.5294143   -4.7049261  
H   -1.9646184    6.5681944    1.6204702  
C    2.5128556    2.1077716    2.9199648  
C    1.9592212    1.6432552    4.0696553  
C    0.8915788    0.7479214    3.6910360  
C    0.8684491    0.7287414    2.2159470  
N    1.8754542    1.5738793    1.8102719  
C    0.0000000    0.0000000    1.4700000  
C   -0.9772830   -0.8200135    2.1664417  
O   -1.8021297   -1.5120829    1.5842315  
C   -0.9711318   -0.8147624    3.7284083  
O   -1.7894187   -1.5009653    4.3257297  
C    0.0140216    0.0115358    4.4216297  
H    2.2638494    1.8988021    5.0689105  
H    0.0117648    0.0094386    5.5031631  
H    3.3327358    2.7953732    2.7900019  
H    2.1123206    1.7707734    0.8551938  
