62

C   -3.3032450    0.0762927   -1.5420455  
C   -2.5838346    0.0602472   -0.3695872  
C   -1.2036784    0.0278441   -0.7283601  
C   -1.1419441    0.0258114   -2.1454383  
N   -2.4342708    0.0536977   -2.6077484  
C    0.0654828   -0.0023948   -2.8497918  
C    1.2318433   -0.0287275   -2.1101392  
O    2.4386283   -0.0565249   -2.7472505  
C    1.1908027   -0.0275448   -0.6955256  
O    2.4365069   -0.0561290   -0.1032848  
C    0.0000000    0.0000000    0.0000000  
H   -3.0023490    0.0695161    0.6222561  
H   -2.7045717    0.0696736   -3.5745282  
H    0.1192914   -0.0042443   -3.9297473  
H    3.1124695   -0.0719326   -2.0551769  
H    2.3194170   -0.0532453    0.8516423  
C   -5.7168370    0.1313423   -0.7610803  
C   -6.9679918    0.1575878   -1.2883356  
C   -6.8197688    0.1522863   -2.7245937  
C   -5.3693032    0.1205442   -2.9927928  
N   -4.7564600    0.1095130   -1.7610495  
C   -4.8166901    0.1063931   -4.2321973  
C   -5.7101060    0.1237981   -5.3785132  
O   -5.3098212    0.1131587   -6.5352152  
C   -7.2498316    0.1577059   -5.1179355  
O   -8.0118428    0.1728932   -6.0752070  
C   -7.7258330    0.1701578   -3.7369503  
H   -7.8895555    0.1784804   -0.7343518  
H   -3.7500176    0.0829602   -4.4070401  
H   -5.4155779    0.1263280    0.2738628  
C   -9.8150611    0.9358687   -2.5305918  
C   -9.1768090    0.2018139   -3.5033533  
C  -10.1863935   -0.5063105   -4.2202203  
C  -11.4316750   -0.1616608   -3.6350563  
N  -11.1699623    0.7141587   -2.6108182  
C  -12.6494170   -0.6760388   -4.0903660  
C  -12.6093520   -1.5541032   -5.1559997  
O  -13.7691949   -2.0858839   -5.6407536  
C  -11.3766839   -1.9104386   -5.7529694  
O  -11.5032374   -2.7954183   -6.8037490  
C  -10.1749419   -1.4035890   -5.3041412  
H  -11.8613158    1.1392500   -2.0197955  
H  -13.6018759   -0.4174338   -3.6486104  
H  -13.5192364   -2.6645197   -6.3728513  
H  -10.6256499   -2.9838600   -7.1500633  
H   -9.2465817   -1.6950368   -5.7813035  
H   -9.4108909    1.5989333   -1.7849705  
C    2.4951002    2.0940188    2.9809380  
C    1.9440701    1.6314916    1.8291961  
C    0.8759964    0.7350050    2.2038498  
C    0.8497377    0.7130254    3.6788474  
N    1.8560616    1.5571714    4.0882609  
C   -0.0205033   -0.0168748    4.4215661  
C   -0.9962600   -0.8356168    3.7214979  
O   -1.8224391   -1.5286685    4.3006425  
C   -0.9864710   -0.8277881    2.1595606  
O   -1.8030528   -1.5133726    1.5592035  
C    0.0000000    0.0000000    1.4700000  
H    2.2509283    1.8888011    0.8310761  
H   -0.0229599   -0.0187323    5.5027230  
H    3.3143982    2.7817323    3.1139444  
H    2.0889452    1.7545833    5.0442112  
