58

C   -4.7161315    0.0019806   -1.6923275  
C   -5.6957059    0.0027954   -0.7518443  
C   -6.9559325    0.0031796   -1.4565888  
C   -6.6279059    0.0024877   -2.8950562  
N   -5.2541433    0.0021768   -2.9703270  
C   -7.5472407    0.0021949   -3.8933189  
C   -8.9536499    0.0028134   -3.5265108  
O   -9.8573540    0.0026741   -4.3521136  
C   -9.3240192    0.0038032   -2.0090688  
O  -10.5048011    0.0046365   -1.6881119  
C   -8.2443350    0.0037592   -1.0251305  
H   -5.5518779    0.0032758    0.3139539  
H   -8.5092033    0.0042424    0.0234721  
H   -4.7240348    0.0001421   -3.8224002  
C   -3.2573657    0.0012846   -1.5109392  
C   -2.5379457    0.0009443   -0.3591970  
C   -1.1435032    0.0003153   -0.7338501  
C   -1.1092595    0.0003463   -2.2088478  
N   -2.4227545    0.0005474   -2.6182617  
C    0.0265547    0.0002444   -2.9515659  
C    1.3003050   -0.0001322   -2.2514972  
O    2.3786795   -0.0003114   -2.8306412  
C    1.2877728   -0.0004235   -0.6895599  
O    2.3539962   -0.0010479   -0.0892025  
C    0.0000000    0.0000000    0.0000000  
H   -2.9384089    0.0009321    0.6389230  
H    0.0296320    0.0003996   -4.0327227  
H   -2.7280465    0.0021721   -3.5742123  
C   -7.1912937    0.0013269   -5.3195731  
C   -5.9612139    0.0004934   -5.8948797  
C   -6.1650070   -0.0000892   -7.3243216  
C   -7.6251154    0.0005065   -7.5361552  
N   -8.1899103    0.0009570   -6.2816049  
C   -8.2254715    0.0006105   -8.7532322  
C   -7.3769352   -0.0001244   -9.9332837  
O   -7.8218349   -0.0001566  -11.0736189  
C   -5.8279034   -0.0010154   -9.7325217  
O   -5.1033721   -0.0019453  -10.7185813  
C   -5.2986393   -0.0007668   -8.3710035  
H   -5.0186590    0.0001255   -5.3769957  
H   -9.2983696    0.0011812   -8.8866412  
H   -4.2249914   -0.0011827   -8.2406030  
H   -9.1756952    0.0029706   -6.0937979  
C    2.5128556    2.1077716    2.9199648  
C    1.9592212    1.6432552    4.0696553  
C    0.8915788    0.7479214    3.6910360  
C    0.8684491    0.7287414    2.2159470  
N    1.8754542    1.5738793    1.8102719  
C    0.0000000    0.0000000    1.4700000  
C   -0.9772830   -0.8200135    2.1664417  
O   -1.8021297   -1.5120829    1.5842315  
C   -0.9711318   -0.8147624    3.7284083  
O   -1.7894187   -1.5009653    4.3257297  
C    0.0140216    0.0115358    4.4216297  
H    2.2638494    1.8988021    5.0689105  
H    0.0117648    0.0094386    5.5031631  
H    3.3327358    2.7953732    2.7900019  
H    2.1123206    1.7707734    0.8551938  
