60

C    3.3003545    0.0005278   -1.4738994  
C    2.5232810    0.0003500   -2.6090750  
C    1.1623198   -0.0001317   -2.1820102  
C    1.1711882    0.0000584   -0.7636141  
N    2.4852299   -0.0014919   -0.3662360  
C    0.0000000    0.0000000    0.0000000  
C   -1.2020384    0.0000520   -0.6806479  
O   -2.3759251    0.0003495    0.0157749  
C   -1.2314659   -0.0005110   -2.0955508  
O   -2.5054390   -0.0008034   -2.6250179  
C   -0.0764518   -0.0007269   -2.8495192  
H    2.8919952   -0.0005616   -3.6205303  
H    2.8036266    0.0088181    0.5858654  
H   -3.0835638    0.0000348   -0.6418815  
H   -2.4360052   -0.0011524   -3.5845917  
H    4.3715548    0.0004896   -1.3667140  
C    2.1623910   -2.0122254   -6.1367518  
C    1.7689756   -1.6301523   -4.8994875  
C    0.6617230   -0.7136662   -5.1243082  
C    0.5180513   -0.6563659   -6.5949062  
N    1.3949574   -1.4155852   -7.1937485  
C   -0.4838563    0.1543916   -7.2304692  
C   -1.3051623    0.8748445   -6.4331366  
O   -2.2841110    1.6739683   -6.8904132  
C   -1.1854796    0.8378292   -4.9457004  
O   -1.9668285    1.5193652   -4.2822073  
C   -0.1496419   -0.0015607   -4.3176961  
H    2.1794005   -1.9329281   -3.9513552  
H   -2.6923642    2.0491960   -6.0893597  
H    2.9588345   -2.6896999   -6.4007216  
C   -0.4594575   -0.9111310   -9.5331696  
C   -0.6156762   -0.5530588  -10.8337291  
C   -0.8701576    0.8681240  -10.8514491  
C   -0.8492133    1.3118556   -9.4445181  
N   -0.5957701    0.1857209   -8.6958683  
C   -1.0479891    2.5915592   -9.0388688  
C   -1.2995541    3.5990649  -10.0558164  
O   -1.4906925    4.7788921   -9.7916658  
C   -1.3264250    3.1515432  -11.5520807  
O   -1.5375731    3.9908442  -12.4170954  
C   -1.0979284    1.7432248  -11.8655768  
H   -0.5592759   -1.2096092  -11.6836554  
H   -1.0283877    2.8960347   -8.0016509  
H   -1.1179594    1.4415747  -12.9040045  
H   -0.2564322   -1.8840571   -9.1159350  
C    2.5128556    2.1077716    2.9199648  
C    1.9592212    1.6432552    4.0696553  
C    0.8915788    0.7479214    3.6910360  
C    0.8684491    0.7287414    2.2159470  
N    1.8754542    1.5738793    1.8102719  
C    0.0000000    0.0000000    1.4700000  
C   -0.9772830   -0.8200135    2.1664417  
O   -1.8021297   -1.5120829    1.5842315  
C   -0.9711318   -0.8147624    3.7284083  
O   -1.7894187   -1.5009653    4.3257297  
C    0.0140216    0.0115358    4.4216297  
H    2.2638494    1.8988021    5.0689105  
H    0.0117648    0.0094386    5.5031631  
H    3.3327358    2.7953732    2.7900019  
H    2.1123206    1.7707734    0.8551938  
