58

C    3.8532052   -2.0864388   -4.5604396  
C    2.8104960   -1.6256094   -5.2983205  
C    3.3592936   -0.7307829   -6.2897546  
C    4.8176602   -0.7079274   -6.0674136  
N    5.0521199   -1.5500324   -5.0049741  
C    5.6960268    0.0208938   -6.8015782  
C    5.1699217    0.8374675   -7.8827615  
O    5.8796429    1.5294157   -8.6009565  
C    3.6286239    0.8286791   -8.1359968  
O    3.1740581    1.5124397   -9.0432459  
C    2.7831247    0.0022095   -7.2781316  
H    1.7750486   -1.8829987   -5.1633635  
H    6.7621715    0.0234232   -6.6220277  
H    3.8466313   -2.7726160   -3.7291710  
H    5.9552967   -1.7464333   -4.6141466  
C   -0.8712823    0.0001712   -4.7267111  
C    0.4275914    0.0003831   -5.1068516  
C    0.3927415    0.0003241   -6.5612532  
C   -1.0467458   -0.0000497   -6.8995724  
N   -1.7925759   -0.0000601   -5.8282523  
C   -1.5084807   -0.0001666   -8.2604132  
C   -0.5746200    0.0004680   -9.2387986  
O   -0.8627916    0.0004371  -10.5514290  
C    0.8856696    0.0012287   -8.9294207  
O    1.6794965    0.0016573   -9.8701967  
C    1.3340974    0.0012902   -7.5255561  
H    1.3014270    0.0006481   -4.4779741  
H   -2.5664444   -0.0006479   -8.4786409  
H    0.0042919    0.0010042  -10.9956352  
C    1.0965515    0.0001358   -0.8010304  
C    0.0000000    0.0000000    0.0000000  
C   -1.1546562    0.0001470   -0.8669514  
C   -0.6372012    0.0003520   -2.2486282  
N    0.7342873    0.0007338   -2.1395014  
C   -1.4147737    0.0001354   -3.3608717  
C   -2.8576047   -0.0001047   -3.1854463  
O   -3.6427778   -0.0002491   -4.1244908  
C   -3.4275837   -0.0000725   -1.7311667  
O   -4.6406828    0.0000333   -1.5710061  
C   -2.4891866   -0.0001090   -0.6116745  
H   -2.8919121   -0.0002919    0.3920865  
H    2.1388272    0.0000662   -0.5261647  
H    1.3735873   -0.0006098   -2.9130261  
C    0.8400945    0.7047457    2.2710304  
C    0.0000000    0.0000000    1.4700000  
C   -0.8844236   -0.7423113    2.3369512  
C   -0.4878984   -0.4098547    3.7186280  
N    0.5629682    0.4714286    3.6095011  
C   -1.0836927   -0.9095027    4.8308716  
C   -2.1891196   -1.8367527    4.6554461  
O   -2.7906899   -2.3413415    5.5944904  
C   -2.6257283   -2.2031529    3.2011665  
O   -3.5549479   -2.9829990    3.0410059  
C   -1.9068976   -1.5999348    2.0816745  
H   -0.7774656   -0.6525820    5.8354244  
H   -2.2155208   -1.8586617    1.0779135  
H    1.6384792    1.3747609    1.9961646  
H    1.0518368    0.8833920    4.3830260  
