62

C    3.3041270    0.0001177   -1.5420437  
C    2.5845371   -0.0004779   -0.3695859  
C    1.2040006   -0.0000008   -0.7283592  
C    1.1422371    0.0006037   -2.1454379  
N    2.4348635    0.0026110   -2.6077470  
C   -0.0655185    0.0008797   -2.8497920  
C   -1.2321771    0.0002323   -2.1101395  
O   -2.4392818    0.0001142   -2.7472518  
C   -1.1911212   -0.0000008   -0.6955259  
O   -2.4371526   -0.0002322   -0.1032861  
C    0.0000000    0.0000000    0.0000000  
H    3.0031537   -0.0000662    0.6222578  
H   -0.1193553    0.0014843   -3.9297472  
H   -3.1132994   -0.0000649   -2.0551782  
H   -2.3200280   -0.0004071    0.8516416  
H    4.3686620    0.0004072   -1.7024301  
C    5.6502436   -2.1159091   -4.7187994  
C    5.4250922   -1.6663850   -5.9802708  
C    4.2912961   -0.7748304   -5.9133920  
C    3.8713712   -0.7415296   -4.4994104  
N    4.7351837   -1.5757172   -3.8279580  
C    2.8310658   -0.0116218   -4.0232757  
C    2.0743455    0.7948335   -4.9664298  
O    1.1203081    1.4867880   -4.6358049  
C    2.5012797    0.7745019   -6.4688008  
O    1.8714969    1.4492152   -7.2721668  
C    3.6401540   -0.0516383   -6.8616246  
H    3.9294730   -0.0600286   -7.9037132  
H    6.4075315   -2.7965348   -4.3650292  
H    4.7066626   -1.7617127   -2.8422406  
C    7.1852527   -5.5294606   -7.3831759  
C    6.5307140   -4.5619106   -6.6566131  
C    6.6434345   -3.3433663   -7.3894456  
C    7.3833342   -3.6314704   -8.5648062  
N    7.6982795   -4.9671780   -8.5285976  
C    7.6865021   -2.6609898   -9.5245171  
C    7.2342516   -1.3763315   -9.2936489  
O    7.5018748   -0.3900999  -10.1984906  
C    6.4948237   -1.0691593   -8.1267259  
O    6.1158391    0.2546248   -8.0412251  
C    6.1956057   -2.0260019   -7.1793894  
H    6.0341472   -4.7152606   -5.7137993  
H    8.2116101   -5.4617797   -9.2355929  
H    8.2501302   -2.8741206  -10.4223480  
H    7.1019880    0.4168987   -9.8490516  
H    5.6215830    0.3773793   -7.2249868  
H    7.3279690   -6.5758593   -7.1742726  
C    0.8681109    0.7263879    2.2709268  
C    0.6127770    0.5096195    3.5869401  
C   -0.4920590   -0.4175482    3.6542670  
C   -0.8620974   -0.7254003    2.2596025  
N    0.0000000    0.0000000    1.4700000  
C   -1.8641242   -1.5660088    1.8976294  
C   -2.6293522   -2.2103885    2.9520183  
O   -3.5512764   -2.9839180    2.7283916  
C   -2.2549728   -1.8987399    4.4361073  
O   -2.8923672   -2.4351063    5.3323774  
C   -1.1543735   -0.9755647    4.7012123  
H    1.1382914    0.9492124    4.4159191  
H   -2.1192137   -1.7782617    0.8686553  
H   -0.9013378   -0.7652422    5.7314848  
H    1.6172880    1.3558399    1.8188057  
