60

C    0.0000000    0.0000000    0.0000000  
C    0.8624650    0.6026707   -0.8862345  
C    0.4034335    0.2811304   -2.1979133  
C   -0.7526801   -0.5268382   -2.0478689  
N   -0.9686613   -0.6796581   -0.7007920  
C   -1.4709353   -1.0290684   -3.1372098  
C   -1.0139476   -0.7095916   -4.4010432  
O   -1.6778303   -1.1733780   -5.4997590  
C    0.1378540    0.0949066   -4.5711968  
O    0.4658805    0.3238071   -5.8915553  
C    0.8470805    0.5904897   -3.4969894  
H    1.7179281    1.1996001   -0.6200558  
H   -1.7250493   -1.1958309   -0.2891839  
H   -2.3527528   -1.6455178   -3.0295525  
H   -1.1990481   -0.8390917   -6.2693605  
H    1.2542954    0.8745389   -5.9180043  
C    3.2099370    1.3549230   -2.9764949  
C    4.1217029    2.2557326   -3.4251592  
C    3.5108361    2.9592740   -4.5282033  
C    2.1587405    2.3904423   -4.6865015  
N    2.0389128    1.4226397   -3.7159919  
C    1.2618946    2.7888095   -5.6238786  
C    1.6545931    3.8483840   -6.5380040  
O    0.9180799    4.2769392   -7.4167463  
C    3.0818939    4.4650974   -6.3887335  
O    3.4238119    5.3575664   -7.1528364  
C    3.9594852    3.9526520   -5.3394072  
H    5.1095280    2.4096566   -3.0287713  
H    0.2750297    2.3584678   -5.7229395  
H    3.2950368    0.6471481   -2.1679759  
C    8.0439839    2.3809479   -4.4961637  
C    6.7087245    2.4330538   -4.7105168  
C    6.4204286    3.8403255   -4.9406722  
C    7.7321183    4.5131966   -4.8253575  
N    8.6876349    3.6628045   -4.5649510  
C    7.8757255    5.9335186   -4.9901304  
C    6.7597457    6.6490631   -5.2583104  
O    6.7468451    7.9811142   -5.4358319  
C    5.4216715    5.9989570   -5.3811159  
O    4.4488743    6.7121529   -5.6265508  
C    5.3003964    4.5404731   -5.2077908  
H    6.0061939    1.6172575   -4.7123262  
H    8.8464638    6.3988165   -4.9002746  
H    5.8133938    8.1990079   -5.6100251  
H    8.6497888    1.5134533   -4.2877724  
C    3.2573670    0.0002920    2.9809380  
C    2.5379467    0.0001709    1.8291961  
C    1.1435042   -0.0000331    2.2038498  
C    1.1092607    0.0000083    3.6788474  
N    2.4227561   -0.0001909    4.0882609  
C   -0.0265533    0.0002524    4.4215661  
C   -1.3003036    0.0002640    3.7214979  
O   -2.3786784    0.0004133    4.3006425  
C   -1.2877726   -0.0000311    2.1595606  
O   -2.3539958   -0.0003306    1.5592035  
C    0.0000000    0.0000000    1.4700000  
H    2.9384090    0.0000368    0.8310761  
H   -0.0296291    0.0004086    5.5027230  
H    4.3270393    0.0004765    3.1139444  
H    2.7280493    0.0013407    5.0442112  
