58

C    2.1650273   -2.1089233   -5.9297627  
C    1.5723610   -1.6445171   -7.0598728  
C    0.5184577   -0.7489611   -6.6450207  
C    0.5459261   -0.7295304   -5.1700096  
N    1.5661290   -1.5747500   -4.7989578  
C   -0.2963289   -0.0005348   -4.3948470  
C   -1.2968014    0.8195076   -5.0575088  
O   -2.1010996    1.5117971   -4.4474759  
C   -1.3442157    0.8139937   -6.6187670  
O   -2.1824053    1.5002182   -7.1877959  
C   -0.3835308   -0.0125674   -7.3452199  
H    1.8425083   -1.9002766   -8.0689422  
H   -0.4228724   -0.0106511   -8.4260399  
H    2.9887832   -2.7966250   -5.8278714  
H    1.8355784   -1.7715193   -3.8525297  
C    3.1301148   -0.0010315   -1.7028253  
C    2.5367766   -0.0002767   -0.4864666  
C    1.1089903    0.0001025   -0.7656183  
C    1.0177867   -0.0004153   -2.2415131  
N    2.1993574   -0.0011616   -2.7963821  
C   -0.2459218   -0.0002884   -2.9257117  
C   -1.3675324   -0.0000610   -2.1698519  
O   -2.6129318    0.0000862   -2.6748483  
C   -1.3083588    0.0000908   -0.6783229  
O   -2.3693264    0.0004202   -0.0541688  
C    0.0000000    0.0000000    0.0000000  
H    3.0096015   -0.0001006    0.4807520  
H   -3.1967441    0.0002093   -1.8949029  
C    5.6039774   -0.0017522   -1.1379130  
C    4.5679459   -0.0016858   -2.0086704  
C    5.1852099   -0.0025566   -3.3260481  
C    6.6391261   -0.0029696   -3.0563966  
N    6.8907015   -0.0025818   -1.7754988  
C    7.6095171   -0.0038936   -4.1163145  
C    7.1484094   -0.0047718   -5.3878147  
O    7.9405118   -0.0056820   -6.4734544  
C    5.6870980   -0.0047557   -5.6923321  
O    5.3390440   -0.0054603   -6.8730428  
C    4.7115721   -0.0037546   -4.5876729  
H    8.6658404   -0.0039713   -3.8902820  
H    7.3255396   -0.0061836   -7.2290739  
H    3.6621307   -0.0038915   -4.8501668  
H    5.5656909   -0.0012540   -0.0601804  
C    0.0000000    0.0000000    1.4700000  
C    1.0541688    0.0001722    2.3260392  
C    0.5103138    0.0000454    3.6635956  
C   -0.9576371   -0.0002459    3.5155732  
N   -1.2018458    0.0001392    2.1615969  
C   -1.8348311   -0.0008317    4.5510609  
C   -1.2972847   -0.0009736    5.9014604  
O   -2.0050672   -0.0014265    6.9001319  
C    0.2542623   -0.0004184    6.0817573  
O    0.7184670   -0.0002256    7.2139121  
C    1.0974552   -0.0000873    4.8889129  
H    2.0940752    0.0005483    2.0517982  
H   -2.9081052   -0.0011668    4.4207061  
H    2.1707277    0.0000911    5.0223670  
H   -2.1128194   -0.0014912    1.7406791  
