58

C    1.0965521    0.0001356   -0.8010302  
C    0.0000000    0.0000000    0.0000000  
C   -1.1546560    0.0001467   -0.8669510  
C   -0.6372006    0.0003515   -2.2486281  
N    0.7342880    0.0007335   -2.1395007  
C   -1.4147728    0.0001348   -3.3608716  
C   -2.8576040   -0.0001053   -3.1854462  
O   -3.6427765   -0.0002499   -4.1244912  
C   -3.4275834   -0.0000730   -1.7311671  
O   -4.6406818    0.0000327   -1.5710068  
C   -2.4891864   -0.0001095   -0.6116748  
H   -1.0150434    0.0001608   -4.3654244  
H   -2.8919115   -0.0002922    0.3920854  
H    2.1388274    0.0000661   -0.5261636  
C    2.8307257   -0.6880607   -3.3923502  
C    1.6707653   -0.0012348   -3.2725965  
C    1.5453254    0.7428534   -4.5164204  
C    2.7497158    0.3772354   -5.2925334  
N    3.5069284   -0.4613286   -4.6387523  
C    3.0021459    0.9119173   -6.6022969  
C    2.0925382    1.7724233   -7.1136459  
O    2.2005243    2.3472960   -8.3235639  
C    0.8669372    2.1606445   -6.3551297  
O    0.0821165    2.9489995   -6.8821727  
C    0.6306007    1.5985956   -5.0134255  
H    1.4056028    2.9046132   -8.4051099  
H   -0.2691091    1.9048120   -4.4967206  
H    3.2814308   -1.3598180   -2.6792018  
C    5.0600566   -2.9444395   -7.0228379  
C    6.0815421   -2.5667523   -7.8340065  
C    5.9161131   -1.1553832   -8.0899497  
C    4.7058563   -0.7387861   -7.3561133  
N    4.2341430   -1.8696775   -6.7304451  
C    4.2112725    0.5249103   -7.3433362  
C    4.9179881    1.5425830   -8.1032247  
O    4.5520677    2.7095214   -8.1547843  
C    6.2018733    1.1237357   -8.8880887  
O    6.8050804    1.9717995   -9.5316636  
C    6.6372840   -0.2692211   -8.8253182  
H    6.8617658   -3.2041515   -8.2102865  
H    7.5272932   -0.5510271   -9.3713887  
H    4.8410188   -3.9175500   -6.6142204  
H    3.4170311   -1.9079079   -6.1491416  
C    2.4951002    2.0940188    2.9809380  
C    1.9440701    1.6314916    1.8291961  
C    0.8759964    0.7350050    2.2038498  
C    0.8497377    0.7130254    3.6788474  
N    1.8560616    1.5571714    4.0882609  
C   -0.0205033   -0.0168748    4.4215661  
C   -0.9962600   -0.8356168    3.7214979  
O   -1.8224391   -1.5286685    4.3006425  
C   -0.9864710   -0.8277881    2.1595606  
O   -1.8030528   -1.5133726    1.5592035  
C    0.0000000    0.0000000    1.4700000  
H    2.2509283    1.8888011    0.8310761  
H   -0.0229599   -0.0187323    5.5027230  
H    3.3143982    2.7817323    3.1139444  
H    2.0889452    1.7545833    5.0442112  
