64

C    5.9329385   -2.1252340   -4.5701444  
C    5.0131318   -1.6623128   -3.6579346  
C    4.1427214   -0.7751636   -4.3579005  
C    4.5839724   -0.7362136   -5.7053823  
N    5.6738275   -1.5656662   -5.7994101  
C    3.9561502    0.0394653   -6.6846425  
C    2.8627881    0.7892521   -6.2966252  
O    2.2121664    1.5642678   -7.2126250  
C    2.4077027    0.7638903   -4.9568228  
O    1.3079543    1.5648734   -4.7280809  
C    3.0267438   -0.0008951   -3.9901699  
H    4.9749616   -1.9301460   -2.6159160  
H    4.2876440    0.0736077   -7.7133057  
H    1.4899371    1.9978178   -6.7396716  
H    1.0650891    1.4902876   -3.8001487  
H    6.7541923   -2.8091833   -4.4408601  
C    6.9445517   -3.0562307   -7.3943760  
C    7.6108051   -2.9307193   -8.5913801  
C    7.5095305   -1.5628327   -8.9828259  
C    6.7642178   -0.8961310   -7.9768720  
N    6.4351857   -1.8323573   -7.0282750  
C    6.4694105    0.4693807   -8.0339239  
C    6.9357427    1.1747724   -9.1262314  
O    6.6767572    2.5107255   -9.2319172  
C    7.6807693    0.5272535  -10.1403674  
O    8.0739581    1.3660169  -11.1627282  
C    7.9717463   -0.8198837  -10.0848736  
H    8.1076396   -3.7273308   -9.1182185  
H    5.9017205    0.9833901   -7.2705595  
H    7.0859002    2.8037694  -10.0565329  
H    8.5711544    0.8503639  -11.8049911  
H    8.5443798   -1.2883497  -10.8767756  
H    6.7911624   -3.9222267   -6.7735039  
C    3.3003547    0.0005277   -1.4738986  
C    2.5232816    0.0003497   -2.6090746  
C    1.1623203   -0.0001319   -2.1820102  
C    1.1711884    0.0000584   -0.7636141  
N    2.4852301   -0.0014919   -0.3662359  
C    0.0000000    0.0000000    0.0000000  
C   -1.2020383    0.0000520   -0.6806479  
O   -2.3759248    0.0003493    0.0157745  
C   -1.2314655   -0.0005115   -2.0955511  
O   -2.5054388   -0.0008040   -2.6250184  
C   -0.0764513   -0.0007274   -2.8495195  
H    2.8036266    0.0088183    0.5858662  
H   -3.0835639    0.0000346   -0.6418822  
H   -2.4360043   -0.0011529   -3.5845924  
H   -0.1304091   -0.0013423   -3.9319089  
H    4.3715553    0.0004897   -1.3667133  
C    0.0000000    0.0000000    1.4700000  
C    1.0541688    0.0001722    2.3260392  
C    0.5103138    0.0000454    3.6635956  
C   -0.9576371   -0.0002459    3.5155732  
N   -1.2018458    0.0001392    2.1615969  
C   -1.8348311   -0.0008317    4.5510609  
C   -1.2972847   -0.0009736    5.9014604  
O   -2.0050672   -0.0014265    6.9001319  
C    0.2542623   -0.0004184    6.0817573  
O    0.7184670   -0.0002256    7.2139121  
C    1.0974552   -0.0000873    4.8889129  
H    2.0940752    0.0005483    2.0517982  
H   -2.9081052   -0.0011668    4.4207061  
H    2.1707277    0.0000911    5.0223670  
H   -2.1128194   -0.0014912    1.7406791  
