58

C    0.2582588    0.0330691   -8.8507341  
C    1.2868835   -0.6423626   -9.4250159  
C    1.2936507   -0.2882923  -10.8248105  
C    0.1766594    0.6555737  -11.0203585  
N   -0.4109702    0.8080941   -9.7857253  
C   -0.1510661    1.2234338  -12.2085648  
C    0.6496413    0.8820568  -13.3725508  
O    0.4344829    1.3407432  -14.4868289  
C    1.8372934   -0.1156743  -13.1886470  
O    2.5182912   -0.4108228  -14.1614725  
C    2.0928034   -0.6619654  -11.8581833  
H    1.9635527   -1.3123224   -8.9251304  
H   -0.9743500    1.9135538  -12.3304176  
H    2.9171179   -1.3519545  -11.7392548  
H   -1.2026541    1.3939118   -9.5931063  
C    1.7720688   -2.0859335   -5.3149821  
C    0.8968264   -1.6247192   -4.3847633  
C   -0.0065337   -0.7270827   -5.0652227  
C    0.4171841   -0.7029979   -6.4782596  
N    1.5002595   -1.5471470   -6.5634086  
C   -0.1857666    0.0284588   -7.4494065  
C   -1.3281508    0.8467740   -7.0781196  
O   -1.9388956    1.5411252   -7.8800978  
C   -1.7940047    0.8367265   -5.5872531  
O   -2.7544406    1.5219332   -5.2627294  
C   -1.0641734    0.0073898   -4.6315339  
H    0.8854566   -1.8836208   -3.3409939  
H    2.5929127   -2.7739332   -5.1934844  
H    2.0129032   -1.7433391   -7.4034991  
C    1.1319248    0.0015675   -0.8009270  
C    0.7969916    0.0034959   -2.1169404  
C   -0.6453336    0.0035703   -2.1842672  
C   -1.1266831    0.0015415   -0.7896027  
N    0.0000000    0.0000000    0.0000000  
C   -2.4346129    0.0013924   -0.4276297  
C   -3.4350110    0.0031352   -1.4820184  
O   -4.6384610    0.0030897   -1.2583919  
C   -2.9478958    0.0050460   -2.9661075  
O   -3.7809377    0.0062160   -3.8623775  
C   -1.5113821    0.0053068   -3.2312125  
H    1.4821240    0.0045436   -2.9459192  
H   -2.7664565    0.0000185    0.6013447  
H    2.1104318    0.0009428   -0.3488058  
C    2.5128556    2.1077716    2.9199648  
C    1.9592212    1.6432552    4.0696553  
C    0.8915788    0.7479214    3.6910360  
C    0.8684491    0.7287414    2.2159470  
N    1.8754542    1.5738793    1.8102719  
C    0.0000000    0.0000000    1.4700000  
C   -0.9772830   -0.8200135    2.1664417  
O   -1.8021297   -1.5120829    1.5842315  
C   -0.9711318   -0.8147624    3.7284083  
O   -1.7894187   -1.5009653    4.3257297  
C    0.0140216    0.0115358    4.4216297  
H    2.2638494    1.8988021    5.0689105  
H    0.0117648    0.0094386    5.5031631  
H    3.3327358    2.7953732    2.7900019  
H    2.1123206    1.7707734    0.8551938  
