58

C    4.1680876    0.5526793   -7.3416862  
C    5.1909954   -0.2809511   -7.0210693  
C    6.1044776   -0.2759016   -8.1392652  
C    5.5257718    0.6355618   -9.1448118  
N    4.3524770    1.1044483   -8.6003722  
C    6.0905812    0.9120206  -10.3474192  
C    7.3525692    0.2687775  -10.6732424  
O    7.9404566    0.4528476  -11.7309789  
C    7.9834220   -0.7004776   -9.6233020  
O    9.0455310   -1.2480773   -9.8865923  
C    7.2806461   -0.9188609   -8.3614520  
H    5.2937891   -0.8361991   -6.1057845  
H    5.6496027    1.5838064  -11.0707115  
H    7.7242122   -1.5912658   -7.6397565  
H    3.7275208    1.7498040   -9.0475789  
C    2.8279729   -0.7071296   -3.3541665  
C    1.6707636   -0.0012343   -3.2725974  
C    1.5420226    0.7399975   -4.5050083  
C    2.7275728    0.4056547   -5.3170902  
N    3.4672609   -0.4755791   -4.5626513  
C    2.9773528    0.9038683   -6.5544657  
C    2.0143743    1.8314547   -7.1243707  
O    2.1493684    2.3348416   -8.2319258  
C    0.7517068    2.1998418   -6.2818938  
O   -0.0658604    2.9799880   -6.7511674  
C    0.5920513    1.5980567   -4.9604491  
H   -0.2850559    1.8581558   -4.3835994  
H    3.2676543   -1.3768500   -2.6330256  
H    4.3364880   -0.8886230   -4.8470555  
C    1.0965514    0.0001358   -0.8010306  
C    0.0000000    0.0000000    0.0000000  
C   -1.1546565    0.0001470   -0.8669508  
C   -0.6372019    0.0003520   -2.2486278  
N    0.7342867    0.0007338   -2.1395012  
C   -1.4147744    0.0001354   -3.3608712  
C   -2.8576052   -0.0001047   -3.1854454  
O   -3.6427785   -0.0002490   -4.1244896  
C   -3.4275841   -0.0000727   -1.7311660  
O   -4.6406832    0.0000333   -1.5710049  
C   -2.4891868   -0.0001090   -0.6116739  
H   -1.0150456    0.0001617   -4.3654239  
H   -2.8919122   -0.0002919    0.3920871  
H    2.1388270    0.0000663   -0.5261650  
C    0.8681109    0.7263879    2.2709268  
C    0.6127770    0.5096195    3.5869401  
C   -0.4920590   -0.4175482    3.6542670  
C   -0.8620974   -0.7254003    2.2596025  
N    0.0000000    0.0000000    1.4700000  
C   -1.8641242   -1.5660088    1.8976294  
C   -2.6293522   -2.2103885    2.9520183  
O   -3.5512764   -2.9839180    2.7283916  
C   -2.2549728   -1.8987399    4.4361073  
O   -2.8923672   -2.4351063    5.3323774  
C   -1.1543735   -0.9755647    4.7012123  
H    1.1382914    0.9492124    4.4159191  
H   -2.1192137   -1.7782617    0.8686553  
H   -0.9013378   -0.7652422    5.7314848  
H    1.6172880    1.3558399    1.8188057  
