60

C    4.4508002   -2.0874923   -1.5922070  
C    3.2092511   -1.6264350   -1.8923016  
C    3.3527768   -0.7316627   -3.0164098  
C    4.7900153   -0.7090876   -3.3490145  
N    5.4005100   -1.5512867   -2.4485216  
C    5.3348439    0.0196057   -4.3559269  
C    4.4464356    0.8363280   -5.1660073  
O    4.8404657    1.5281790   -6.0957290  
C    2.9207213    0.8278369   -4.8314465  
O    2.1630645    1.5117246   -5.5063638  
C    2.4521480    0.0014830   -3.7217483  
H    2.2970209   -1.8836390   -1.3840736  
H    6.3918284    0.0219293   -4.5832759  
H    4.7519003   -2.7737078   -0.8173928  
H    6.3841500   -1.7478733   -2.4193062  
C    0.0000000    0.0000000    0.0000000  
C    1.0662921   -0.0000106   -0.8334269  
C    0.4961870    0.0000059   -2.1718889  
C   -0.9663856   -0.0000854   -1.9540246  
N   -1.2632773   -0.0000087   -0.6828657  
C   -1.8985362   -0.0000522   -3.0477258  
C   -1.3925773    0.0004558   -4.3020541  
O   -2.1456384    0.0005402   -5.4151311  
C    0.0786236    0.0009315   -4.5544999  
O    0.4683762    0.0012578   -5.7221098  
C    1.0143167    0.0008435   -3.4159031  
H    2.1107198    0.0000631   -0.5721865  
H   -1.5042271    0.0009682   -6.1484419  
C   -4.3359694    2.1064016   -0.0635825  
C   -5.5644949    1.6417186   -0.4083571  
C   -5.3776802    0.7467250   -1.5259091  
C   -3.9292255    0.7279262   -1.8059383  
N   -3.3543287    1.5729375   -0.8848850  
C   -3.3460094   -0.0004268   -2.7913647  
C   -4.2020390   -0.8203947   -3.6324363  
O   -3.7724542   -1.5121275   -4.5463634  
C   -5.7389982   -0.8155431   -3.3539783  
O   -6.4697268   -1.5017115   -4.0557402  
C   -6.2499649    0.0103535   -2.2628044  
H   -6.4953654    1.8969412    0.0659371  
H   -7.3153177    0.0079812   -2.0764129  
H   -4.0651599    2.7938491    0.7212538  
H   -2.3726196    1.7700210   -0.8181565  
C    0.0000000    0.0000000    1.4700000  
C    1.0521667    0.0011902    2.3562342  
C    0.4917218    0.0011957    3.6679131  
C   -0.9187428   -0.0003148    3.5178682  
N   -1.1833171    0.0009411    2.1707914  
C   -1.7951701   -0.0010350    4.6072090  
C   -1.2375837   -0.0005224    5.8710424  
O   -2.0474215   -0.0015360    6.9697579  
C    0.1673580    0.0013566    6.0411963  
O    0.5673524    0.0020687    7.3615553  
C    1.0325770    0.0023412    4.9669890  
H    2.0953057    0.0030649    2.0900562  
H   -2.0989778   -0.0102372    1.7591824  
H   -2.8710934   -0.0020419    4.4995513  
H   -1.4634884   -0.0006497    7.7393593  
H    1.5290710    0.0033153    7.3880045  
H    2.1042148    0.0039609    5.1284455  
