58

C   -0.4802711    0.9857811   -0.8010307  
C    0.0000000    0.0000000    0.0000000  
C    0.5054593   -1.0381436   -0.8669512  
C    0.2786963   -0.5730227   -2.2486276  
N   -0.3221835    0.6598297   -2.1395012  
C    0.6193683   -1.2719945   -3.3608712  
C    1.2513596   -2.5690484   -3.1854454  
O    1.5952949   -3.2748851   -4.1244896  
C    1.5009086   -3.0814944   -1.7311656  
O    2.0319954   -4.1721624   -1.5710047  
C    1.0900432   -2.2378240   -0.6116736  
H    1.2665498   -2.5998089    0.3920871  
H   -0.9365921    1.9228562   -0.5261649  
H   -0.6009070    1.2351724   -2.9130264  
C    0.9361268    2.6671826   -5.4216936  
C    0.9751154    1.7162018   -4.4595631  
C    0.5511846    0.4931802   -5.1236416  
C    0.2885409    0.8995831   -6.5209383  
N    0.5125333    2.1728274   -6.7016765  
C   -0.1572509   -0.0376402   -7.5149045  
C   -0.3323168   -1.3225335   -7.1305409  
O   -0.7442602   -2.3024424   -7.9528075  
C   -0.0752818   -1.7637263   -5.7278851  
O   -0.2556996   -2.9489323   -5.4486778  
C    0.3813567   -0.7833918   -4.7267105  
H    1.2568547    1.8305174   -3.4267849  
H   -0.3416963    0.2870255   -8.5285527  
H   -0.7728079   -3.0997147   -7.3936160  
C    2.3212401    5.3290663   -2.1262003  
C    1.9192121    4.2277998   -2.8023395  
C    1.6775574    4.6891052   -4.1607581  
C    1.9920747    6.1335458   -4.1253442  
N    2.3700320    6.5144197   -2.9353557  
C    1.8771545    6.9660378   -5.2910360  
C    1.4670599    6.3820020   -6.4399743  
O    1.3155344    7.0381385   -7.6029732  
C    1.1425304    4.9265837   -6.5077873  
O    0.7750242    4.4623085   -7.5869575  
C    1.2682622    4.0938498   -5.2983778  
H    1.8013027    3.2261062   -2.4257983  
H    2.1133576    8.0187150   -5.2363652  
H    1.0147413    6.3590233   -8.2334330  
H    2.5972497    5.4061345   -1.0865594  
C    2.5128556    2.1077716    2.9199648  
C    1.9592212    1.6432552    4.0696553  
C    0.8915788    0.7479214    3.6910360  
C    0.8684491    0.7287414    2.2159470  
N    1.8754542    1.5738793    1.8102719  
C    0.0000000    0.0000000    1.4700000  
C   -0.9772830   -0.8200135    2.1664417  
O   -1.8021297   -1.5120829    1.5842315  
C   -0.9711318   -0.8147624    3.7284083  
O   -1.7894187   -1.5009653    4.3257297  
C    0.0140216    0.0115358    4.4216297  
H    2.2638494    1.8988021    5.0689105  
H    0.0117648    0.0094386    5.5031631  
H    3.3327358    2.7953732    2.7900019  
H    2.1123206    1.7707734    0.8551938  
