58

C    0.8353431   -0.7266733   -5.2248488  
C    0.5761927   -0.5101824   -6.5401617  
C   -0.5291469    0.4165986   -6.6044786  
C   -0.8953217    0.7245262   -5.2088114  
N   -0.0307339   -0.0004657   -4.4215603  
C   -1.8966017    1.5648452   -4.8441102  
C   -2.6650461    2.2088112   -5.8964108  
O   -3.5865946    2.9820585   -5.6702733  
C   -2.2947838    1.8970758   -7.3815141  
O   -2.9349073    2.4330943   -8.2760437  
C   -1.1946273    0.9742375   -7.6496154  
H   -2.1488358    1.7771600   -3.8144452  
H   -0.9444517    0.7638523   -8.6805737  
H    1.5860183   -1.3558042   -4.7747702  
C    3.2573676   -0.0002923   -1.5109372  
C    2.5379471   -0.0001711   -0.3591955  
C    1.1435047    0.0000329   -0.7338501  
C    1.1092617   -0.0000089   -2.2088475  
N    2.4227570    0.0001902   -2.6182607  
C   -0.0265523   -0.0002531   -2.9515663  
C   -1.3003029   -0.0002646   -2.2514989  
O   -2.3786774   -0.0004142   -2.8306437  
C   -1.2877723    0.0000310   -0.6895610  
O   -2.3539957    0.0003305   -0.0892042  
C    0.0000000    0.0000000    0.0000000  
H    2.9384089   -0.0000365    0.6389248  
H    4.3270398   -0.0004766   -1.6439434  
H    2.7280505   -0.0013414   -3.5742107  
C    2.1298259   -4.5646219   -7.1967306  
C    2.6600712   -4.4040402   -8.4365404  
C    2.4192812   -3.0338655   -8.8231632  
C    1.7001584   -2.4048407   -7.6988942  
N    1.5556879   -3.3859496   -6.7452470  
C    1.2914750   -1.1109621   -7.6752105  
C    1.5788749   -0.2826764   -8.8344686  
O    1.2521049    0.8945642   -8.9094834  
C    2.3391732   -0.9281160  -10.0366168  
O    2.5864598   -0.2406901  -11.0182250  
C    2.7285841   -2.3330661   -9.9453705  
H    3.1623798   -5.1592908   -9.0143779  
H    3.2548555   -2.7723559  -10.7819032  
H    2.1099936   -5.4449156   -6.5749755  
H    1.1046286   -3.2639348   -5.8571562  
C    0.8175213    0.6860729    2.3021913  
C    0.0000000    0.0000000    1.4700000  
C   -0.8887526   -0.7456559    2.3478473  
C   -0.4549825   -0.3816753    3.7138435  
N    0.5448156    0.4573574    3.6934124  
C   -1.0945674   -0.9182058    4.8835240  
C   -2.1210866   -1.7789155    4.6970523  
O   -2.8083856   -2.3554314    5.6976972  
C   -2.5824069   -2.1655116    3.3310774  
O   -3.5227682   -2.9541547    3.2362962  
C   -1.9100805   -1.6015804    2.1470656  
H   -0.7567140   -0.6349833    5.8697035  
H   -3.4728268   -2.9124471    5.2533954  
H   -2.2742832   -1.9066565    1.1752040  
H    1.6189533    1.3585343    2.0405121  
