60

C    3.3003550    0.0005278   -1.4738984  
C    2.5232817    0.0003499   -2.6090745  
C    1.1623206   -0.0001318   -2.1820103  
C    1.1711889    0.0000583   -0.7636144  
N    2.4852306   -0.0014919   -0.3662359  
C    0.0000000    0.0000000    0.0000000  
C   -1.2020381    0.0000520   -0.6806483  
O   -2.3759245    0.0003493    0.0157738  
C   -1.2314651   -0.0005111   -2.0955512  
O   -2.5054383   -0.0008038   -2.6250188  
C   -0.0764510   -0.0007272   -2.8495197  
H    2.8036267    0.0088181    0.5858666  
H   -3.0835634    0.0000346   -0.6418822  
H   -2.4360041   -0.0011525   -3.5845926  
H   -0.1304089   -0.0013420   -3.9319089  
H    4.3715552    0.0004896   -1.3667133  
C    5.8850902   -2.1080192   -4.4895965  
C    5.7585077   -1.6448894   -5.7598575  
C    4.6253937   -0.7500316   -5.7707353  
C    4.0984499   -0.7296199   -4.3928008  
N    4.9059588   -1.5736627   -3.6658823  
C    3.0267442   -0.0008948   -3.9901698  
C    2.3467548    0.8177996   -4.9800634  
O    1.3721080    1.5097466   -4.7162946  
C    2.8874962    0.8112304   -6.4454508  
O    2.3229945    1.4963169   -7.2876239  
C    4.0508303   -0.0149196   -6.7584727  
H    4.4191252   -0.0137400   -7.7753709  
H    6.6111559   -2.7948988   -4.0859696  
H    4.8014750   -1.7695716   -2.6872357  
C    7.5561799   -5.4546165   -6.9998949  
C    8.2081133   -5.0422369   -8.1174820  
C    7.9479982   -3.6290624   -8.2593047  
C    7.0849193   -3.2492129   -7.1245801  
N    6.8840578   -4.4009372   -6.3992695  
C    6.6176404   -1.9950314   -6.9001173  
C    6.9893998   -0.9495487   -7.8388911  
O    6.6193370    0.2115195   -7.7236736  
C    7.9024490   -1.3292896   -9.0479987  
O    8.2217753   -0.4575851   -9.8451335  
C    8.3433467   -2.7152895   -9.1838890  
H    8.8031521   -5.6578011   -8.7683453  
H    8.9754837   -2.9699484  -10.0236959  
H    7.5100192   -6.4396644   -6.5646485  
H    6.3355362   -4.4656262   -5.5614231  
C    0.8681109    0.7263879    2.2709268  
C    0.6127770    0.5096195    3.5869401  
C   -0.4920590   -0.4175482    3.6542670  
C   -0.8620974   -0.7254003    2.2596025  
N    0.0000000    0.0000000    1.4700000  
C   -1.8641242   -1.5660088    1.8976294  
C   -2.6293522   -2.2103885    2.9520183  
O   -3.5512764   -2.9839180    2.7283916  
C   -2.2549728   -1.8987399    4.4361073  
O   -2.8923672   -2.4351063    5.3323774  
C   -1.1543735   -0.9755647    4.7012123  
H    1.1382914    0.9492124    4.4159191  
H   -2.1192137   -1.7782617    0.8686553  
H   -0.9013378   -0.7652422    5.7314848  
H    1.6172880    1.3558399    1.8188057  
