60

C   -3.3040082    0.0281028   -1.5420424  
C   -2.5844392    0.0225525   -0.3695848  
C   -1.2039567    0.0102840   -0.7283588  
C   -1.1422016    0.0091521   -2.1454372  
N   -2.4347980    0.0181853   -2.6077461  
C    0.0655074   -0.0014395   -2.8497915  
C    1.2321298   -0.0107566   -2.1101402  
O    2.4391913   -0.0209488   -2.7472522  
C    1.1910763   -0.0101726   -0.6955267  
O    2.4370656   -0.0205839   -0.1032868  
C    0.0000000    0.0000000    0.0000000  
H   -3.0030432    0.0257161    0.6222587  
H   -2.7053039    0.0302169   -3.5745259  
H    0.1193376   -0.0025040   -3.9297473  
H    3.1131857   -0.0265260   -2.0551788  
H    2.3199472   -0.0194084    0.8516408  
C   -6.5768786    0.0597326    1.3345549  
C   -7.6642453    0.0682250    0.5288622  
C   -7.1288299    0.0618786   -0.8238352  
C   -5.6611848    0.0494045   -0.6437050  
N   -5.3316589    0.0480115    0.6193867  
C   -4.7575533    0.0401229   -1.7610452  
C   -5.2956403    0.0427756   -3.0019279  
O   -4.5715316    0.0349887   -4.1340262  
C   -6.7728039    0.0549057   -3.2164052  
O   -7.1924933    0.0568115   -4.3735903  
C   -7.6788208    0.0643183   -2.0540930  
H   -5.2315990    0.0394294   -4.8505765  
H   -8.7423303    0.0728702   -2.2518429  
H   -6.5490989    0.0608174    2.4126091  
C   -9.7871005    2.1983195    3.7287875  
C  -11.0469749    1.7444049    3.5035037  
C  -10.9755649    0.8470479    2.3745722  
C   -9.5606642    0.8151271    1.9576458  
N   -8.8930609    1.6555707    2.8183722  
C   -9.0805972    0.0809490    0.9221638  
C  -10.0201861   -0.7318884    0.1678407  
O   -9.6858969   -1.4280284   -0.7818651  
C  -11.5234562   -0.7131246    0.5916686  
O  -12.3238465   -1.3931961   -0.0361372  
C  -11.9206545    0.1180169    1.7253750  
H  -11.9260484    2.0082432    4.0640684  
H  -12.9633388    0.1252838    2.0125695  
H   -9.4365748    2.8838331    4.4831698  
H   -7.9077623    1.8439198    2.7908307  
C    0.8400945    0.7047457    2.2710304  
C    0.0000000    0.0000000    1.4700000  
C   -0.8844236   -0.7423113    2.3369512  
C   -0.4878984   -0.4098547    3.7186280  
N    0.5629682    0.4714286    3.6095011  
C   -1.0836927   -0.9095027    4.8308716  
C   -2.1891196   -1.8367527    4.6554461  
O   -2.7906899   -2.3413415    5.5944904  
C   -2.6257283   -2.2031529    3.2011665  
O   -3.5549479   -2.9829990    3.0410059  
C   -1.9068976   -1.5999348    2.0816745  
H   -0.7774656   -0.6525820    5.8354244  
H   -2.2155208   -1.8586617    1.0779135  
H    1.6384792    1.3747609    1.9961646  
H    1.0518368    0.8833920    4.3830260  
