58

C    0.8353431   -0.7266733   -5.2248488  
C    0.5761927   -0.5101824   -6.5401617  
C   -0.5291469    0.4165986   -6.6044786  
C   -0.8953217    0.7245262   -5.2088114  
N   -0.0307339   -0.0004657   -4.4215603  
C   -1.8966017    1.5648452   -4.8441102  
C   -2.6650461    2.2088112   -5.8964108  
O   -3.5865946    2.9820585   -5.6702733  
C   -2.2947838    1.8970758   -7.3815141  
O   -2.9349073    2.4330943   -8.2760437  
C   -1.1946273    0.9742375   -7.6496154  
H   -2.1488358    1.7771600   -3.8144452  
H   -0.9444517    0.7638523   -8.6805737  
H    1.5860183   -1.3558042   -4.7747702  
C    3.2573676   -0.0002923   -1.5109372  
C    2.5379471   -0.0001711   -0.3591955  
C    1.1435047    0.0000329   -0.7338501  
C    1.1092617   -0.0000089   -2.2088475  
N    2.4227570    0.0001902   -2.6182607  
C   -0.0265523   -0.0002531   -2.9515663  
C   -1.3003029   -0.0002646   -2.2514989  
O   -2.3786774   -0.0004142   -2.8306437  
C   -1.2877723    0.0000310   -0.6895610  
O   -2.3539957    0.0003305   -0.0892042  
C    0.0000000    0.0000000    0.0000000  
H    2.9384089   -0.0000365    0.6389248  
H    4.3270398   -0.0004766   -1.6439434  
H    2.7280505   -0.0013414   -3.5742107  
C    1.7282227   -2.4253393   -7.7415624  
C    2.3567491   -2.6704807   -8.9200934  
C    2.3313938   -1.4397268   -9.6747038  
C    1.6315816   -0.4503624   -8.8331503  
N    1.2914750   -1.1109621   -7.6752105  
C    1.4025604    0.8385408   -9.1908978  
C    1.8767786    1.2808092  -10.4916866  
O    1.7193799    2.4220533  -10.9053154  
C    2.6202332    0.2498363  -11.3995274  
O    3.0237631    0.6105767  -12.4969292  
C    2.8074031   -1.1116203  -10.9042963  
H    2.7886706   -3.6066914   -9.2259815  
H    0.8872907    1.5481997   -8.5586076  
H    3.3233302   -1.8193130  -11.5388957  
H    1.5471529   -3.0943542   -6.9160189  
C    2.5528530    2.1414826    2.8079335  
C    2.0663498    1.7338582    4.0032312  
C    0.9804344    0.8229586    3.6752840  
C    0.9495562    0.7966882    2.1971295  
N    1.8690446    1.5676019    1.6831036  
C    0.0000000    0.0000000    1.4700000  
C   -0.8785127   -0.7372425    2.1869543  
O   -1.8187535   -1.5261249    1.6395491  
C   -0.8723269   -0.7321790    3.6796354  
O   -1.7010379   -1.4274584    4.2670412  
C    0.1115397    0.0933559    4.4024240  
H    2.4028853    2.0163452    4.9860947  
H   -2.2861435   -1.9184361    2.3990168  
H    0.0832434    0.0693689    5.4835595  
H    3.3664920    2.8238276    2.6198634  
