58

C    0.9857760   -0.0077417   -8.7876914  
C    2.0727623   -0.6825371   -9.2428713  
C    2.2347253   -0.3305851  -10.6338186  
C    1.1452005    0.6113444  -10.9539684  
N    0.4236976    0.7648795   -9.7926110  
C    0.9509371    1.1769168  -12.1722019  
C    1.8765816    0.8349449  -13.2393369  
O    1.7861038    1.2916216  -14.3713964  
C    3.0376921   -0.1607634  -12.9228071  
O    3.8230476   -0.4563916  -13.8133579  
C    3.1443381   -0.7046566  -11.5712681  
H    2.6904942   -1.3507437   -8.6697045  
H    0.1454269    1.8656433  -12.3860221  
H    3.9511977   -1.3932551  -11.3602396  
H   -0.3852518    1.3498282   -9.6902222  
C    2.0577022   -2.1067621   -5.0538573  
C    2.0213370   -1.6421659   -6.3293585  
C    0.8918566   -0.7471757   -6.4193649  
C    0.2687258   -0.7282841   -5.0821507  
N    1.0227496   -1.5732442   -4.3008819  
C   -0.8287665    0.0000939   -4.7555305  
C   -1.4369815    0.8199926   -5.7901200  
O   -2.4278330    1.5117412   -5.5951879  
C   -0.7938991    0.8150424   -7.2135759  
O   -1.2973732    1.5011518   -8.0927957  
C    0.3886479   -0.0108729   -7.4444391  
H    2.7073333   -1.8974440   -7.1173025  
H    2.7533683   -2.7941806   -4.6006523  
H    0.8492696   -1.7702611   -3.3323078  
C    1.0672569   -0.0000698   -0.8321910  
C    0.0000000    0.0000000    0.0000000  
C   -1.1601223   -0.0000736   -0.8778472  
C   -0.5938729   -0.0000768   -2.2438435  
N    0.7113367   -0.0001553   -2.2234123  
C   -1.4286985   -0.0001877   -3.4135239  
C   -2.7683113   -0.0006798   -3.2270524  
O   -3.6653902   -0.0008302   -4.2276970  
C   -3.3702024   -0.0010610   -1.8610774  
O   -4.5974910   -0.0013779   -1.7662963  
C   -2.4926825   -0.0008943   -0.6770658  
H   -4.5324245   -0.0012258   -3.7833954  
H   -2.9677772   -0.0012974    0.2947961  
H    2.1134391   -0.0000547   -0.5705119  
C    0.0000000    0.0000000    1.4700000  
C    1.0541688    0.0001722    2.3260392  
C    0.5103138    0.0000454    3.6635956  
C   -0.9576371   -0.0002459    3.5155732  
N   -1.2018458    0.0001392    2.1615969  
C   -1.8348311   -0.0008317    4.5510609  
C   -1.2972847   -0.0009736    5.9014604  
O   -2.0050672   -0.0014265    6.9001319  
C    0.2542623   -0.0004184    6.0817573  
O    0.7184670   -0.0002256    7.2139121  
C    1.0974552   -0.0000873    4.8889129  
H    2.0940752    0.0005483    2.0517982  
H   -2.9081052   -0.0011668    4.4207061  
H    2.1707277    0.0000911    5.0223670  
H   -2.1128194   -0.0014912    1.7406791  
