64

C    3.8706493   -0.7380878   -4.5561747  
C    2.8310662   -0.0116220   -4.0232752  
C    2.2320928    0.7087010   -5.0988984  
C    2.9547298    0.3789711   -6.2740583  
N    3.9438703   -0.5000829   -5.9087061  
C    2.6394088    0.9080278   -7.5292320  
C    1.5750126    1.7857026   -7.5994170  
O    1.2238685    2.3314677   -8.8001884  
C    0.8420581    2.1272704   -6.4379842  
O   -0.1887473    3.0138617   -6.6719458  
C    1.1527393    1.6059352   -5.1993504  
H    3.1863418    0.6608349   -8.4286543  
H    0.4674999    2.9071620   -8.6277091  
H   -0.6323004    3.1917833   -5.8369553  
H    0.5733114    1.8862637   -4.3274808  
H    4.5665932   -1.4060752   -4.0782489  
C    5.3608787   -2.4110105   -6.7577520  
C    6.2787905   -2.6298195   -7.7587657  
C    6.4114849   -1.4046617   -8.4770840  
C    5.5429393   -0.4661471   -7.8632894  
N    4.9188919   -1.1103923   -6.8239961  
C    5.4155218    0.8520594   -8.3114903  
C    6.1790278    1.2298068   -9.3989392  
O    6.0936829    2.5052319   -9.8775012  
C    7.0511149    0.3077267  -10.0250778  
O    7.7428671    0.8357890  -11.0955785  
C    7.1771206   -0.9929515   -9.5836193  
H    6.7890497   -3.5585684   -7.9486443  
H    4.7552463    1.5721580   -7.8481369  
H    6.6998115    2.5563899  -10.6280044  
H    8.3084653    0.1486522  -11.4610178  
H    7.8532249   -1.6766467  -10.0835432  
H    4.9854202   -3.0802029   -6.0026548  
C    3.3041270    0.0001177   -1.5420434  
C    2.5845372   -0.0004781   -0.3695856  
C    1.2040006   -0.0000008   -0.7283592  
C    1.1422371    0.0006037   -2.1454375  
N    2.4348636    0.0026109   -2.6077467  
C   -0.0655183    0.0008798   -2.8497920  
C   -1.2321770    0.0002326   -2.1101400  
O   -2.4392818    0.0001147   -2.7472520  
C   -1.1911210   -0.0000007   -0.6955263  
O   -2.4371527   -0.0002320   -0.1032859  
C    0.0000000    0.0000000    0.0000000  
H    3.0031533   -0.0000660    0.6222577  
H   -0.1193553    0.0014844   -3.9297472  
H   -3.1132989   -0.0000648   -2.0551784  
H   -2.3200282   -0.0004069    0.8516410  
H    4.3686624    0.0004070   -1.7024294  
C    0.8681109    0.7263879    2.2709268  
C    0.6127770    0.5096195    3.5869401  
C   -0.4920590   -0.4175482    3.6542670  
C   -0.8620974   -0.7254003    2.2596025  
N    0.0000000    0.0000000    1.4700000  
C   -1.8641242   -1.5660088    1.8976294  
C   -2.6293522   -2.2103885    2.9520183  
O   -3.5512764   -2.9839180    2.7283916  
C   -2.2549728   -1.8987399    4.4361073  
O   -2.8923672   -2.4351063    5.3323774  
C   -1.1543735   -0.9755647    4.7012123  
H    1.1382914    0.9492124    4.4159191  
H   -2.1192137   -1.7782617    0.8686553  
H   -0.9013378   -0.7652422    5.7314848  
H    1.6172880    1.3558399    1.8188057  
