58

C    4.9806392   -2.9386707   -0.3772256  
C    4.2338996   -3.6180185    0.5310368  
C    5.1507232   -4.3870500    1.3390352  
C    6.5025023   -4.0979510    0.8233752  
N    6.3301787   -3.2137063   -0.2164830  
C    7.6461096   -4.6321097    1.3219141  
C    7.5383880   -5.5534038    2.4409097  
O    8.5098794   -6.0870873    2.9602243  
C    6.1167334   -5.8741599    3.0028858  
O    6.0135264   -6.6486024    3.9446127  
C    4.9584670   -5.2362568    2.3821187  
H    3.1630125   -3.5844028    0.6242246  
H    8.6278437   -4.4067197    0.9290955  
H    3.9776726   -5.4634772    2.7772609  
H    7.0708625   -2.8261312   -0.7716604  
C    4.5414468   -2.0136865   -1.4319362  
C    3.2784302   -1.6314302   -1.7323495  
C    3.4206903   -0.7132110   -2.8517847  
C    4.8766552   -0.6552129   -3.1035515  
N    5.5387691   -1.4155495   -2.2744061  
C    5.4363360    0.1572544   -4.1484151  
C    4.5803866    0.8786766   -4.9075169  
O    4.9639653    1.6794174   -5.9163390  
C    3.1058543    0.8409937   -4.6783996  
O    2.3863367    1.5234829   -5.4075939  
C    2.5562217   -0.0001543   -3.6003001  
H    2.3632534   -1.9351317   -1.2535044  
H    6.5041751    0.1807536   -4.3099005  
H    4.1348753    2.0549940   -6.2637659  
C    0.0000000    0.0000000    0.0000000  
C    1.0541688   -0.0001719   -0.8560391  
C    0.5103141   -0.0000449   -2.1935955  
C   -0.9576367    0.0002461   -2.0455733  
N   -1.2018459   -0.0001392   -0.6915970  
C   -1.8348306    0.0008319   -3.0810611  
C   -1.2972842    0.0009739   -4.4314605  
O   -2.0050664    0.0014267   -5.4301321  
C    0.2542628    0.0004190   -4.6117571  
O    0.7184677    0.0002263   -5.7439119  
C    1.0974556    0.0000880   -3.4189127  
H    2.0940752   -0.0005479   -0.5817978  
H   -2.9081050    0.0011669   -2.9507065  
H   -2.1128195    0.0014911   -0.2706793  
C    1.0965515   -0.0001358    2.2710304  
C    0.0000000    0.0000000    1.4700000  
C   -1.1546562   -0.0001469    2.3369512  
C   -0.6372014   -0.0003519    3.7186280  
N    0.7342871   -0.0007337    3.6095011  
C   -1.4147739   -0.0001353    4.8308716  
C   -2.8576048    0.0001048    4.6554461  
O   -3.6427778    0.0002493    5.5944904  
C   -3.4275839    0.0000726    3.2011665  
O   -4.6406829   -0.0000333    3.0410059  
C   -2.4891866    0.0001091    2.0816745  
H   -1.0150448   -0.0001615    5.8354244  
H   -2.8919121    0.0002919    1.0779135  
H    2.1388271   -0.0000662    1.9961646  
H    1.3735872    0.0006099    4.3830260  
