62

C   -3.1254322   -1.0718814   -1.5420434  
C   -2.4449442   -0.8379023   -0.3695853  
C   -1.1388996   -0.3905447   -0.7283586  
C   -1.0802798   -0.3710820   -2.1454377  
N   -2.3023617   -0.7922740   -2.6077470  
C    0.0622612    0.0204205   -2.8497918  
C    1.1656274    0.3994654   -2.1101393  
O    2.3074250    0.7911293   -2.7472516  
C    1.1267160    0.3863685   -0.6955258  
O    2.3052984    0.7907663   -0.1032863  
C    0.0000000    0.0000000    0.0000000  
H   -2.8407921   -0.9740799    0.6222580  
H    0.1133830    0.0373118   -3.9297469  
H    2.9449394    1.0099321   -2.0551783  
H    2.1944501    0.7529398    0.8516413  
H   -4.1323131   -1.4174617   -1.7024297  
C   -2.6817579   -0.9073279   -4.0232754  
C   -3.8657729   -1.3125966   -4.5384886  
C   -3.6931755   -1.2355606   -5.9809784  
C   -2.3079763   -0.7519983   -6.1653008  
N   -1.7100975   -0.5578990   -5.0212492  
C   -1.7432218   -0.5403625   -7.4696584  
C   -2.5265387   -0.8003699   -8.5411746  
O   -2.1295023   -0.6474120   -9.8159324  
C   -3.9283768   -1.2897535   -8.3878310  
O   -4.5837789   -1.5057432   -9.4071528  
C   -4.4847816   -1.4989535   -7.0392858  
H   -4.7473676   -1.6252941   -4.0054910  
H   -0.7281518   -0.1861425   -7.5748755  
H   -2.9014562   -0.9097614  -10.3492356  
C   -5.8700257   -1.9820292   -6.9463566  
C   -6.6389840   -2.2610455   -5.8403187  
C   -7.9104962   -2.6979989   -6.3166888  
C   -7.8578452   -2.6649929   -7.7337504  
N   -6.6055882   -2.2239165   -8.0829244  
C   -8.9395915   -3.0328986   -8.5395161  
C  -10.0954472   -3.4418588   -7.9031760  
O  -11.1817182   -3.8124200   -8.6419001  
C  -10.1675184   -3.4811834   -6.4903505  
O  -11.3866766   -3.9101928   -6.0077028  
C   -9.1008286   -3.1181193   -5.6948108  
H   -6.3227705   -2.1608013   -4.8161340  
H   -6.2719713   -2.1088663   -9.0228417  
H   -8.9058830   -3.0098180   -9.6200402  
H  -11.8702934   -4.0583334   -8.0105070  
H  -11.3511634   -3.9075645   -5.0462790  
H   -9.1857063   -3.1583458   -4.6151550  
C    0.0000000    0.0000000    1.4700000  
C    1.0541688    0.0001722    2.3260392  
C    0.5103138    0.0000454    3.6635956  
C   -0.9576371   -0.0002459    3.5155732  
N   -1.2018458    0.0001392    2.1615969  
C   -1.8348311   -0.0008317    4.5510609  
C   -1.2972847   -0.0009736    5.9014604  
O   -2.0050672   -0.0014265    6.9001319  
C    0.2542623   -0.0004184    6.0817573  
O    0.7184670   -0.0002256    7.2139121  
C    1.0974552   -0.0000873    4.8889129  
H    2.0940752    0.0005483    2.0517982  
H   -2.9081052   -0.0011668    4.4207061  
H    2.1707277    0.0000911    5.0223670  
H   -2.1128194   -0.0014912    1.7406791  
