58

C   -0.4802711    0.9857811   -0.8010307  
C    0.0000000    0.0000000    0.0000000  
C    0.5054593   -1.0381436   -0.8669512  
C    0.2786963   -0.5730227   -2.2486276  
N   -0.3221835    0.6598297   -2.1395012  
C    0.6193683   -1.2719945   -3.3608712  
C    1.2513596   -2.5690484   -3.1854454  
O    1.5952949   -3.2748851   -4.1244896  
C    1.5009086   -3.0814944   -1.7311656  
O    2.0319954   -4.1721624   -1.5710047  
C    1.0900432   -2.2378240   -0.6116736  
H    1.2665498   -2.5998089    0.3920871  
H   -0.9365921    1.9228562   -0.5261649  
H   -0.6009070    1.2351724   -2.9130264  
C    0.9361268    2.6671826   -5.4216936  
C    0.9751154    1.7162018   -4.4595631  
C    0.5511846    0.4931802   -5.1236416  
C    0.2885409    0.8995831   -6.5209383  
N    0.5125333    2.1728274   -6.7016765  
C   -0.1572509   -0.0376402   -7.5149045  
C   -0.3323168   -1.3225335   -7.1305409  
O   -0.7442602   -2.3024424   -7.9528075  
C   -0.0752818   -1.7637263   -5.7278851  
O   -0.2556996   -2.9489323   -5.4486778  
C    0.3813567   -0.7833918   -4.7267105  
H    1.2568547    1.8305174   -3.4267849  
H   -0.3416963    0.2870255   -8.5285527  
H   -0.7728079   -3.0997147   -7.3936160  
C    2.2804287    4.9483078   -1.9609396  
C    2.4156334    6.1928753   -2.4750894  
C    2.0396020    6.0634693   -3.8745019  
C    1.6967195    4.6343468   -4.0376744  
N    1.8359088    3.9756379   -2.9193191  
C    1.2682622    4.0938498   -5.2983778  
C    1.1857101    4.9425464   -6.3482511  
O    0.8004433    4.5748571   -7.5821125  
C    1.5245816    6.3901796   -6.2152731  
O    1.4267689    7.1044397   -7.2130135  
C    1.9616553    6.9204807   -4.9115580  
H    2.7314410    7.0881863   -1.9673896  
H    0.8418672    5.3932903   -8.1089935  
H    2.1978446    7.9747285   -4.8567227  
H    2.4640256    4.6243033   -0.9488691  
C    0.8681109    0.7263879    2.2709268  
C    0.6127770    0.5096195    3.5869401  
C   -0.4920590   -0.4175482    3.6542670  
C   -0.8620974   -0.7254003    2.2596025  
N    0.0000000    0.0000000    1.4700000  
C   -1.8641242   -1.5660088    1.8976294  
C   -2.6293522   -2.2103885    2.9520183  
O   -3.5512764   -2.9839180    2.7283916  
C   -2.2549728   -1.8987399    4.4361073  
O   -2.8923672   -2.4351063    5.3323774  
C   -1.1543735   -0.9755647    4.7012123  
H    1.1382914    0.9492124    4.4159191  
H   -2.1192137   -1.7782617    0.8686553  
H   -0.9013378   -0.7652422    5.7314848  
H    1.6172880    1.3558399    1.8188057  
