60

C    3.2798085    0.0005856   -1.4499646  
C    2.5571146    0.0005565   -2.5996553  
C    1.1637436    0.0001548   -2.2210360  
C    1.1336964   -0.0000200   -0.7459468  
N    2.4483512   -0.0001429   -0.3402719  
C    0.0000000    0.0000000    0.0000000  
C   -1.2757371   -0.0000187   -0.6964415  
O   -2.3524597   -0.0000640   -0.1142312  
C   -1.2676493   -0.0000873   -2.2584081  
O   -2.3355761   -0.0004101   -2.8557295  
C    0.0181561    0.0001759   -2.9516296  
H    2.9547354    0.0006074   -3.5989104  
H    2.7563628    0.0012823    0.6148064  
C    4.7390846    0.0009612   -1.2727278  
C    5.7159792    0.0017141   -2.2159942  
C    6.9782062    0.0017425   -1.5148385  
C    6.6542741    0.0009094   -0.0754434  
N    5.2807307    0.0008646    0.0037357  
C    7.5764448    0.0002870    0.9201990  
C    8.9818048    0.0006748    0.5493907  
O    9.8878546    0.0002342    1.3724189  
C    9.3478552    0.0018086   -0.9690991  
O   10.5277196    0.0024502   -1.2934141  
C    8.2653761    0.0021244   -1.9499610  
H    5.5691192    0.0023771   -3.2813791  
H    7.3176380   -0.0004498    1.9699266  
H    8.5272595    0.0027054   -2.9993132  
H    4.7530487   -0.0011861    0.8573135  
C    0.8518586   -0.7041558   -5.2251424  
C    0.0139740    0.0003878   -4.4216236  
C   -0.8729886    0.7427330   -5.2859478  
C   -0.4803616    0.4105165   -6.6687949  
N    0.5709016   -0.4706743   -6.5627858  
C   -1.0793689    0.9102634   -7.7792669  
C   -2.1843874    1.8373743   -7.6005633  
O   -2.7886786    2.3420364   -8.5378201  
C   -2.6168947    2.2035197   -6.1449947  
O   -3.5457348    2.9832471   -5.9820786  
C   -1.8948201    1.6002144   -5.0276394  
H   -0.7759747    0.6535191   -8.7847240  
H   -2.2006131    1.8587647   -4.0229673  
H    1.6510908   -1.3741283   -4.9526460  
H    1.0576100   -0.8824758   -7.3377577  
C    2.5311839    2.1237619    3.0120429  
C    1.9795631    1.6616747    1.8395852  
C    0.9223175    0.7739173    2.1983588  
C    0.8753926    0.7337535    3.6154372  
N    1.8668922    1.5631002    4.0777464  
C   -0.0496243   -0.0427881    4.3197917  
C   -0.9437528   -0.7922060    3.5801400  
O   -1.8685244   -1.5680278    4.2172520  
C   -0.9124520   -0.7656372    2.1655264  
O   -1.8671164   -1.5663939    1.5732860  
C    0.0000000    0.0000000    1.4700000  
H    2.3005065    1.9304404    0.8477417  
H    2.0679347    1.7444845    5.0445261  
H   -0.0904770   -0.0778569    5.3997470  
H   -2.3849669   -2.0011402    3.5251786  
H   -1.7775064   -1.4909735    0.6183591  
H    3.3468514    2.8078103    3.1724291  
