58

C    7.3598030   -3.0591667   -1.6346429  
C    6.8148668   -1.8475901   -1.9160717  
C    7.9068506   -0.9085778   -2.0193369  
C    9.1414899   -1.6779302   -1.7732642  
N    8.7410191   -2.9744630   -1.5462930  
C   10.3915175   -1.1496957   -1.7835530  
C   10.5301470    0.2714642   -2.0548863  
O   11.6131179    0.8411239   -2.0859505  
C    9.2360462    1.1056391   -2.3180595  
O    9.3402457    2.3030714   -2.5473170  
C    7.9444847    0.4242190   -2.2808216  
H   11.2841328   -1.7316763   -1.6006696  
H    7.0532948    1.0088929   -2.4642907  
H    6.8685605   -4.0067525   -1.4841396  
H    9.3573500   -3.7414590   -1.3490595  
C    4.3630986   -2.0949034   -1.3110654  
C    3.1522517   -1.6320804   -1.7156885  
C    3.3924175   -0.7354492   -2.8216760  
C    4.8529069   -0.7137076   -3.0297345  
N    5.3832068   -1.5581153   -2.0817645  
C    5.4827049    0.0162382   -3.9848461  
C    4.6677390    0.8352839   -4.8666226  
O    5.1406425    1.5283994   -5.7578312  
C    3.1189444    0.8277105   -4.6641777  
O    2.4225432    1.5135518   -5.4003220  
C    2.5562217   -0.0001543   -3.6003001  
H    2.1995752   -1.8892845   -1.2880585  
H    6.5552965    0.0179179   -4.1206910  
H    4.5960548   -2.7827973   -0.5145584  
C    0.0000000    0.0000000    0.0000000  
C    1.0541688   -0.0001719   -0.8560391  
C    0.5103141   -0.0000449   -2.1935955  
C   -0.9576367    0.0002461   -2.0455733  
N   -1.2018459   -0.0001392   -0.6915970  
C   -1.8348306    0.0008319   -3.0810611  
C   -1.2972842    0.0009739   -4.4314605  
O   -2.0050664    0.0014267   -5.4301321  
C    0.2542628    0.0004190   -4.6117571  
O    0.7184677    0.0002263   -5.7439119  
C    1.0974556    0.0000880   -3.4189127  
H    2.0940752   -0.0005479   -0.5817978  
H   -2.9081050    0.0011669   -2.9507065  
H   -2.1128195    0.0014911   -0.2706793  
C    3.2798086   -0.0005857    2.9199648  
C    2.5571146   -0.0005566    4.0696553  
C    1.1637436   -0.0001548    3.6910360  
C    1.1336965    0.0000200    2.2159470  
N    2.4483514    0.0001428    1.8102719  
C    0.0000000    0.0000000    1.4700000  
C   -1.2757367    0.0000186    2.1664417  
O   -2.3524596    0.0000640    1.5842315  
C   -1.2676493    0.0000873    3.7284083  
O   -2.3355761    0.0004100    4.3257297  
C    0.0181563   -0.0001760    4.4216297  
H    2.9547357   -0.0006076    5.0689105  
H    0.0150794   -0.0003319    5.5031631  
H    4.3498549   -0.0008612    2.7900019  
H    2.7563627   -0.0012824    0.8551938  
