64

C    1.9332187   -2.1183845   -5.2802488  
C    1.0132699   -1.6573353   -4.3672340  
C    0.1425865   -0.7692370   -5.0656547  
C    0.5838243   -0.7278050   -6.4130662  
N    1.6739347   -1.5567569   -6.5085385  
C   -0.0442376    0.0493845   -7.3909742  
C   -1.1378300    0.7981578   -7.0016525  
O   -1.7886908    1.5745670   -7.9163010  
C   -1.5929067    0.7703229   -5.6618957  
O   -2.6929014    1.5705680   -5.4317595  
C   -0.9736297    0.0040464   -4.6965763  
H    0.9751833   -1.9269943   -3.3256840  
H    2.1939836   -1.7372803   -7.3481460  
H    0.2872453    0.0854199   -8.4195763  
H   -2.5110532    2.0070704   -7.4425941  
H   -2.9357434    1.4942923   -4.5039592  
C    3.4132022   -4.3109067   -1.7360455  
C    4.4598118   -4.9562281   -2.3530024  
C    4.4498051   -4.5522168   -3.7209476  
C    3.3655481   -3.6518462   -3.8810913  
N    2.7561351   -3.5290670   -2.6570984  
C    3.0549065   -3.0522595   -5.1053404  
C    3.8535468   -3.3670962   -6.1875743  
O    3.5950176   -2.8096595   -7.4063608  
C    4.9396900   -4.2635235   -6.0478246  
O    5.6394738   -4.4755465   -7.2177354  
C    5.2465628   -4.8556107   -4.8404357  
H    5.1454028   -5.6355455   -1.8760463  
H    1.9618843   -2.9474406   -2.4599760  
H    4.2610420   -3.1585116   -8.0129728  
H    6.3553401   -5.0922107   -7.0364456  
H    6.0846478   -5.5384366   -4.7640005  
H    3.0825469   -4.3475813   -0.7121895  
C    1.1188642    0.0008222   -0.8003808  
C    0.0000000    0.0000000    0.0000000  
C   -1.1323862    0.0008899   -0.8673528  
C   -0.6382663    0.0019679   -2.1969280  
N    0.7324016    0.0038481   -2.1202242  
C   -1.4770914    0.0027318   -3.3154808  
C   -2.8395473    0.0020945   -3.0876857  
O   -3.7039201    0.0024425   -4.1440349  
C   -3.3517868    0.0013931   -1.7684331  
O   -4.7300497    0.0012366   -1.7073121  
C   -2.5248543    0.0009123   -0.6644817  
H    1.3576314   -0.0056167   -2.9057046  
H   -4.5940032    0.0021826   -3.7685128  
H   -4.9934602    0.0007259   -0.7819913  
H   -2.9462577    0.0005603    0.3339659  
H    2.1619895    0.0009355   -0.5342068  
C    2.5128556    2.1077716    2.9199648  
C    1.9592212    1.6432552    4.0696553  
C    0.8915788    0.7479214    3.6910360  
C    0.8684491    0.7287414    2.2159470  
N    1.8754542    1.5738793    1.8102719  
C    0.0000000    0.0000000    1.4700000  
C   -0.9772830   -0.8200135    2.1664417  
O   -1.8021297   -1.5120829    1.5842315  
C   -0.9711318   -0.8147624    3.7284083  
O   -1.7894187   -1.5009653    4.3257297  
C    0.0140216    0.0115358    4.4216297  
H    2.2638494    1.8988021    5.0689105  
H    0.0117648    0.0094386    5.5031631  
H    3.3327358    2.7953732    2.7900019  
H    2.1123206    1.7707734    0.8551938  
