58

C    7.4800399   -3.5854377   -3.4099009  
C    7.0941059   -2.9361411   -4.5384154  
C    8.0099968   -3.3279285   -5.5836346  
C    8.9680072   -4.2654443   -4.9671369  
N    8.5920686   -4.3786531   -3.6485225  
C    9.9930502   -4.8618547   -5.6268997  
C   10.1643040   -4.5601040   -7.0383369  
O   11.0571293   -5.0465218   -7.7199230  
C    9.1614907   -3.5697699   -7.7116949  
O    9.2958700   -3.3078629   -8.8993851  
C    8.0964755   -2.9903530   -6.8969138  
H   10.6844984   -5.5466947   -5.1559414  
H    7.4061829   -2.3057324   -7.3707440  
H    7.0457688   -3.5510375   -2.4239422  
H    9.0531485   -4.9510618   -2.9652928  
C    5.9578470   -2.0116383   -4.6613364  
C    5.0861939   -1.6298118   -3.6990431  
C    4.1732077   -0.7119468   -4.3627297  
C    4.6536430   -0.6536620   -5.7600017  
N    5.6994882   -1.4135389   -5.9410642  
C    4.0070656    0.1585847   -6.7536207  
C    2.9292841    0.8795215   -6.3689497  
O    2.2294977    1.6800090   -7.1908744  
C    2.4200484    0.8415393   -4.9663106  
O    1.4341935    1.5235886   -4.6868117  
C    3.1006054    0.0006263   -3.9654951  
H    5.0652943   -1.9335816   -2.6663948  
H    4.3797396    0.1823022   -7.7672580  
H    1.5255996    2.0552509   -6.6315231  
C    3.2798083    0.0005857   -1.4499652  
C    2.5571142    0.0005565   -2.5996556  
C    1.1637432    0.0001548   -2.2210361  
C    1.1336964   -0.0000200   -0.7459473  
N    2.4483512   -0.0001428   -0.3402723  
C    0.0000000    0.0000000    0.0000000  
C   -1.2757368   -0.0000186   -0.6964415  
O   -2.3524598   -0.0000639   -0.1142311  
C   -1.2676497   -0.0000872   -2.2584083  
O   -2.3355766   -0.0004101   -2.8557295  
C    0.0181558    0.0001758   -2.9516296  
H    0.0150788    0.0003319   -4.0331631  
H    4.3498547    0.0008612   -1.3200026  
H    2.7563626    0.0012823    0.6148059  
C    2.5528530    2.1414826    2.8079335  
C    2.0663498    1.7338582    4.0032312  
C    0.9804344    0.8229586    3.6752840  
C    0.9495562    0.7966882    2.1971295  
N    1.8690446    1.5676019    1.6831036  
C    0.0000000    0.0000000    1.4700000  
C   -0.8785127   -0.7372425    2.1869543  
O   -1.8187535   -1.5261249    1.6395491  
C   -0.8723269   -0.7321790    3.6796354  
O   -1.7010379   -1.4274584    4.2670412  
C    0.1115397    0.0933559    4.4024240  
H    2.4028853    2.0163452    4.9860947  
H   -2.2861435   -1.9184361    2.3990168  
H    0.0832434    0.0693689    5.4835595  
H    3.3664920    2.8238276    2.6198634  
