60

C    3.3041280    0.0001177   -1.5420415  
C    2.5845373   -0.0004780   -0.3695841  
C    1.2040010   -0.0000008   -0.7283584  
C    1.1422390    0.0006037   -2.1454369  
N    2.4348650    0.0026109   -2.6077455  
C   -0.0655165    0.0008799   -2.8497918  
C   -1.2321762    0.0002325   -2.1101403  
O   -2.4392806    0.0001149   -2.7472532  
C   -1.1911194   -0.0000007   -0.6955272  
O   -2.4371520   -0.0002319   -0.1032873  
C    0.0000000    0.0000000    0.0000000  
H    3.0031532   -0.0000662    0.6222595  
H    2.7054644   -0.0071098   -3.5745250  
H   -0.1193533    0.0014845   -3.9297474  
H   -3.1132978   -0.0000646   -2.0551798  
H   -2.3200290   -0.0004070    0.8516399  
C    6.7370857   -0.0008256    1.2348688  
C    5.4910170   -0.0006934    0.6950653  
C    5.6537436    0.0002332   -0.7396312  
C    7.1071786    0.0006036   -0.9932397  
N    7.7077097    0.0003270    0.2446023  
C    7.6723934    0.0010656   -2.2270292  
C    6.7903730    0.0014338   -3.3822673  
O    7.2023965    0.0019211   -4.5348893  
C    5.2477335    0.0013035   -3.1371764  
O    4.4952294    0.0019171   -4.1020585  
C    4.7577228    0.0005127   -1.7610441  
H    4.5636975   -0.0010060    1.2397596  
H    7.0279692   -0.0014514    2.2727885  
H    8.6984744   -0.0010837    0.4040690  
C   10.8354514   -2.1409386   -0.1307512  
C   11.9430201   -1.7329973   -0.7929100  
C   11.4539726   -0.8217669   -1.8161358  
C    9.9882570   -0.7956717   -1.6222720  
N    9.6198161   -1.5669649   -0.6356884  
C    9.1253596    0.0012503   -2.4501662  
C    9.7005998    0.7388838   -3.4270644  
O    9.0167580    1.5280195   -4.2730349  
C   11.1769227    0.7340057   -3.6475318  
O   11.6316787    1.4296428   -4.5555556  
C   12.0407405   -0.0917753   -2.7850762  
H   12.9655987   -2.0154762   -0.6095679  
H    9.6964493    1.9205861   -4.8501511  
H   13.1050513   -0.0676428   -2.9771458  
H   10.7731151   -2.8235858    0.7017631  
C    0.8400945    0.7047457    2.2710304  
C    0.0000000    0.0000000    1.4700000  
C   -0.8844236   -0.7423113    2.3369512  
C   -0.4878984   -0.4098547    3.7186280  
N    0.5629682    0.4714286    3.6095011  
C   -1.0836927   -0.9095027    4.8308716  
C   -2.1891196   -1.8367527    4.6554461  
O   -2.7906899   -2.3413415    5.5944904  
C   -2.6257283   -2.2031529    3.2011665  
O   -3.5549479   -2.9829990    3.0410059  
C   -1.9068976   -1.5999348    2.0816745  
H   -0.7774656   -0.6525820    5.8354244  
H   -2.2155208   -1.8586617    1.0779135  
H    1.6384792    1.3747609    1.9961646  
H    1.0518368    0.8833920    4.3830260  
