58

C    3.2573672   -0.0002920   -1.5109380  
C    2.5379470   -0.0001710   -0.3591959  
C    1.1435044    0.0000331   -0.7338498  
C    1.1092609   -0.0000083   -2.2088475  
N    2.4227564    0.0001909   -2.6182609  
C   -0.0265532   -0.0002524   -2.9515660  
C   -1.3003037   -0.0002640   -2.2514978  
O   -2.3786783   -0.0004133   -2.8306423  
C   -1.2877723    0.0000311   -0.6895608  
O   -2.3539957    0.0003306   -0.0892035  
C    0.0000000    0.0000000    0.0000000  
H    2.9384091   -0.0000368    0.6389235  
H    2.7280494   -0.0013407   -3.5742112  
C    6.5597225   -0.0008210    1.3835031  
C    7.6114516   -0.0009113    0.5244682  
C    7.0637934   -0.0009870   -0.8115355  
C    5.5962696   -0.0009038   -0.6593375  
N    5.3559138   -0.0012037    0.6953281  
C    4.7161333   -0.0005436   -1.6923256  
C    5.2498355   -0.0004422   -3.0442490  
O    4.5392149   -0.0001860   -4.0409028  
C    6.8008638   -0.0007796   -3.2289589  
O    7.2618459   -0.0010043   -4.3624299  
C    7.6474470   -0.0008761   -2.0385184  
H    8.6521337   -0.0011058    0.7957497  
H    8.7203357   -0.0009046   -2.1750253  
H    6.5627891   -0.0007239    2.4614087  
H    4.4461412    0.0003272    1.1188353  
C    2.4602722   -2.0944457   -5.9392884  
C    1.9124733   -1.6318086   -4.7860502  
C    0.8432456   -0.7354859   -5.1577931  
C    0.8127885   -0.7137220   -6.6327131  
N    1.8180306   -1.5578237   -7.0448665  
C   -0.0596371    0.0159817   -7.3730582  
C   -1.0334826    0.8347246   -6.6703351  
O   -1.8613773    1.5276079   -7.2472267  
C   -1.0192493    0.8271225   -5.1084308  
O   -1.8341903    1.5127099   -4.5058519  
C   -0.0307352   -0.0004647   -4.4215603  
H    2.2221964   -1.8889425   -3.7887703  
H   -0.0651697    0.0176827   -8.4542048  
H    3.2792594   -2.7820944   -6.0745257  
H    2.0482140   -1.7553499   -8.0014469  
C    0.0000000    0.0000000    1.4700000  
C    1.0662921    0.0000102    2.3034270  
C    0.4961870   -0.0000064    3.6418889  
C   -0.9663858    0.0000850    3.4240247  
N   -1.2632773    0.0000084    2.1528658  
C   -1.8985362    0.0000517    4.5177257  
C   -1.3925775   -0.0004564    5.7720543  
O   -2.1456383   -0.0005410    6.8851312  
C    0.0786232   -0.0009323    6.0245000  
O    0.4683759   -0.0012588    7.1921102  
C    1.0143166   -0.0008442    4.8859032  
H    2.1107198   -0.0000632    2.0421868  
H   -2.9622183    0.0003270    4.3293377  
H   -1.5042274   -0.0009692    7.6184419  
H    2.0724152   -0.0013148    5.1109744  
