58

C    8.2821317   -0.0035479   -2.2216869  
C    8.5074036   -0.0044688   -3.5608387  
C    9.9392641   -0.0056328   -3.7468716  
C   10.5339808   -0.0053414   -2.3966485  
N    9.4762465   -0.0036631   -1.5168268  
C   11.8673039   -0.0065905   -2.1437621  
C   12.7773486   -0.0081123   -3.2770551  
O   13.9951385   -0.0092473   -3.1534281  
C   12.1695114   -0.0081944   -4.7159225  
O   12.9258090   -0.0091627   -5.6778345  
C   10.7160299   -0.0070481   -4.8616682  
H    7.7562460   -0.0041644   -4.3304978  
H   12.2828686   -0.0064797   -1.1456550  
H   10.3031634   -0.0073184   -5.8613002  
H    9.5589980   -0.0046357   -0.5167274  
C    5.7656457   -0.0007214   -2.0564738  
C    7.0030818   -0.0022250   -1.4971666  
C    6.8178420   -0.0019791   -0.0652022  
C    5.3606050   -0.0002254    0.1655476  
N    4.7795901    0.0008674   -1.0815733  
C    4.7760820    0.0001002    1.3903079  
C    5.6398491   -0.0011492    2.5592564  
O    5.2097730   -0.0009118    3.7052649  
C    7.1861464   -0.0027620    2.3384241  
O    7.9234036   -0.0035160    3.3150064  
C    7.6977097   -0.0032523    0.9701572  
H    3.7050038    0.0012662    1.5376176  
H    8.7695754   -0.0045760    0.8258449  
H    5.4911001   -0.0004232   -3.0988333  
C    3.3321168    0.0004716   -1.3379341  
C    2.6974177    0.0000118   -2.5332316  
C    1.2800432   -0.0002116   -2.2052842  
C    1.2395033    0.0000644   -0.7271298  
N    2.4394059    0.0005460   -0.2131041  
C    0.0000000    0.0000000    0.0000000  
C   -1.1468704    0.0000635   -0.7169542  
O   -2.3742206    0.0000074   -0.1695488  
C   -1.1388774    0.0001608   -2.2096352  
O   -2.2206238    0.0000906   -2.7970409  
C    0.1454514    0.0001818   -2.9324241  
H    3.1367978   -0.0000649   -3.5160956  
H   -2.9844350    0.0001027   -0.9290164  
H    0.1083567    0.0003684   -4.0135594  
C    2.3971438    2.0127888    3.1728260  
C    1.9431056    1.6308205    1.9564670  
C    0.8496017    0.7127664    2.2356185  
C    0.7794028    0.6545384    3.7115134  
N    1.6840587    1.4146091    4.2663826  
C   -0.1885723   -0.1578550    4.3957118  
C   -1.0476298   -0.8789867    3.6398520  
O   -2.0015663   -1.6796266    4.1448486  
C   -1.0022026   -0.8410666    2.1483229  
O   -1.8147390   -1.5232959    1.5241687  
C    0.0000000    0.0000000    1.4700000  
H    2.3054237    1.9346118    0.9892483  
H   -0.2170646   -0.1815267    5.4753125  
H   -2.4487139   -2.0549881    3.3649027  
H    3.2048689    2.6911772    3.3971983  
