62

C    1.1243407    0.0100058   -0.7919007  
C    0.7474066    0.0234635   -2.1148546  
C   -0.6787393    0.0234411   -2.1414696  
C   -1.1201748    0.0098460   -0.7935545  
N    0.0000000    0.0000000    0.0000000  
C   -2.4730817    0.0063415   -0.4408239  
C   -3.3971966    0.0170578   -1.4675052  
O   -4.7313521    0.0145698   -1.1793460  
C   -2.9763662    0.0303156   -2.8186315  
O   -4.0166492    0.0394646   -3.7247614  
C   -1.6418577    0.0335069   -3.1673477  
H   -2.8160163   -0.0041447    0.5845971  
H   -5.1938830    0.0230251   -2.0274365  
H   -3.6464689    0.0481864   -4.6127337  
H   -1.3497486    0.0435711   -4.2109230  
H    2.1062462    0.0053069   -0.3505412  
C    4.5589863   -2.0910929   -2.8627792  
C    4.8001599   -1.5802651   -4.1171146  
C    3.7183222   -0.7028983   -4.4244490  
C    2.8403834   -0.7185727   -3.3104901  
N    3.3796334   -1.5729828   -2.3810763  
C    1.6628937    0.0339103   -3.2649304  
C    1.3664289    0.8167065   -4.3638009  
O    0.2293465    1.5716845   -4.3719359  
C    2.2296833    0.8453769   -5.4848657  
O    1.7957817    1.6733904   -6.4994925  
C    3.3913348    0.1030837   -5.5306119  
H    5.6505872   -1.8123915   -4.7350817  
H    2.9826847   -1.7779454   -1.4819637  
H    0.2146736    2.0340791   -5.2200169  
H    2.4348223    1.6350081   -7.2176552  
H    5.1341877   -2.7851290   -2.2742084  
C    5.5830698   -3.0693409   -7.5602716  
C    6.1893452   -2.3978419   -8.5667993  
C    5.7698757   -1.0147055   -8.4010320  
C    4.8887576   -1.0322131   -7.2136367  
N    4.7755299   -2.2338668   -6.7164478  
C    4.2614041    0.1602479   -6.7140867  
C    4.5035983    1.3176549   -7.3706576  
O    3.9845577    2.5051366   -7.0149542  
C    5.3884384    1.3678450   -8.5717812  
O    5.5641960    2.4560535   -9.1196251  
C    6.0203103    0.1310607   -9.0647593  
H    6.8408322   -2.7923658   -9.3277139  
H    4.3372016    3.1356670   -7.6685802  
H    6.6544710    0.2096679   -9.9376234  
H    5.6406914   -4.1224236   -7.3351721  
C    2.4951002    2.0940188    2.9809380  
C    1.9440701    1.6314916    1.8291961  
C    0.8759964    0.7350050    2.2038498  
C    0.8497377    0.7130254    3.6788474  
N    1.8560616    1.5571714    4.0882609  
C   -0.0205033   -0.0168748    4.4215661  
C   -0.9962600   -0.8356168    3.7214979  
O   -1.8224391   -1.5286685    4.3006425  
C   -0.9864710   -0.8277881    2.1595606  
O   -1.8030528   -1.5133726    1.5592035  
C    0.0000000    0.0000000    1.4700000  
H    2.2509283    1.8888011    0.8310761  
H   -0.0229599   -0.0187323    5.5027230  
H    3.3143982    2.7817323    3.1139444  
H    2.0889452    1.7545833    5.0442112  
