60

C    0.0000000    0.0000000    0.0000000  
C   -1.0521667   -0.0016055   -0.8862345  
C   -0.4917236   -0.0001107   -2.1979131  
C    0.9187400    0.0021264   -2.0478682  
N    1.1833105    0.0040852   -0.7007912  
C    1.7951670    0.0037350   -3.1372086  
C    1.2375809    0.0027660   -4.4010424  
O    2.0474185    0.0039042   -5.4997578  
C   -0.1673607    0.0009121   -4.5711964  
O   -0.5673558    0.0005614   -5.8915551  
C   -1.0325795   -0.0004022   -3.4969891  
H   -2.0953065   -0.0025024   -0.6200561  
H    2.0989964   -0.0046601   -0.2891826  
H    2.8710893    0.0055868   -3.0295509  
H    1.4634850    0.0032391   -6.2693593  
H   -1.5290741   -0.0007473   -5.9180046  
C   -2.4861732   -0.0020676   -3.7159923  
C   -3.4691561   -0.0035200   -2.7857657  
C   -4.7077449   -0.0047757   -3.5489147  
C   -4.2744162   -0.0037263   -4.9627069  
N   -2.9732131   -0.0022185   -5.0669059  
C   -5.2170376   -0.0045453   -6.0473962  
C   -6.5327451   -0.0067204   -5.7339563  
O   -7.5212075   -0.0076998   -6.6444411  
C   -7.0015536   -0.0081977   -4.3167841  
O   -8.2141985   -0.0100364   -4.1053340  
C   -6.0150658   -0.0072747   -3.2219032  
H   -3.3664317   -0.0038053   -1.7140733  
H   -8.3418915   -0.0092707   -6.1194385  
H   -6.3952615   -0.0085148   -2.2091449  
C   -1.9005554   -2.1064315   -8.0137021  
C   -2.0590091   -1.6415421   -9.2797373  
C   -3.1929880   -0.7479061   -9.2612234  
C   -3.6857063   -0.7301289   -7.8706468  
N   -2.8595742   -1.5743757   -7.1652092  
C   -4.7478919   -0.0031764   -7.4405226  
C   -5.4530221    0.8162542   -8.4120472  
O   -6.4215748    1.5067420   -8.1231987  
C   -4.9486883    0.8124654   -9.8903697  
O   -5.5345711    1.4981934  -10.7172790  
C   -3.7925836   -0.0119460  -10.2333270  
H   -1.4510221   -1.8957746  -10.1296378  
H   -3.4495573   -0.0088445  -11.2590206  
H   -1.1640040   -2.7931210   -7.6292032  
H   -2.9396110   -1.7718608   -6.1845761  
C    1.0965515   -0.0001358    2.2710304  
C    0.0000000    0.0000000    1.4700000  
C   -1.1546562   -0.0001469    2.3369512  
C   -0.6372014   -0.0003519    3.7186280  
N    0.7342871   -0.0007337    3.6095011  
C   -1.4147739   -0.0001353    4.8308716  
C   -2.8576048    0.0001048    4.6554461  
O   -3.6427778    0.0002493    5.5944904  
C   -3.4275839    0.0000726    3.2011665  
O   -4.6406829   -0.0000333    3.0410059  
C   -2.4891866    0.0001091    2.0816745  
H   -1.0150448   -0.0001615    5.8354244  
H   -2.8919121    0.0002919    1.0779135  
H    2.1388271   -0.0000662    1.9961646  
H    1.3735872    0.0006099    4.3830260  
