58

C    3.2573670   -0.0002919   -1.5109384  
C    2.5379470   -0.0001709   -0.3591964  
C    1.1435040    0.0000332   -0.7338499  
C    1.1092606   -0.0000081   -2.2088477  
N    2.4227557    0.0001910   -2.6182611  
C   -0.0265536   -0.0002523   -2.9515660  
C   -1.3003033   -0.0002639   -2.2514979  
O   -2.3786789   -0.0004131   -2.8306421  
C   -1.2877726    0.0000312   -0.6895605  
O   -2.3539963    0.0003307   -0.0892032  
C    0.0000000    0.0000000    0.0000000  
H    2.9384088   -0.0000368    0.6389234  
H   -0.0296296   -0.0004084   -4.0327231  
H    2.7280488   -0.0013406   -3.5742118  
C    6.5597225   -0.0008211    1.3835019  
C    7.6114516   -0.0009114    0.5244672  
C    7.0637934   -0.0009870   -0.8115365  
C    5.5962697   -0.0009038   -0.6593383  
N    5.3559138   -0.0012037    0.6953274  
C    4.7161330   -0.0005435   -1.6923262  
C    5.2498357   -0.0004420   -3.0442496  
O    4.5392143   -0.0001858   -4.0409036  
C    6.8008630   -0.0007795   -3.2289598  
O    7.2618453   -0.0010041   -4.3624308  
C    7.6474465   -0.0008760   -2.0385193  
H    8.6521344   -0.0011059    0.7957486  
H    6.5627891   -0.0007240    2.4614077  
H    4.4461413    0.0003271    1.1188351  
C   10.0063226   -0.7057532   -1.4918400  
C    9.1056904   -0.0009149   -2.2240563  
C    9.8541075    0.7414486   -3.2107698  
C   11.2747711    0.4089218   -2.9918321  
N   11.2991200   -0.4724480   -1.9356672  
C   12.3029398    0.9085910   -3.7232038  
C   11.9894282    1.8359396   -4.7975738  
O   12.8450545    2.3405547   -5.5128144  
C   10.4916861    2.2024154   -5.0471084  
O   10.2155526    2.9823448   -5.9486185  
C    9.4718527    1.5991658   -4.1927774  
H   13.3381002    0.6516177   -3.5462368  
H    8.4371752    1.8579455   -4.3722212  
H    9.8343986   -1.3758290   -0.6652020  
H   12.1281469   -0.8844734   -1.5483726  
C    2.5128556    2.1077716    2.9199648  
C    1.9592212    1.6432552    4.0696553  
C    0.8915788    0.7479214    3.6910360  
C    0.8684491    0.7287414    2.2159470  
N    1.8754542    1.5738793    1.8102719  
C    0.0000000    0.0000000    1.4700000  
C   -0.9772830   -0.8200135    2.1664417  
O   -1.8021297   -1.5120829    1.5842315  
C   -0.9711318   -0.8147624    3.7284083  
O   -1.7894187   -1.5009653    4.3257297  
C    0.0140216    0.0115358    4.4216297  
H    2.2638494    1.8988021    5.0689105  
H    0.0117648    0.0094386    5.5031631  
H    3.3327358    2.7953732    2.7900019  
H    2.1123206    1.7707734    0.8551938  
