58

C    6.6685704   -0.0005965    0.8976881  
C    7.6427401   -0.0013903   -0.0483928  
C    6.9825042   -0.0021114   -1.3324971  
C    5.5334437   -0.0016402   -1.0549828  
N    5.4101705   -0.0011222    0.3153067  
C    4.5679461   -0.0016852   -2.0086700  
C    4.9837201   -0.0024604   -3.4013893  
O    4.1902299   -0.0026236   -4.3334165  
C    6.5131876   -0.0032213   -3.7184579  
O    6.8752472   -0.0041837   -4.8872919  
C    7.4587617   -0.0028164   -2.6050207  
H    8.7028563   -0.0016447    0.1326236  
H    8.5159862   -0.0031429   -2.8330514  
H    6.7640836    0.0001114    1.9713577  
H    4.5400774    0.0008358    0.8152880  
C    3.1301152   -0.0010311   -1.7028251  
C    2.5367770   -0.0002766   -0.4864665  
C    1.1089905    0.0001028   -0.7656183  
C    1.0177873   -0.0004148   -2.2415130  
N    2.1993580   -0.0011610   -2.7963820  
C   -0.2459208   -0.0002877   -2.9257119  
C   -1.3675318   -0.0000605   -2.1698523  
O   -2.6129310    0.0000866   -2.6748492  
C   -1.3083584    0.0000911   -0.6783232  
O   -2.3693259    0.0004206   -0.0541692  
C    0.0000000    0.0000000    0.0000000  
H    3.0096019   -0.0001007    0.4807529  
H   -3.1967440    0.0002093   -1.8949035  
C    2.0407271   -2.0139644   -6.1785247  
C    1.6287202   -1.6317250   -4.9473775  
C    0.5264184   -0.7135550   -5.1890262  
C    0.4056596   -0.6555637   -6.6616555  
N    1.2906479   -1.4158619   -7.2470890  
C   -0.5850917    0.1568591   -7.3123995  
C   -1.4176220    0.8782452   -6.5276509  
O   -2.3881997    1.6789425   -6.9997777  
C   -1.3210813    0.8405682   -5.0385498  
O   -2.1116396    1.5230229   -4.3870181  
C   -0.2963281   -0.0005339   -4.3948471  
H    2.0239486   -1.9354082   -3.9930992  
H   -0.6505842    0.1803542   -8.3903925  
H   -2.8082857    2.0545013   -6.2050223  
H    2.8401862   -2.6925106   -6.4303451  
C    2.5528530    2.1414826    2.8079335  
C    2.0663498    1.7338582    4.0032312  
C    0.9804344    0.8229586    3.6752840  
C    0.9495562    0.7966882    2.1971295  
N    1.8690446    1.5676019    1.6831036  
C    0.0000000    0.0000000    1.4700000  
C   -0.8785127   -0.7372425    2.1869543  
O   -1.8187535   -1.5261249    1.6395491  
C   -0.8723269   -0.7321790    3.6796354  
O   -1.7010379   -1.4274584    4.2670412  
C    0.1115397    0.0933559    4.4024240  
H    2.4028853    2.0163452    4.9860947  
H   -2.2861435   -1.9184361    2.3990168  
H    0.0832434    0.0693689    5.4835595  
H    3.3664920    2.8238276    2.6198634  
