60

C   -3.3040082    0.0281028   -1.5420424  
C   -2.5844392    0.0225525   -0.3695848  
C   -1.2039567    0.0102840   -0.7283588  
C   -1.1422016    0.0091521   -2.1454372  
N   -2.4347980    0.0181853   -2.6077461  
C    0.0655074   -0.0014395   -2.8497915  
C    1.2321298   -0.0107566   -2.1101402  
O    2.4391913   -0.0209488   -2.7472522  
C    1.1910763   -0.0101726   -0.6955267  
O    2.4370656   -0.0205839   -0.1032868  
C    0.0000000    0.0000000    0.0000000  
H   -3.0030432    0.0257161    0.6222587  
H   -2.7053039    0.0302169   -3.5745259  
H    0.1193376   -0.0025040   -3.9297473  
H    3.1131857   -0.0265260   -2.0551788  
H    2.3199472   -0.0194084    0.8516408  
C   -6.5768786    0.0597326    1.3345549  
C   -7.6642453    0.0682250    0.5288622  
C   -7.1288299    0.0618786   -0.8238352  
C   -5.6611848    0.0494045   -0.6437050  
N   -5.3316589    0.0480115    0.6193867  
C   -4.7575533    0.0401229   -1.7610452  
C   -5.2956403    0.0427756   -3.0019279  
O   -4.5715316    0.0349887   -4.1340262  
C   -6.7728039    0.0549057   -3.2164052  
O   -7.1924933    0.0568115   -4.3735903  
C   -7.6788208    0.0643183   -2.0540930  
H   -5.2315990    0.0394294   -4.8505765  
H   -8.7423303    0.0728702   -2.2518429  
H   -6.5490989    0.0608174    2.4126091  
C   -9.6215309    0.7916415    1.9450918  
C   -9.0805972    0.0809490    0.9221638  
C  -10.1589560   -0.6528194    0.3028405  
C  -11.3812421   -0.3088691    1.0541760  
N  -10.9873163    0.5702354    2.0364628  
C  -12.6166200   -0.7981900    0.7782928  
C  -12.7513732   -1.7256600   -0.3326419  
O  -13.8214614   -2.2214142   -0.6604238  
C  -11.4701516   -2.1041354   -1.1419835  
O  -11.5711941   -2.8842764   -2.0792300  
C  -10.1939761   -1.5114515   -0.7496146  
H  -13.5003581   -0.5329338    1.3418139  
H   -9.3116574   -1.7785042   -1.3152304  
H   -9.1372936    1.4583397    2.6400144  
H  -11.5982516    0.9883199    2.7139664  
C    0.0000000    0.0000000    1.4700000  
C    1.0541688    0.0001722    2.3260392  
C    0.5103138    0.0000454    3.6635956  
C   -0.9576371   -0.0002459    3.5155732  
N   -1.2018458    0.0001392    2.1615969  
C   -1.8348311   -0.0008317    4.5510609  
C   -1.2972847   -0.0009736    5.9014604  
O   -2.0050672   -0.0014265    6.9001319  
C    0.2542623   -0.0004184    6.0817573  
O    0.7184670   -0.0002256    7.2139121  
C    1.0974552   -0.0000873    4.8889129  
H    2.0940752    0.0005483    2.0517982  
H   -2.9081052   -0.0011668    4.4207061  
H    2.1707277    0.0000911    5.0223670  
H   -2.1128194   -0.0014912    1.7406791  
