58

C   -3.2798029    0.0063919   -1.4499639  
C   -2.5571108    0.0048836   -2.5996547  
C   -1.1637416    0.0023210   -2.2210357  
C   -1.1336939    0.0024319   -0.7459466  
N   -2.4483458    0.0053516   -0.3402715  
C    0.0000000    0.0000000    0.0000000  
C    1.2757346   -0.0026954   -0.6964421  
O    2.3524543   -0.0049407   -0.1142321  
C    1.2676459   -0.0026095   -2.2584085  
O    2.3355707   -0.0045586   -2.8557302  
C   -0.0181573   -0.0001372   -2.9516295  
H   -2.9547309    0.0056785   -3.5989099  
H   -0.0150808   -0.0002997   -4.0331627  
H   -2.7563593    0.0045817    0.6148069  
C   -5.6938737    0.0108177   -2.2318610  
C   -4.7390768    0.0091207   -1.2727267  
C   -5.4706431    0.0104355   -0.0152260  
C   -6.8949440    0.0130857   -0.4126470  
N   -7.0320304    0.0132408   -1.7107983  
C   -7.9554355    0.0149724    0.5571164  
C   -7.6088093    0.0138557    1.8644737  
O   -8.4939924    0.0153761    2.8756557  
C   -6.1802327    0.0108136    2.2972787  
O   -5.9381702    0.0100655    3.5041863  
C   -5.1106619    0.0089649    1.2834049  
H   -7.9483958    0.0139753    3.6827956  
H   -4.0886110    0.0066589    1.6378569  
H   -5.5602417    0.0105648   -3.3019615  
C  -10.0715578   -2.0739495   -2.7070627  
C   -9.1327757   -1.6135205   -1.8405937  
C   -9.8041310   -0.7159620   -0.9303707  
C  -11.2211567   -0.6910667   -1.3404996  
N  -11.3170753   -1.5347198   -2.4230611  
C  -12.1861443    0.0405692   -0.7279526  
C  -11.8035440    0.8582359    0.4111582  
O  -12.5993114    1.5526871    1.0298606  
C  -10.3082804    0.8473253    0.8626811  
O   -9.9742474    1.5319813    1.8202449  
C   -9.3599822    0.0178700    0.1233660  
H   -8.0890619   -1.8728933   -1.8393483  
H  -13.2198828    0.0445586   -1.0446199  
H   -9.9582518   -2.7616567   -3.5293221  
H  -12.1621341   -1.7303202   -2.9277019  
C    2.5128556    2.1077716    2.9199648  
C    1.9592212    1.6432552    4.0696553  
C    0.8915788    0.7479214    3.6910360  
C    0.8684491    0.7287414    2.2159470  
N    1.8754542    1.5738793    1.8102719  
C    0.0000000    0.0000000    1.4700000  
C   -0.9772830   -0.8200135    2.1664417  
O   -1.8021297   -1.5120829    1.5842315  
C   -0.9711318   -0.8147624    3.7284083  
O   -1.7894187   -1.5009653    4.3257297  
C    0.0140216    0.0115358    4.4216297  
H    2.2638494    1.8988021    5.0689105  
H    0.0117648    0.0094386    5.5031631  
H    3.3327358    2.7953732    2.7900019  
H    2.1123206    1.7707734    0.8551938  
