58

C   -3.1006031    0.0045270   -3.9654945  
C   -4.3965723    0.0056728   -4.3711273  
C   -4.3857772    0.0060526   -5.8149829  
C   -2.9671149    0.0049974   -6.2201826  
N   -2.2396157    0.0045017   -5.0524351  
C   -2.5349194    0.0045925   -7.5066163  
C   -3.5336489    0.0054652   -8.5625876  
O   -3.2452488    0.0052508   -9.7521777  
C   -5.0419157    0.0068413   -8.1564672  
O   -5.8918103    0.0078910   -9.0367741  
C   -5.3843416    0.0068865   -6.7363983  
H   -5.2613997    0.0063751   -3.7318427  
H   -6.4309049    0.0076377   -6.4635839  
H   -1.2375701    0.0022108   -4.9981503  
C   -3.2798055    0.0048657   -1.4499646  
C   -2.5571122    0.0036935   -2.5996551  
C   -1.1637424    0.0017793   -2.2210357  
C   -1.1336951    0.0019042   -0.7459471  
N   -2.4483478    0.0042124   -0.3402715  
C    0.0000000    0.0000000    0.0000000  
C    1.2757349   -0.0021020   -0.6964420  
O    2.3524563   -0.0038463   -0.1142321  
C    1.2676476   -0.0020200   -2.2584083  
O    2.3355731   -0.0034723   -2.8557303  
C   -0.0181567   -0.0001461   -2.9516296  
H   -0.0150802   -0.0003072   -4.0331630  
H   -4.3498504    0.0063689   -1.3200016  
H   -2.7563611    0.0032992    0.6148065  
C    0.9274672   -2.1061579   -5.8214015  
C    1.8983757   -1.6424880   -6.6499071  
C    1.2607995   -0.7466109   -7.5857153  
C   -0.1714060   -0.7261898   -7.2319343  
N   -0.3076152   -1.5712007   -6.1547653  
C   -1.1135162    0.0033606   -7.8814646  
C   -0.6885954    0.8229972   -9.0040389  
O   -1.4612947    1.5157291   -9.6531601  
C    0.8232982    0.8164358   -9.3963907  
O    1.1928039    1.5023113  -10.3399485  
C    1.7441012   -0.0106518   -8.6205688  
H    2.9420555   -1.8989367   -6.6101560  
H    2.7893066   -0.0094606   -8.8985404  
H    1.0102748   -2.7938240   -4.9954791  
H   -1.1708891   -1.7673446   -5.6821842  
C    2.5528530    2.1414826    2.8079335  
C    2.0663498    1.7338582    4.0032312  
C    0.9804344    0.8229586    3.6752840  
C    0.9495562    0.7966882    2.1971295  
N    1.8690446    1.5676019    1.6831036  
C    0.0000000    0.0000000    1.4700000  
C   -0.8785127   -0.7372425    2.1869543  
O   -1.8187535   -1.5261249    1.6395491  
C   -0.8723269   -0.7321790    3.6796354  
O   -1.7010379   -1.4274584    4.2670412  
C    0.1115397    0.0933559    4.4024240  
H    2.4028853    2.0163452    4.9860947  
H   -2.2861435   -1.9184361    2.3990168  
H    0.0832434    0.0693689    5.4835595  
H    3.3664920    2.8238276    2.6198634  
