58

C    4.1680876    0.5526793   -7.3416862  
C    5.1909954   -0.2809511   -7.0210693  
C    6.1044776   -0.2759016   -8.1392652  
C    5.5257718    0.6355618   -9.1448118  
N    4.3524770    1.1044483   -8.6003722  
C    6.0905812    0.9120206  -10.3474192  
C    7.3525692    0.2687775  -10.6732424  
O    7.9404566    0.4528476  -11.7309789  
C    7.9834220   -0.7004776   -9.6233020  
O    9.0455310   -1.2480773   -9.8865923  
C    7.2806461   -0.9188609   -8.3614520  
H    5.2937891   -0.8361991   -6.1057845  
H    5.6496027    1.5838064  -11.0707115  
H    7.7242122   -1.5912658   -7.6397565  
H    3.7275208    1.7498040   -9.0475789  
C    2.8279729   -0.7071296   -3.3541665  
C    1.6707636   -0.0012343   -3.2725974  
C    1.5420226    0.7399975   -4.5050083  
C    2.7275728    0.4056547   -5.3170902  
N    3.4672609   -0.4755791   -4.5626513  
C    2.9773528    0.9038683   -6.5544657  
C    2.0143743    1.8314547   -7.1243707  
O    2.1493684    2.3348416   -8.2319258  
C    0.7517068    2.1998418   -6.2818938  
O   -0.0658604    2.9799880   -6.7511674  
C    0.5920513    1.5980567   -4.9604491  
H   -0.2850559    1.8581558   -4.3835994  
H    3.2676543   -1.3768500   -2.6330256  
H    4.3364880   -0.8886230   -4.8470555  
C    1.0965514    0.0001358   -0.8010306  
C    0.0000000    0.0000000    0.0000000  
C   -1.1546565    0.0001470   -0.8669508  
C   -0.6372019    0.0003520   -2.2486278  
N    0.7342867    0.0007338   -2.1395012  
C   -1.4147744    0.0001354   -3.3608712  
C   -2.8576052   -0.0001047   -3.1854454  
O   -3.6427785   -0.0002490   -4.1244896  
C   -3.4275841   -0.0000727   -1.7311660  
O   -4.6406832    0.0000333   -1.5710049  
C   -2.4891868   -0.0001090   -0.6116739  
H   -1.0150456    0.0001617   -4.3654239  
H   -2.8919122   -0.0002919    0.3920871  
H    2.1388270    0.0000663   -0.5261650  
C    0.8400945    0.7047457    2.2710304  
C    0.0000000    0.0000000    1.4700000  
C   -0.8844236   -0.7423113    2.3369512  
C   -0.4878984   -0.4098547    3.7186280  
N    0.5629682    0.4714286    3.6095011  
C   -1.0836927   -0.9095027    4.8308716  
C   -2.1891196   -1.8367527    4.6554461  
O   -2.7906899   -2.3413415    5.5944904  
C   -2.6257283   -2.2031529    3.2011665  
O   -3.5549479   -2.9829990    3.0410059  
C   -1.9068976   -1.5999348    2.0816745  
H   -0.7774656   -0.6525820    5.8354244  
H   -2.2155208   -1.8586617    1.0779135  
H    1.6384792    1.3747609    1.9961646  
H    1.0518368    0.8833920    4.3830260  
