58

C    4.6190969   -2.0899188   -2.8279648  
C    3.4606683   -1.6280059   -2.2906058  
C    2.8761398   -0.7301695   -3.2586201  
C    3.7955633   -0.7067285   -4.4122677  
N    4.8319965   -1.5514033   -4.0878914  
C    3.5979912    0.0246975   -5.5381828  
C    2.3999526    0.8436572   -5.6190797  
O    2.1321345    1.5380346   -6.5908892  
C    1.4124499    0.8342974   -4.4088912  
O    0.4006156    1.5200497   -4.4654209  
C    1.7334695    0.0049281   -3.2500363  
H    3.0613134   -1.8865704   -1.3260992  
H    4.2848597    0.0276106   -6.3731161  
H    5.6204864   -1.7480986   -4.6766545  
C    5.5958113   -3.0286415   -2.2572387  
C    5.5747714   -3.6603031   -1.0553088  
C    6.7677982   -4.4705650   -0.9846086  
C    7.4908089   -4.2576277   -2.2529559  
N    6.7276108   -3.3736287   -2.9802558  
C    8.6698388   -4.8478024   -2.5743361  
C    9.2664376   -5.7533209   -1.6065337  
O   10.3261666   -6.3337274   -1.8025049  
C    8.5179744   -5.9938008   -0.2568010  
O    9.0104281   -6.7543022    0.5656269  
C    7.2535391   -5.3002076   -0.0244594  
H    4.8106149   -3.5691901   -0.3040585  
H    9.1838158   -4.6778911   -3.5102137  
H    6.7416998   -5.4719782    0.9126848  
H    6.9583741   -3.0302431   -3.8945215  
C    1.1319246    0.0015678   -0.8009268  
C    0.7969914    0.0034958   -2.1169401  
C   -0.6453340    0.0035696   -2.1842669  
C   -1.1266832    0.0015410   -0.7896025  
N    0.0000000    0.0000000    0.0000000  
C   -2.4346129    0.0013913   -0.4276292  
C   -3.4350111    0.0031335   -1.4820181  
O   -4.6384614    0.0030875   -1.2583914  
C   -2.9478961    0.0050442   -2.9661074  
O   -3.7809382    0.0062135   -3.8623773  
C   -1.5113825    0.0053055   -3.2312122  
H   -2.7664565    0.0000174    0.6013448  
H   -1.1823533    0.0068381   -4.2614848  
H    2.1104316    0.0009435   -0.3488059  
C    2.5128556    2.1077716    2.9199648  
C    1.9592212    1.6432552    4.0696553  
C    0.8915788    0.7479214    3.6910360  
C    0.8684491    0.7287414    2.2159470  
N    1.8754542    1.5738793    1.8102719  
C    0.0000000    0.0000000    1.4700000  
C   -0.9772830   -0.8200135    2.1664417  
O   -1.8021297   -1.5120829    1.5842315  
C   -0.9711318   -0.8147624    3.7284083  
O   -1.7894187   -1.5009653    4.3257297  
C    0.0140216    0.0115358    4.4216297  
H    2.2638494    1.8988021    5.0689105  
H    0.0117648    0.0094386    5.5031631  
H    3.3327358    2.7953732    2.7900019  
H    2.1123206    1.7707734    0.8551938  
