60

C    0.9084728   -0.7026188   -5.2310923  
C    0.0950450    0.0004357   -4.4015596  
C   -0.8199519    0.7412617   -5.2374982  
C   -0.4704277    0.4097770   -6.6320383  
N    0.5851831   -0.4695827   -6.5592184  
C   -1.1049297    0.9085152   -7.7230795  
C   -2.2053959    1.8336914   -7.5096328  
O   -2.8397405    2.3373302   -8.4273772  
C   -2.5925522    2.1990332   -6.0411510  
O   -3.5171674    2.9771340   -5.8490365  
C   -1.8346475    1.5969506   -4.9471082  
H   -0.8328575    0.6523341   -8.7376020  
H   -2.1091449    1.8549340   -3.9332936  
H    1.7170451   -1.3712051   -4.9839234  
H    1.0479967   -0.8805086   -7.3491493  
C    3.3321174    0.0004722   -1.3379336  
C    2.6974183    0.0000122   -2.5332313  
C    1.2800441   -0.0002113   -2.2052840  
C    1.2395036    0.0000646   -0.7271298  
N    2.4394063    0.0005463   -0.2131037  
C    0.0000000    0.0000000    0.0000000  
C   -1.1468699    0.0000637   -0.7169543  
O   -2.3742201    0.0000076   -0.1695489  
C   -1.1388769    0.0001611   -2.2096357  
O   -2.2206234    0.0000908   -2.7970412  
C    0.1454523    0.0001820   -2.9324241  
H    3.1367987   -0.0000643   -3.5160945  
H   -2.9844345    0.0001025   -0.9290168  
C    6.8354435    0.0008793   -4.0255231  
C    5.5758878    0.0005999   -3.5179854  
C    5.7016163    0.0007911   -2.0795738  
C    7.1480386    0.0012368   -1.7886227  
N    7.7802458    0.0008706   -3.0105902  
C    7.6812952    0.0019206   -0.5406880  
C    6.7698194    0.0020125    0.5914546  
O    7.1520256    0.0025453    1.7543040  
C    5.2340030    0.0012942    0.3067216  
O    4.4569020    0.0010581    1.2519064  
C    4.7795905    0.0008679   -1.0815729  
H    4.6629021    0.0001126   -4.0863779  
H    8.7453481    0.0023685   -0.3491108  
H    7.1529574    0.0008738   -5.0556076  
H    8.7747886    0.0025952   -3.1444921  
C    0.8576279    0.7185626    2.2703808  
C    0.0000000    0.0000000    1.4700000  
C   -0.8668858   -0.7285659    2.3373528  
C   -0.4876752   -0.4117774    3.6669281  
N    0.5635254    0.4678311    3.5902241  
C   -1.1297612   -0.9515493    4.7854808  
C   -2.1738724   -1.8268314    4.5576857  
O   -2.8357962   -2.3827064    5.6140350  
C   -2.5667212   -2.1555554    3.2384331  
O   -3.6226318   -3.0413663    3.1773122  
C   -1.9335634   -1.6236449    2.1344818  
H    1.0363952    0.8769718    4.3757045  
H   -0.8454472   -0.7142436    5.8013813  
H   -3.5178062   -2.9546422    5.2385129  
H   -3.8247440   -3.2102924    2.2519915  
H   -2.2566033   -1.8942483    1.1360343  
H    1.6567807    1.3889844    2.0042067  
