58

C    5.6145216   -1.0870134   -8.5627749  
C    5.1118931   -0.0090902   -7.9073959  
C    5.2776844    1.1291955   -8.7801244  
C    5.9227009    0.6224306  -10.0064734  
N    6.1002449   -0.7277964   -9.8108836  
C    6.2487137    1.3899098  -11.0771728  
C    5.9441857    2.8098595  -11.0176669  
O    6.1986800    3.5845100  -11.9306012  
C    5.2614063    3.3682357   -9.7285461  
O    5.0004971    4.5621268   -9.6668160  
C    4.9581988    2.4423827   -8.6401004  
H    6.7213626    0.9982979  -11.9672019  
H    4.4852466    2.8369181   -7.7510658  
H    5.6711591   -2.1135525   -8.2388941  
H    6.5165128   -1.3559138  -10.4736335  
C    6.1837010   -2.1071894   -4.1730100  
C    6.1473624   -1.6429265   -5.4486332  
C    5.0179318   -0.7478965   -5.5388751  
C    4.3948021   -0.7286186   -4.2016659  
N    5.1487785   -1.5734154   -3.4201754  
C    3.2973506   -0.0000934   -3.8752374  
C    2.6891816    0.8195676   -4.9100425  
O    1.6983689    1.5114228   -4.7152918  
C    3.3322636    0.8142071   -6.3334965  
O    2.8288281    1.5001137   -7.2128968  
C    4.5147646   -0.0118351   -6.5641428  
H    6.8333445   -1.8984502   -6.2365098  
H    6.8793287   -2.7945273   -3.7196245  
H    4.9752873   -1.7701682   -2.4515493  
C    3.3321174    0.0004714   -1.3379332  
C    2.6974186    0.0000115   -2.5332308  
C    1.2800441   -0.0002119   -2.2052838  
C    1.2395035    0.0000643   -0.7271293  
N    2.4394063    0.0005458   -0.2131034  
C    0.0000000    0.0000000    0.0000000  
C   -1.1468701    0.0000634   -0.7169542  
O   -2.3742201    0.0000072   -0.1695492  
C   -1.1388767    0.0001606   -2.2096354  
O   -2.2206229    0.0000903   -2.7970413  
C    0.1454526    0.0001815   -2.9324239  
H   -2.9844344    0.0001023   -0.9290168  
H    0.1083580    0.0003680   -4.0135594  
H    4.3940040    0.0007617   -1.1498630  
C    2.5528530    2.1414826    2.8079335  
C    2.0663498    1.7338582    4.0032312  
C    0.9804344    0.8229586    3.6752840  
C    0.9495562    0.7966882    2.1971295  
N    1.8690446    1.5676019    1.6831036  
C    0.0000000    0.0000000    1.4700000  
C   -0.8785127   -0.7372425    2.1869543  
O   -1.8187535   -1.5261249    1.6395491  
C   -0.8723269   -0.7321790    3.6796354  
O   -1.7010379   -1.4274584    4.2670412  
C    0.1115397    0.0933559    4.4024240  
H    2.4028853    2.0163452    4.9860947  
H   -2.2861435   -1.9184361    2.3990168  
H    0.0832434    0.0693689    5.4835595  
H    3.3664920    2.8238276    2.6198634  
