60

C    1.1188643    0.0008223   -0.8003800  
C    0.0000000    0.0000000    0.0000000  
C   -1.1323863    0.0008900   -0.8673525  
C   -0.6382660    0.0019680   -2.1969276  
N    0.7324020    0.0038481   -2.1202235  
C   -1.4770910    0.0027320   -3.3154805  
C   -2.8395474    0.0020946   -3.0876854  
O   -3.7039197    0.0024427   -4.1440346  
C   -3.3517868    0.0013932   -1.7684330  
O   -4.7300490    0.0012368   -1.7073125  
C   -2.5248544    0.0009124   -0.6644815  
H    1.3576317   -0.0056168   -2.9057037  
H   -4.5940029    0.0021830   -3.7685132  
H   -4.9934599    0.0007264   -0.7819921  
H   -2.9462577    0.0005604    0.3339654  
H    2.1619894    0.0009352   -0.5342064  
C    1.8906703   -2.0861101   -5.2626198  
C    0.9779264   -1.6251676   -4.3690284  
C    0.1016437   -0.7294207   -5.0863857  
C    0.5821191   -0.7061486   -6.4811585  
N    1.6688571   -1.5489157   -6.5215722  
C    0.0179716    0.0235401   -7.4766469  
C   -1.1395629    0.8406742   -7.1527017  
O   -1.7182901    1.5334123   -7.9794359  
C   -1.6653058    0.8314585   -5.6818803  
O   -2.6389757    1.5156844   -5.3971650  
C   -0.9736291    0.0040466   -4.6965759  
H    0.9247008   -1.8830608   -3.3263054  
H    2.7068313   -2.7728805   -5.1073203  
H    2.2153077   -1.7452386   -7.3400443  
C    0.5182900    0.0273768   -8.8588793  
C    1.5713279   -0.6549438   -9.3659588  
C    1.6155268   -0.2854685  -10.7723849  
C    0.4859991    0.6527664  -10.9469313  
N   -0.1608197    0.8400919   -9.8286627  
C    0.1856683    1.2540244  -12.2171184  
C    0.9779643    0.9328962  -13.2652018  
O    0.8134817    1.4192806  -14.5071426  
C    2.1257193   -0.0104921  -13.1208500  
O    2.8045422   -0.2573895  -14.1175757  
C    2.4132927   -0.6141837  -11.8075396  
H    2.2360672   -1.3260220   -8.8493818  
H   -0.6461174    1.9361340  -12.3159517  
H    1.5261353    1.0097801  -15.0301980  
H    3.2536527   -1.2924638  -11.7446044  
C    2.5128556    2.1077716    2.9199648  
C    1.9592212    1.6432552    4.0696553  
C    0.8915788    0.7479214    3.6910360  
C    0.8684491    0.7287414    2.2159470  
N    1.8754542    1.5738793    1.8102719  
C    0.0000000    0.0000000    1.4700000  
C   -0.9772830   -0.8200135    2.1664417  
O   -1.8021297   -1.5120829    1.5842315  
C   -0.9711318   -0.8147624    3.7284083  
O   -1.7894187   -1.5009653    4.3257297  
C    0.0140216    0.0115358    4.4216297  
H    2.2638494    1.8988021    5.0689105  
H    0.0117648    0.0094386    5.5031631  
H    3.3327358    2.7953732    2.7900019  
H    2.1123206    1.7707734    0.8551938  
