62

C    1.1188644    0.0008218   -0.8003806  
C    0.0000000    0.0000000    0.0000000  
C   -1.1323862    0.0008904   -0.8673524  
C   -0.6382659    0.0019684   -2.1969279  
N    0.7324023    0.0038479   -2.1202238  
C   -1.4770905    0.0027325   -3.3154809  
C   -2.8395470    0.0020959   -3.0876862  
O   -3.7039190    0.0024444   -4.1440355  
C   -3.3517864    0.0013947   -1.7684336  
O   -4.7300490    0.0012388   -1.7073134  
C   -2.5248545    0.0009136   -0.6644822  
H   -1.1067562    0.0036994   -4.3313813  
H   -4.5940024    0.0021851   -3.7685137  
H   -4.9934600    0.0007285   -0.7819922  
H   -2.9462579    0.0005615    0.3339652  
H    2.1619896    0.0009344   -0.5342063  
C    4.5426431   -2.1280495   -2.8244665  
C    4.7840755   -1.6433690   -4.0890858  
C    3.7027657   -0.7718641   -4.4144291  
C    2.8248675   -0.7640009   -3.3003562  
N    3.3636316   -1.5993789   -2.3535224  
C    1.6478441   -0.0100105   -3.2702994  
C    1.3518132    0.7501211   -4.3850829  
O    0.2151967    1.5054730   -4.4087629  
C    2.2150350    0.7551134   -5.5065284  
O    1.7815991    1.5622767   -6.5380153  
C    3.3762265    0.0113170   -5.5369816  
H    5.6343323   -1.8887260   -4.7021579  
H    2.9665967   -1.7854951   -1.4503582  
H    0.2007708    1.9502737   -5.2662066  
H    2.4205842    1.5086851   -7.2552535  
H    4.0176576    0.0350468   -6.4101832  
C    8.3308786   -4.2151980   -3.5836907  
C    8.4534869   -4.8914736   -2.4124975  
C    7.3043768   -4.5507473   -1.6073347  
C    6.4964492   -3.6138369   -2.4112269  
N    7.1735585   -3.4515556   -3.5978514  
C    5.3275166   -3.0594331   -2.0014244  
C    4.8321816   -3.4086412   -0.6803519  
O    3.7894338   -2.9620400   -0.2204328  
C    5.6716908   -4.3988247    0.1883054  
O    5.2648463   -4.6999892    1.3023244  
C    6.9157269   -4.9310143   -0.3621500  
H    9.2572781   -5.5533220   -2.1432574  
H    7.4910174   -5.6161657    0.2455772  
H    8.9887232   -4.2102659   -4.4375677  
H    6.8722727   -2.8697433   -4.3579619  
C    2.5128556    2.1077716    2.9199648  
C    1.9592212    1.6432552    4.0696553  
C    0.8915788    0.7479214    3.6910360  
C    0.8684491    0.7287414    2.2159470  
N    1.8754542    1.5738793    1.8102719  
C    0.0000000    0.0000000    1.4700000  
C   -0.9772830   -0.8200135    2.1664417  
O   -1.8021297   -1.5120829    1.5842315  
C   -0.9711318   -0.8147624    3.7284083  
O   -1.7894187   -1.5009653    4.3257297  
C    0.0140216    0.0115358    4.4216297  
H    2.2638494    1.8988021    5.0689105  
H    0.0117648    0.0094386    5.5031631  
H    3.3327358    2.7953732    2.7900019  
H    2.1123206    1.7707734    0.8551938  
