60

C   -0.3475984    1.0635007   -0.8003803  
C    0.0000000    0.0000000    0.0000000  
C    0.3501620   -1.0768871   -0.8673523  
C    0.1959735   -0.6074384   -2.1969276  
N   -0.2306831    0.6951354   -2.1202235  
C    0.4552593   -1.4051844   -3.3154805  
C    0.8781887   -2.7003362   -3.0876855  
O    1.1457887   -3.5222424   -4.1440351  
C    1.0376356   -3.1871284   -1.7684326  
O    1.4650070   -4.4974569   -1.7073122  
C    0.7817669   -2.4007771   -0.6644814  
H   -0.4154881    1.2925036   -2.9057036  
H    1.4219368   -4.3684050   -3.7685131  
H    1.5471424   -4.7477352   -0.7819918  
H    0.9127248   -2.8013158    0.3339653  
H   -0.6710458    2.0552119   -0.5342058  
C    1.3279961    2.3939411   -5.4763640  
C    1.2278548    1.4739118   -4.4888937  
C    0.6450942    0.3026108   -5.1252453  
C    0.4523334    0.7019820   -6.5358938  
N    0.8508958    1.9268350   -6.7477262  
C   -0.1100449   -0.1925692   -7.5098525  
C   -0.4634190   -1.4299792   -7.0935863  
O   -0.9995530   -2.3666398   -7.8943789  
C   -0.2810452   -1.8628765   -5.6767233  
O   -0.6251394   -3.0037903   -5.3682831  
C    0.2979504   -0.9269279   -4.6965757  
H    1.5141776    1.5772973   -3.4562241  
H   -0.2397453    0.1258650   -8.5339072  
H   -1.1421315   -3.1364754   -7.3145705  
C    2.3464709    4.3969509   -4.2974739  
C    1.8522933    3.7643559   -5.3870570  
C    1.9509894    4.7383644   -6.4631919  
C    2.5428760    5.9358454   -5.8289256  
N    2.7769509    5.7416493   -4.5594822  
C    2.8058298    7.1382588   -6.5706424  
C    2.4921221    7.1439924   -7.8862752  
O    2.6833144    8.1971605   -8.6988773  
C    1.8940061    5.9511843   -8.5553247  
O    1.6336063    6.0273848   -9.7559924  
C    1.6337828    4.7297008   -7.7729000  
H    3.2388767    7.9985475   -6.0814766  
H    2.3649239    7.8991568   -9.5700689  
H    1.1996939    3.8872871   -8.2945663  
H    2.4465299    4.0126365   -3.2948456  
C    0.8681109    0.7263879    2.2709268  
C    0.6127770    0.5096195    3.5869401  
C   -0.4920590   -0.4175482    3.6542670  
C   -0.8620974   -0.7254003    2.2596025  
N    0.0000000    0.0000000    1.4700000  
C   -1.8641242   -1.5660088    1.8976294  
C   -2.6293522   -2.2103885    2.9520183  
O   -3.5512764   -2.9839180    2.7283916  
C   -2.2549728   -1.8987399    4.4361073  
O   -2.8923672   -2.4351063    5.3323774  
C   -1.1543735   -0.9755647    4.7012123  
H    1.1382914    0.9492124    4.4159191  
H   -2.1192137   -1.7782617    0.8686553  
H   -0.9013378   -0.7652422    5.7314848  
H    1.6172880    1.3558399    1.8188057  
