58

C    1.0965515    0.0001360   -0.8010307  
C    0.0000000    0.0000000    0.0000000  
C   -1.1546563    0.0001472   -0.8669511  
C   -0.6372017    0.0003524   -2.2486278  
N    0.7342869    0.0007340   -2.1395012  
C   -1.4147741    0.0001358   -3.3608716  
C   -2.8576051   -0.0001044   -3.1854456  
O   -3.6427780   -0.0002487   -4.1244900  
C   -3.4275842   -0.0000722   -1.7311660  
O   -4.6406833    0.0000335   -1.5710051  
C   -2.4891865   -0.0001088   -0.6116743  
H   -2.8919121   -0.0002918    0.3920869  
H    2.1388271    0.0000664   -0.5261648  
H    1.3735870   -0.0006094   -2.9130262  
C    1.9957409   -2.1407946   -5.0258946  
C    1.9855622   -1.7332332   -6.3163865  
C    0.8551744   -0.8225474   -6.4132066  
C    0.2799730   -0.7963189   -5.0512082  
N    0.9444049   -1.5670709   -4.2336137  
C   -0.8712830    0.0001717   -4.7267109  
C   -1.4226090    0.7372654   -5.7177037  
O   -2.4987602    1.5259561   -5.5567517  
C   -0.8649837    0.7322393   -7.1023299  
O   -1.4179259    1.4273760   -7.9545387  
C    0.3165519   -0.0930913   -7.4101073  
H   -2.6523128    1.9181971   -6.4352280  
H    0.6899756   -0.0690833   -8.4250994  
H    2.6823199   -2.8229899   -4.5502983  
C    3.9731854   -5.5137711   -7.5897013  
C    3.2106661   -4.6357245   -6.8974740  
C    3.3881764   -3.3641198   -7.5815876  
C    4.3147847   -3.6654645   -8.6938689  
N    4.6610987   -4.9240186   -8.7037670  
C    4.7462574   -2.6546944   -9.6197538  
C    4.2732339   -1.4000009   -9.4427555  
O    4.5921550   -0.3594652  -10.2311809  
C    3.3365638   -1.0644647   -8.3299993  
O    2.9462531    0.0985866   -8.2290566  
C    2.9087503   -2.1188225   -7.3933934  
H    2.6027411   -4.8273067   -6.0298339  
H    5.4241757   -2.9030299  -10.4232868  
H    4.1032075    0.3950037   -9.8558687  
H    4.1123166   -6.5661921   -7.3998976  
C    2.5128556    2.1077716    2.9199648  
C    1.9592212    1.6432552    4.0696553  
C    0.8915788    0.7479214    3.6910360  
C    0.8684491    0.7287414    2.2159470  
N    1.8754542    1.5738793    1.8102719  
C    0.0000000    0.0000000    1.4700000  
C   -0.9772830   -0.8200135    2.1664417  
O   -1.8021297   -1.5120829    1.5842315  
C   -0.9711318   -0.8147624    3.7284083  
O   -1.7894187   -1.5009653    4.3257297  
C    0.0140216    0.0115358    4.4216297  
H    2.2638494    1.8988021    5.0689105  
H    0.0117648    0.0094386    5.5031631  
H    3.3327358    2.7953732    2.7900019  
H    2.1123206    1.7707734    0.8551938  
