60

C   -3.3041267   -0.0001796   -1.5420443  
C   -2.5845374    0.0004295   -0.3695862  
C   -1.2040004   -0.0000218   -0.7283594  
C   -1.1422371   -0.0006252   -2.1454380  
N   -2.4348630   -0.0026566   -2.6077474  
C    0.0655192   -0.0008787   -2.8497916  
C    1.2321779   -0.0002094   -2.1101396  
O    2.4392822   -0.0000691   -2.7472515  
C    1.1911210    0.0000230   -0.6955265  
O    2.4371523    0.0002776   -0.1032860  
C    0.0000000    0.0000000    0.0000000  
H   -3.0031536    0.0000097    0.6222571  
H   -2.7054619    0.0070591   -3.5745273  
H    0.1193559   -0.0014823   -3.9297475  
H    3.1132992    0.0001231   -2.0551781  
H    2.3200281    0.0004506    0.8516414  
C   -6.9078748    0.0011109    1.0804434  
C   -5.6166937    0.0004840    0.6749432  
C   -5.6800153   -0.0005099   -0.7784975  
C   -7.1258510   -0.0004504   -1.0885654  
N   -7.8505609    0.0005785   -0.0028466  
C   -7.6141440   -0.0012469   -2.4401036  
C   -6.6996197   -0.0016766   -3.4365871  
O   -7.0134390   -0.0024350   -4.7433227  
C   -5.2335518   -0.0013776   -3.1558629  
O   -4.4582985   -0.0019247   -4.1120022  
C   -4.7577215   -0.0006022   -1.7610478  
H   -4.7307116    0.0007629    1.2865897  
H   -8.6761776   -0.0013901   -2.6375732  
H   -6.1552189   -0.0025520   -5.2044222  
C   -7.4245177    0.0022153    2.4566624  
C   -6.7191652    0.0028610    3.6116764  
C   -7.7233125    0.0038450    4.6643811  
C   -9.0160087    0.0037599    3.9463828  
N   -8.8472014    0.0027257    2.6519752  
C  -10.2730811    0.0045401    4.6426982  
C  -10.2402445    0.0049788    5.9948286  
O  -11.3364620    0.0057239    6.7722263  
C   -8.9516247    0.0047055    6.7482341  
O   -8.9971028    0.0052596    7.9783365  
C   -7.6754566    0.0039463    6.0111328  
H   -5.6495532    0.0026005    3.7341745  
H  -11.2026933    0.0046645    4.0924894  
H  -10.9936987    0.0058522    7.6841835  
H   -6.7639641    0.0036541    6.5937223  
C    0.8681109    0.7263879    2.2709268  
C    0.6127770    0.5096195    3.5869401  
C   -0.4920590   -0.4175482    3.6542670  
C   -0.8620974   -0.7254003    2.2596025  
N    0.0000000    0.0000000    1.4700000  
C   -1.8641242   -1.5660088    1.8976294  
C   -2.6293522   -2.2103885    2.9520183  
O   -3.5512764   -2.9839180    2.7283916  
C   -2.2549728   -1.8987399    4.4361073  
O   -2.8923672   -2.4351063    5.3323774  
C   -1.1543735   -0.9755647    4.7012123  
H    1.1382914    0.9492124    4.4159191  
H   -2.1192137   -1.7782617    0.8686553  
H   -0.9013378   -0.7652422    5.7314848  
H    1.6172880    1.3558399    1.8188057  
