58

C   -3.2941074    0.0012873   -2.9038244  
C   -4.0168013    0.0014138   -1.7541335  
C   -5.4101724    0.0018621   -2.1327530  
C   -5.4402193    0.0019581   -3.6078421  
N   -4.1255645    0.0019956   -4.0135170  
C   -6.5739159    0.0019522   -4.3537889  
C   -7.8496532    0.0020703   -3.6573473  
O   -8.9263753    0.0021358   -4.2395574  
C   -7.8415650    0.0022235   -2.0953809  
O   -8.9094924    0.0026302   -1.4980594  
C   -6.5557598    0.0019360   -1.4021593  
H   -3.6191804    0.0013980   -0.7548788  
H   -6.5588369    0.0018390   -0.3206263  
H   -3.8175533    0.0005036   -4.9685951  
C    0.0000000    0.0000000    0.0000000  
C    1.0541687   -0.0001723   -0.8560393  
C    0.5103135   -0.0000455   -2.1935956  
C   -0.9576373    0.0002459   -2.0455732  
N   -1.2018461   -0.0001392   -0.6915970  
C   -1.8348312    0.0008316   -3.0810609  
C   -1.2972850    0.0009736   -4.4314604  
O   -2.0050673    0.0014264   -5.4301320  
C    0.2542625    0.0004184   -4.6117573  
O    0.7184672    0.0002257   -5.7439122  
C    1.0974555    0.0000873   -3.4189131  
H    2.0940747   -0.0005483   -0.5817983  
H    2.1707282   -0.0000911   -3.5523672  
H   -2.1128196    0.0014912   -0.2706795  
C   -5.7338553   -0.7029575   -6.6247811  
C   -6.5739159    0.0018723   -5.8237887  
C   -7.4583038    0.7441791   -6.6907806  
C   -7.0617945    0.4116283   -8.0724387  
N   -6.0109704   -0.4696998   -7.9632647  
C   -7.6575646    0.9112445   -9.1847095  
C   -8.7629472    1.8385572   -9.0093353  
O   -9.3644930    2.3431241   -9.9484068  
C   -9.1995378    2.2050577   -7.5550753  
O  -10.1287204    2.9849574   -7.3949567  
C   -8.4807368    1.6018657   -6.4355505  
H   -7.3513498    0.6542544  -10.1892484  
H   -8.7893467    1.8606620   -5.4318038  
H   -4.9355029   -1.3729962   -6.3498790  
H   -5.5221215   -0.8817288   -8.7367666  
C    3.1301144    0.0010313    3.1728260  
C    2.5367765    0.0002768    1.9564670  
C    1.1089900   -0.0001027    2.2356185  
C    1.0177864    0.0004150    3.7115134  
N    2.1993570    0.0011613    4.2663826  
C   -0.2459220    0.0002880    4.3957118  
C   -1.3675327    0.0000606    3.6398520  
O   -2.6129319   -0.0000866    4.1448486  
C   -1.3083589   -0.0000910    2.1483229  
O   -2.3693264   -0.0004206    1.5241687  
C    0.0000000    0.0000000    1.4700000  
H    3.0096015    0.0001008    0.9892483  
H   -0.2829642    0.0004689    5.4753125  
H   -3.1967446   -0.0002093    3.3649027  
H    4.1849273    0.0015113    3.3971983  
