60

C    3.3041270    0.0001178   -1.5420432  
C    2.5845372   -0.0004779   -0.3695853  
C    1.2040007   -0.0000006   -0.7283591  
C    1.1422373    0.0006039   -2.1454374  
N    2.4348636    0.0026110   -2.6077466  
C   -0.0655186    0.0008800   -2.8497915  
C   -1.2321770    0.0002326   -2.1101397  
O   -2.4392818    0.0001149   -2.7472515  
C   -1.1911209   -0.0000006   -0.6955262  
O   -2.4371522   -0.0002319   -0.1032858  
C    0.0000000    0.0000000    0.0000000  
H    3.0031535   -0.0000661    0.6222580  
H    2.7054625   -0.0071097   -3.5745263  
H   -3.1132993   -0.0000646   -2.0551781  
H   -2.3200286   -0.0004070    0.8516413  
C    5.7131782    0.0002338   -0.7960716  
C    4.7577214    0.0005130   -1.7610465  
C    5.4429744    0.0015566   -3.0319762  
C    6.8863227    0.0018356   -2.7261408  
N    6.9827408    0.0013999   -1.3537004  
C    7.8703096    0.0023648   -3.6607394  
C    7.4818859    0.0029067   -5.0613331  
O    8.2934751    0.0034659   -5.9776440  
C    5.9589201    0.0028756   -5.4082897  
O    5.6198168    0.0036356   -6.5839898  
C    4.9917258    0.0019988   -4.3135815  
H    8.9232040    0.0024314   -3.4151314  
H    3.9391681    0.0017776   -4.5622707  
H    5.5966605   -0.0005085    0.2755219  
H    7.8428775   -0.0001032   -0.8367767  
C    2.2991554   -2.1048097   -5.8924429  
C    1.6888956   -1.6397492   -7.0128789  
C    0.6412937   -0.7448181   -6.5810641  
C    0.6916331   -0.7264670   -5.1066422  
N    1.7177148   -1.5716516   -4.7520878  
C   -0.1387086    0.0017020   -4.3179679  
C   -1.1495782    0.8219302   -4.9644225  
O   -1.9445183    1.5135267   -4.3414737  
C   -1.2212027    0.8175536   -6.5247612  
O   -2.0683181    1.5039444   -7.0802108  
C   -0.2716616   -0.0081808   -7.2666415  
H    1.9434327   -1.8946828   -8.0262068  
H   -0.3277644   -0.0054792   -8.3467194  
H    3.1245930   -2.7923373   -5.8038523  
H    2.0018696   -1.7690375   -3.8100996  
C    0.8681109    0.7263879    2.2709268  
C    0.6127770    0.5096195    3.5869401  
C   -0.4920590   -0.4175482    3.6542670  
C   -0.8620974   -0.7254003    2.2596025  
N    0.0000000    0.0000000    1.4700000  
C   -1.8641242   -1.5660088    1.8976294  
C   -2.6293522   -2.2103885    2.9520183  
O   -3.5512764   -2.9839180    2.7283916  
C   -2.2549728   -1.8987399    4.4361073  
O   -2.8923672   -2.4351063    5.3323774  
C   -1.1543735   -0.9755647    4.7012123  
H    1.1382914    0.9492124    4.4159191  
H   -2.1192137   -1.7782617    0.8686553  
H   -0.9013378   -0.7652422    5.7314848  
H    1.6172880    1.3558399    1.8188057  
