60

C    0.0000000    0.0000000    0.0000000  
C    1.0521663   -0.0012045   -0.8862348  
C    0.4917207   -0.0012024   -2.1979137  
C   -0.9187436    0.0003273   -2.0478681  
N   -1.1833172   -0.0009251   -0.7007908  
C   -1.7951715    0.0010596   -3.1372085  
C   -1.2375856    0.0005393   -4.4010423  
O   -2.0474234    0.0015638   -5.4997572  
C    0.1673564   -0.0013591   -4.5711968  
O    0.5673498   -0.0020764   -5.8915551  
C    1.0325757   -0.0023552   -3.4969898  
H    2.0953052   -0.0030934   -0.6200571  
H   -2.0989776    0.0102657   -0.2891816  
H   -1.4634914    0.0006698   -6.2693588  
H    1.5290683   -0.0033362   -5.9180052  
H    2.1042128   -0.0039896   -3.6584466  
C   -4.3329539    2.1450432   -0.3175470  
C   -5.5711353    1.7385772   -0.6826101  
C   -5.3537974    0.8274321   -1.7957493  
C   -3.8860875    0.7997670   -1.9736439  
N   -3.2823388    1.5701406   -1.1099302  
C   -3.2578665    0.0024482   -2.9908495  
C   -4.0594235   -0.7340647   -3.7935882  
O   -3.6090990   -1.5234087   -4.7836311  
C   -5.5440664   -0.7275914   -3.6388163  
O   -6.2117205   -1.4222667   -4.4049003  
C   -6.1645247    0.0985679   -2.5879038  
H   -6.5153407    2.0219728   -0.2498991  
H   -4.4116988   -1.9149746   -5.1730693  
H   -4.0641638    2.8271623    0.4733000  
C   -8.4685938    1.1004817   -2.2321573  
C   -7.6302186    0.0673626   -2.4798900  
C   -8.4961347   -1.0934638   -2.6183532  
C   -9.8627015   -0.5649570   -2.4189532  
N   -9.8528729    0.7205407   -2.1922632  
C  -11.0222246   -1.4116994   -2.4791185  
C  -10.8255215   -2.7265780   -2.7275884  
O  -11.8160043   -3.6310167   -2.8111002  
C   -9.4587171   -3.2901092   -2.9335974  
O   -9.3543298   -4.4963751   -3.1555139  
C   -8.2852455   -2.4010376   -2.8669640  
H  -12.0090587   -0.9986167   -2.3293494  
H  -11.3660345   -4.4751591   -2.9957711  
H   -7.3124255   -2.8480933   -3.0218603  
H   -8.2161260    2.1360581   -2.0684032  
C    0.0000000    0.0000000    1.4700000  
C    1.0541688    0.0001722    2.3260392  
C    0.5103138    0.0000454    3.6635956  
C   -0.9576371   -0.0002459    3.5155732  
N   -1.2018458    0.0001392    2.1615969  
C   -1.8348311   -0.0008317    4.5510609  
C   -1.2972847   -0.0009736    5.9014604  
O   -2.0050672   -0.0014265    6.9001319  
C    0.2542623   -0.0004184    6.0817573  
O    0.7184670   -0.0002256    7.2139121  
C    1.0974552   -0.0000873    4.8889129  
H    2.0940752    0.0005483    2.0517982  
H   -2.9081052   -0.0011668    4.4207061  
H    2.1707277    0.0000911    5.0223670  
H   -2.1128194   -0.0014912    1.7406791  
