60

C    0.0000000    0.0000000    0.0000000  
C    1.0521660   -0.0011918   -0.8862350  
C    0.4917206   -0.0011967   -2.1979136  
C   -0.9187440    0.0003156   -2.0478678  
N   -1.1833172   -0.0009399   -0.7007906  
C   -1.7951717    0.0010367   -3.1372082  
C   -1.2375861    0.0005233   -4.4010419  
O   -2.0474247    0.0015378   -5.4997566  
C    0.1673555   -0.0013574   -4.5711968  
O    0.5673487   -0.0020701   -5.8915553  
C    1.0325751   -0.0023429   -3.4969898  
H    2.0953048   -0.0030676   -0.6200572  
H   -2.0989778    0.0102397   -0.2891813  
H   -1.4634923    0.0006510   -6.2693584  
H    1.5290673   -0.0033179   -5.9180050  
H    2.1042129   -0.0039640   -3.6584469  
C   -4.4484687    2.1113854   -0.3461900  
C   -5.6480020    1.6479731   -0.7825889  
C   -5.3783986    0.7523481   -1.8825917  
C   -3.9129606    0.7317941   -2.0524714  
N   -3.4082509    1.5764952   -1.0908907  
C   -3.2578670    0.0024074   -2.9908490  
C   -4.0489156   -0.8169001   -3.8939064  
O   -3.5523696   -1.5094645   -4.7725973  
C   -5.6025030   -0.8101926   -3.7322701  
O   -6.2789691   -1.4957913   -4.4869952  
C   -6.1934228    0.0166945   -2.6830211  
H   -7.2698083    0.0156059   -2.5775851  
H   -4.2368791    2.7988181    0.4566523  
H   -2.4341518    1.7724853   -0.9502995  
C   -7.2939441    5.4587217    0.6500340  
C   -8.5380281    5.0466094    1.0056929  
C   -8.6111586    3.6332375    0.7195681  
C   -7.2982774    3.2529809    0.1641058  
N   -6.5458039    4.4046815    0.1480124  
C   -6.9652715    1.9985186   -0.2322983  
C   -7.9668325    0.9531418   -0.1034650  
O   -7.7637149   -0.2081585   -0.4327462  
C   -9.3641432    1.3333123    0.4820258  
O  -10.2154943    0.4616996    0.5949524  
C   -9.6048008    2.7195885    0.8746751  
H   -9.3157948    5.6624745    1.4209067  
H  -10.5748234    2.9745441    1.2793700  
H   -6.8607813    6.4438058    0.7122370  
H   -5.5983492    4.4691298   -0.1763690  
C    1.1319247   -0.0015655    2.2709268  
C    0.7969915   -0.0034943    3.5869401  
C   -0.6453339   -0.0035710    3.6542670  
C   -1.1266833   -0.0015433    2.2596025  
N    0.0000000    0.0000000    1.4700000  
C   -2.4346130   -0.0013964    1.8976294  
C   -3.4350110   -0.0031408    2.9520183  
O   -4.6384611   -0.0030974    2.7283916  
C   -2.9478959   -0.0050506    4.4361073  
O   -3.7809380   -0.0062218    5.3323774  
C   -1.5113823   -0.0053090    4.7012123  
H    1.4821238   -0.0045407    4.4159191  
H   -2.7664565   -0.0000232    0.8686553  
H   -1.1823530   -0.0068408    5.7314848  
H    2.1104316   -0.0009391    1.8188057  
