58

C    1.2510660   -0.8707096   -9.5483056  
C    0.7572365    0.1909460   -8.8604861  
C    0.8939489    1.3467054   -9.7151004  
C    1.5123129    0.8679222  -10.9661726  
N    1.7037613   -0.4844351  -10.8007428  
C    1.8068942    1.6578593  -12.0296230  
C    1.4942464    3.0741785  -11.9356705  
O    1.7211296    3.8677825  -12.8395609  
C    0.8393109    3.6031007  -10.6199559  
O    0.5718619    4.7936833  -10.5291517  
C    0.5690384    2.6546527   -9.5423425  
H    2.2603605    1.2865930  -12.9381597  
H    0.1152250    3.0288583   -8.6347375  
H    1.3225695   -1.9027506   -9.2455371  
H    2.1080156   -1.0968658  -11.4852535  
C    2.0552330   -2.0117600   -5.3319188  
C    1.1441931   -1.6301399   -4.4067424  
C    0.2595428   -0.7123100   -5.1078001  
C    0.7977760   -0.6538171   -6.4838335  
N    1.8503502   -1.4135517   -6.6212388  
C    0.1930640    0.1584617   -7.5034476  
C   -0.8998975    0.8792303   -7.1639457  
O   -1.5649249    1.6797246   -8.0142323  
C   -1.4671326    0.8410360   -5.7837474  
O   -2.4638604    1.5229394   -5.5454999  
C   -0.8287665    0.0000939   -4.7555305  
H    1.0803198   -1.9340247   -3.3758933  
H   -2.2915646    2.0548233   -7.4846584  
H    2.8844094   -2.6899005   -5.2071571  
C    1.0672569   -0.0000698   -0.8321910  
C    0.0000000    0.0000000    0.0000000  
C   -1.1601223   -0.0000736   -0.8778472  
C   -0.5938729   -0.0000768   -2.2438435  
N    0.7113367   -0.0001553   -2.2234123  
C   -1.4286985   -0.0001877   -3.4135239  
C   -2.7683113   -0.0006798   -3.2270524  
O   -3.6653902   -0.0008302   -4.2276970  
C   -3.3702024   -0.0010610   -1.8610774  
O   -4.5974910   -0.0013779   -1.7662963  
C   -2.4926825   -0.0008943   -0.6770658  
H   -4.5324245   -0.0012258   -3.7833954  
H   -2.9677772   -0.0012974    0.2947961  
H    2.1134391   -0.0000547   -0.5705119  
C    0.0000000    0.0000000    1.4700000  
C    1.0662921    0.0000102    2.3034270  
C    0.4961870   -0.0000064    3.6418889  
C   -0.9663858    0.0000850    3.4240247  
N   -1.2632773    0.0000084    2.1528658  
C   -1.8985362    0.0000517    4.5177257  
C   -1.3925775   -0.0004564    5.7720543  
O   -2.1456383   -0.0005410    6.8851312  
C    0.0786232   -0.0009323    6.0245000  
O    0.4683759   -0.0012588    7.1921102  
C    1.0143166   -0.0008442    4.8859032  
H    2.1107198   -0.0000632    2.0421868  
H   -2.9622183    0.0003270    4.3293377  
H   -1.5042274   -0.0009692    7.6184419  
H    2.0724152   -0.0013148    5.1109744  
