58

C   -3.2564933   -0.0753714   -1.5109401  
C   -2.5372651   -0.0587815   -0.3591977  
C   -1.1431940   -0.0265950   -0.7338499  
C   -1.1089594   -0.0257581   -2.2088479  
N   -2.4220956   -0.0564676   -2.6182624  
C    0.0265429    0.0008690   -2.9515654  
C    1.2999493    0.0304678   -2.2514961  
O    2.3780299    0.0556659   -2.8306401  
C    1.2874272    0.0298817   -0.6895587  
O    2.3533682    0.0543488   -0.0892012  
C    0.0000000    0.0000000    0.0000000  
H   -2.9376172   -0.0682177    0.6389222  
H    0.0296151    0.0010967   -4.0327227  
H   -4.3258812   -0.1000337   -1.6439470  
C   -2.8692340   -0.0646125   -4.0185844  
C   -4.1382163   -0.0929371   -4.4881166  
C   -4.0024086   -0.0876894   -5.9365735  
C   -2.5432733   -0.0538598   -6.1739839  
N   -1.8738740   -0.0402895   -5.0533991  
C   -1.9882244   -0.0392198   -7.4994244  
C   -2.8515942   -0.0579316   -8.5403741  
O   -2.4729926   -0.0474336   -9.8297895  
C   -4.3294565   -0.0925291   -8.3332821  
O   -5.0557853   -0.1079941   -9.3269760  
C   -4.8742247   -0.1069443   -6.9639963  
H   -5.0534033   -0.1147935   -3.9215207  
H   -0.9179393   -0.0142420   -7.6435613  
H   -3.3068801   -0.0661914  -10.3332101  
C   -7.0639824    0.5672362   -5.8736732  
C   -8.3934343    0.3195120   -5.9972267  
C   -8.5485539   -0.6102493   -7.0909891  
C   -7.1907579   -0.8858883   -7.5981429  
N   -6.3365469   -0.1412591   -6.8179245  
C   -6.9106235   -1.7189741   -8.6321629  
C   -8.0205037   -2.3886739   -9.2895849  
O   -7.8715994   -3.1578361  -10.2300726  
C   -9.4669144   -2.1113221   -8.7692211  
O  -10.4093198   -2.6691996   -9.3150281  
C   -9.6428180   -1.1933170   -7.6466453  
H   -9.1761253    0.7402403   -5.3914239  
H   -5.9074173   -1.9074437   -8.9884853  
H  -10.6474758   -1.0068100   -7.2922391  
H   -6.5544712    1.2079348   -5.1723934  
C    2.4951002    2.0940188    2.9809380  
C    1.9440701    1.6314916    1.8291961  
C    0.8759964    0.7350050    2.2038498  
C    0.8497377    0.7130254    3.6788474  
N    1.8560616    1.5571714    4.0882609  
C   -0.0205033   -0.0168748    4.4215661  
C   -0.9962600   -0.8356168    3.7214979  
O   -1.8224391   -1.5286685    4.3006425  
C   -0.9864710   -0.8277881    2.1595606  
O   -1.8030528   -1.5133726    1.5592035  
C    0.0000000    0.0000000    1.4700000  
H    2.2509283    1.8888011    0.8310761  
H   -0.0229599   -0.0187323    5.5027230  
H    3.3143982    2.7817323    3.1139444  
H    2.0889452    1.7545833    5.0442112  
