58

C    2.8177471   -1.8449277   -7.5276301  
C    3.9035340   -2.6585148   -7.5843567  
C    4.4121412   -2.5883224   -8.9338855  
C    3.5273340   -1.6604762   -9.6639596  
N    2.5813486   -1.2452627   -8.7553336  
C    3.6739915   -1.3265438  -10.9711258  
C    4.7767613   -1.9207943  -11.7082165  
O    4.9930961   -1.6834277  -12.8893832  
C    5.7261336   -2.9063535  -10.9551089  
O    6.6578355   -3.4130870  -11.5653673  
C    5.4666641   -3.1883612   -9.5455004  
H    4.3025143   -3.2414522   -6.7734243  
H    3.0138542   -0.6437189  -11.4877292  
H    6.1287545   -3.8716743   -9.0312592  
H    1.8354477   -0.6037011   -8.9530145  
C    2.0663728   -2.0930018   -5.1167673  
C    1.0931323   -1.6308353   -4.2901597  
C    0.2706809   -0.7345479   -5.0680273  
C    0.8486733   -0.7122924   -6.4253108  
N    1.9347265   -1.5561044   -6.3884392  
C    0.3570947    0.0175291   -7.4584692  
C   -0.8196660    0.8358893   -7.2175209  
O   -1.3377655    1.5288423   -8.0833674  
C   -1.4481800    0.8277637   -5.7875875  
O   -2.4388902    1.5130257   -5.5727159  
C   -0.8287665    0.0000939   -4.7555305  
H    0.9660022   -1.8882581   -3.2537304  
H    0.7960897    0.0195932   -8.4464912  
H    2.8688294   -2.7804816   -4.9038721  
C    1.0672569   -0.0000698   -0.8321910  
C    0.0000000    0.0000000    0.0000000  
C   -1.1601223   -0.0000736   -0.8778472  
C   -0.5938729   -0.0000768   -2.2438435  
N    0.7113367   -0.0001553   -2.2234123  
C   -1.4286985   -0.0001877   -3.4135239  
C   -2.7683113   -0.0006798   -3.2270524  
O   -3.6653902   -0.0008302   -4.2276970  
C   -3.3702024   -0.0010610   -1.8610774  
O   -4.5974910   -0.0013779   -1.7662963  
C   -2.4926825   -0.0008943   -0.6770658  
H   -4.5324245   -0.0012258   -3.7833954  
H   -2.9677772   -0.0012974    0.2947961  
H    2.1134391   -0.0000547   -0.5705119  
C    2.4951002    2.0940188    2.9809380  
C    1.9440701    1.6314916    1.8291961  
C    0.8759964    0.7350050    2.2038498  
C    0.8497377    0.7130254    3.6788474  
N    1.8560616    1.5571714    4.0882609  
C   -0.0205033   -0.0168748    4.4215661  
C   -0.9962600   -0.8356168    3.7214979  
O   -1.8224391   -1.5286685    4.3006425  
C   -0.9864710   -0.8277881    2.1595606  
O   -1.8030528   -1.5133726    1.5592035  
C    0.0000000    0.0000000    1.4700000  
H    2.2509283    1.8888011    0.8310761  
H   -0.0229599   -0.0187323    5.5027230  
H    3.3143982    2.7817323    3.1139444  
H    2.0889452    1.7545833    5.0442112  
