58

C   -1.0965395   -0.0050990   -0.8010311  
C    0.0000000    0.0000000    0.0000000  
C    1.1546455    0.0050791   -0.8669506  
C    0.6371975    0.0025319   -2.2486278  
N   -0.7342757   -0.0040574   -2.1395013  
C    1.4147611    0.0062678   -3.3608708  
C    2.8575760    0.0130382   -3.1854450  
O    3.6427410    0.0167364   -4.1244892  
C    3.4275490    0.0155860   -1.7311656  
O    4.6406359    0.0209708   -1.5710040  
C    2.4891608    0.0113753   -0.6116737  
H    1.0150363    0.0044323   -4.3654240  
H    2.8918810    0.0133809    0.3920873  
H   -2.1388044   -0.0097469   -0.5261651  
C   -1.6707518   -0.0063280   -3.2725976  
C   -3.0235979   -0.0114807   -3.2357233  
C   -3.4368361   -0.0114926   -4.6306192  
C   -2.1706841   -0.0057487   -5.3944319  
N   -1.1320355   -0.0027828   -4.6037428  
C   -2.1489282   -0.0040833   -6.8313070  
C   -3.3380031   -0.0083678   -7.4758356  
O   -3.4666342   -0.0074346   -8.8135555  
C   -4.6328347   -0.0145809   -6.7331827  
O   -5.6770931   -0.0181275   -7.3848972  
C   -4.6287204   -0.0161351   -5.2594442  
H   -3.6622239   -0.0149467   -2.3689930  
H   -4.4281979   -0.0113267   -8.9701850  
H   -5.5876908   -0.0207991   -4.7588613  
C   -0.8698916    0.0019484   -7.5558266  
C    0.3945116    0.0064645   -7.0605091  
C    1.2902597    0.0114729   -8.1929602  
C    0.4379553    0.0095194   -9.3972713  
N   -0.8604914    0.0033064   -8.9424229  
C    0.9065808    0.0133756  -10.6708798  
C    2.3464939    0.0196580  -10.8687317  
O    2.8665836    0.0234191  -11.9767899  
C    3.2680828    0.0215732   -9.6075911  
O    4.4819565    0.0265436   -9.7616915  
C    2.6457833    0.0172881   -8.2860100  
H    0.6684367    0.0061230   -6.0205192  
H    0.2641737    0.0119787  -11.5404900  
H    3.2908860    0.0188544   -7.4179291  
H   -1.6757276    0.0021936   -9.5276032  
C    0.8400945    0.7047457    2.2710304  
C    0.0000000    0.0000000    1.4700000  
C   -0.8844236   -0.7423113    2.3369512  
C   -0.4878984   -0.4098547    3.7186280  
N    0.5629682    0.4714286    3.6095011  
C   -1.0836927   -0.9095027    4.8308716  
C   -2.1891196   -1.8367527    4.6554461  
O   -2.7906899   -2.3413415    5.5944904  
C   -2.6257283   -2.2031529    3.2011665  
O   -3.5549479   -2.9829990    3.0410059  
C   -1.9068976   -1.5999348    2.0816745  
H   -0.7774656   -0.6525820    5.8354244  
H   -2.2155208   -1.8586617    1.0779135  
H    1.6384792    1.3747609    1.9961646  
H    1.0518368    0.8833920    4.3830260  
