58

C   -3.2573544   -0.0091035   -1.5109382  
C   -2.5379369   -0.0071495   -0.3591961  
C   -1.1434991   -0.0033314   -0.7338498  
C   -1.1092557   -0.0031912   -2.2088475  
N   -2.4227454   -0.0071791   -2.6182608  
C    0.0265528    0.0003290   -2.9515659  
C    1.3002985    0.0040146   -2.2514974  
O    2.3786675    0.0072743   -2.8306420  
C    1.2877671    0.0036833   -0.6895604  
O    2.3539865    0.0064591   -0.0892031  
C    0.0000000    0.0000000    0.0000000  
H   -2.9383968   -0.0084388    0.6389238  
H    0.0296280    0.0004941   -4.0327229  
H   -2.7280417   -0.0065281   -3.5742114  
C   -5.6736347   -0.0157238   -0.7359117  
C   -4.7161153   -0.0130596   -1.6923260  
C   -5.4441004   -0.0148113   -2.9519025  
C   -6.8695232   -0.0187464   -2.5585351  
N   -7.0103013   -0.0192175   -1.2607791  
C   -7.9272500   -0.0213966   -3.5313115  
C   -7.5769077   -0.0197824   -4.8376770  
O   -8.4592094   -0.0219093   -5.8513731  
C   -6.1471091   -0.0154462   -5.2664168  
O   -5.9016154   -0.0143058   -6.4726307  
C   -5.0804286   -0.0128330   -4.2495041  
H   -7.9113207   -0.0199163   -6.6569576  
H   -4.0573757   -0.0095943   -4.6010469  
H   -5.5430472   -0.0155193    0.3345646  
C   -9.3330218   -0.0255677   -3.1015585  
C   -9.8183054   -0.0274728   -1.8381996  
C  -11.2649560   -0.0315277   -1.9920993  
C  -11.4841930   -0.0314347   -3.4544672  
N  -10.3553696   -0.0280296   -4.1100098  
C  -12.8026200   -0.0349644   -4.0261512  
C  -13.8542261   -0.0388184   -3.1755956  
O  -15.1388264   -0.0423788   -3.5703495  
C  -13.6655368   -0.0393903   -1.6948669  
O  -14.6681865   -0.0428656   -0.9807927  
C  -12.3031387   -0.0356769   -1.1329204  
H   -9.2631419   -0.0263646   -0.9157742  
H  -12.9334305   -0.0346031   -5.0984376  
H  -15.6525799   -0.0446174   -2.7425784  
H  -12.2090404   -0.0363400   -0.0552494  
C    2.4951002    2.0940188    2.9809380  
C    1.9440701    1.6314916    1.8291961  
C    0.8759964    0.7350050    2.2038498  
C    0.8497377    0.7130254    3.6788474  
N    1.8560616    1.5571714    4.0882609  
C   -0.0205033   -0.0168748    4.4215661  
C   -0.9962600   -0.8356168    3.7214979  
O   -1.8224391   -1.5286685    4.3006425  
C   -0.9864710   -0.8277881    2.1595606  
O   -1.8030528   -1.5133726    1.5592035  
C    0.0000000    0.0000000    1.4700000  
H    2.2509283    1.8888011    0.8310761  
H   -0.0229599   -0.0187323    5.5027230  
H    3.3143982    2.7817323    3.1139444  
H    2.0889452    1.7545833    5.0442112  
