58

C    3.3421722   -3.5804310   -4.3873032  
C    2.8789095   -2.9293009   -5.4852531  
C    3.7197867   -3.3196496   -6.5922254  
C    4.7180508   -4.2583193   -6.0452728  
N    4.4346703   -4.3735021   -4.7038862  
C    5.6945532   -4.8539124   -6.7756280  
C    5.7673492   -4.5500020   -8.1950900  
O    6.6104713   -5.0355419   -8.9378532  
C    4.7204540   -3.5584165   -8.7955697  
O    4.7720092   -3.2946899   -9.9893240  
C    3.7148490   -2.9800495   -7.9078185  
H    6.4168600   -5.5396260   -6.3549392  
H    2.9934951   -2.2945511   -8.3314525  
H    2.9775169   -3.5474755   -3.3734838  
H    4.9419604   -4.9470669   -4.0552510  
C    1.7371424   -2.0043750   -5.5274499  
C    0.9346266   -1.6238673   -4.5062931  
C   -0.0220096   -0.7047842   -5.1034810  
C    0.3601286   -0.6444245   -6.5306850  
N    1.3906159   -1.4042329   -6.7851956  
C   -0.3537166    0.1694992   -7.4756929  
C   -1.4019181    0.8900574   -7.0159061  
O   -2.1569094    1.6919656   -7.7859529  
C   -1.8124076    0.8499979   -5.5813138  
O   -2.7762296    1.5318134   -5.2328958  
C   -1.0641734    0.0073898   -4.6315339  
H    0.9854830   -1.9292388   -3.4751590  
H   -0.0524154    0.1947168   -8.5127516  
H   -2.8200949    2.0664814   -7.1784370  
C    1.1319248    0.0015675   -0.8009270  
C    0.7969916    0.0034959   -2.1169404  
C   -0.6453336    0.0035703   -2.1842672  
C   -1.1266831    0.0015415   -0.7896027  
N    0.0000000    0.0000000    0.0000000  
C   -2.4346129    0.0013924   -0.4276297  
C   -3.4350110    0.0031352   -1.4820184  
O   -4.6384610    0.0030897   -1.2583919  
C   -2.9478958    0.0050460   -2.9661075  
O   -3.7809377    0.0062160   -3.8623775  
C   -1.5113821    0.0053068   -3.2312125  
H    1.4821240    0.0045436   -2.9459192  
H   -2.7664565    0.0000185    0.6013447  
H    2.1104318    0.0009428   -0.3488058  
C    2.4951002    2.0940188    2.9809380  
C    1.9440701    1.6314916    1.8291961  
C    0.8759964    0.7350050    2.2038498  
C    0.8497377    0.7130254    3.6788474  
N    1.8560616    1.5571714    4.0882609  
C   -0.0205033   -0.0168748    4.4215661  
C   -0.9962600   -0.8356168    3.7214979  
O   -1.8224391   -1.5286685    4.3006425  
C   -0.9864710   -0.8277881    2.1595606  
O   -1.8030528   -1.5133726    1.5592035  
C    0.0000000    0.0000000    1.4700000  
H    2.2509283    1.8888011    0.8310761  
H   -0.0229599   -0.0187323    5.5027230  
H    3.3143982    2.7817323    3.1139444  
H    2.0889452    1.7545833    5.0442112  
