58

C    8.8863521   -0.0041284   -2.9586726  
C    9.9454084   -0.0043302   -2.1086876  
C   11.1382315   -0.0052387   -2.9223269  
C   10.6840334   -0.0055228   -4.3260701  
N    9.3090055   -0.0052185   -4.2793174  
C   11.5112973   -0.0059443   -5.4018673  
C   12.9446765   -0.0063571   -5.1611223  
O   13.7716704   -0.0068135   -6.0635540  
C   13.4480482   -0.0063183   -3.6824669  
O   14.6526262   -0.0069701   -3.4674002  
C   12.4597965   -0.0055645   -2.6067295  
H    9.8965867   -0.0040749   -1.0343372  
H   11.1575841   -0.0060168   -6.4235314  
H   12.8165391   -0.0053372   -1.5857211  
H    8.7054809   -0.0037508   -5.0810676  
C    6.7235404   -0.0015093    0.8630518  
C    5.4473217   -0.0011276    0.3990038  
C    5.5236520   -0.0015784   -1.0428731  
C    6.9592471   -0.0022881   -1.3832519  
N    7.6329843   -0.0018114   -0.1836821  
C    7.4493969   -0.0032604   -2.6487385  
C    6.4996351   -0.0034065   -3.7489599  
O    6.8417413   -0.0041910   -4.9242317  
C    4.9744857   -0.0024119   -3.4117302  
O    4.1654301   -0.0022186   -4.3297117  
C    4.5679461   -0.0016854   -2.0086701  
H    4.5543636   -0.0004091    0.9983692  
H    7.0761901   -0.0013785    1.8816429  
H    8.6315325   -0.0036615   -0.0839620  
C    3.1301149   -0.0010311   -1.7028252  
C    2.5367768   -0.0002767   -0.4864665  
C    1.1089904    0.0001028   -0.7656183  
C    1.0177872   -0.0004148   -2.2415132  
N    2.1993578   -0.0011611   -2.7963820  
C   -0.2459209   -0.0002877   -2.9257118  
C   -1.3675319   -0.0000605   -2.1698524  
O   -2.6129313    0.0000867   -2.6748490  
C   -1.3083584    0.0000910   -0.6783232  
O   -2.3693261    0.0004206   -0.0541692  
C    0.0000000    0.0000000    0.0000000  
H    3.0096017   -0.0001007    0.4807525  
H   -0.2829630   -0.0004687   -4.0053125  
H   -3.1967441    0.0002094   -1.8949034  
C    2.4951002    2.0940188    2.9809380  
C    1.9440701    1.6314916    1.8291961  
C    0.8759964    0.7350050    2.2038498  
C    0.8497377    0.7130254    3.6788474  
N    1.8560616    1.5571714    4.0882609  
C   -0.0205033   -0.0168748    4.4215661  
C   -0.9962600   -0.8356168    3.7214979  
O   -1.8224391   -1.5286685    4.3006425  
C   -0.9864710   -0.8277881    2.1595606  
O   -1.8030528   -1.5133726    1.5592035  
C    0.0000000    0.0000000    1.4700000  
H    2.2509283    1.8888011    0.8310761  
H   -0.0229599   -0.0187323    5.5027230  
H    3.3143982    2.7817323    3.1139444  
H    2.0889452    1.7545833    5.0442112  
