60

C    3.3003537    0.0005277   -1.4739000  
C    2.5232799    0.0003499   -2.6090757  
C    1.1623189   -0.0001317   -2.1820106  
C    1.1711885    0.0000585   -0.7636144  
N    2.4852295   -0.0014918   -0.3662368  
C    0.0000000    0.0000000    0.0000000  
C   -1.2020393    0.0000521   -0.6806474  
O   -2.3759254    0.0003495    0.0157755  
C   -1.2314656   -0.0005110   -2.0955503  
O   -2.5054398   -0.0008034   -2.6250168  
C   -0.0764531   -0.0007269   -2.8495194  
H    2.8919938   -0.0005616   -3.6205312  
H    2.8036265    0.0088181    0.5858651  
H   -3.0835643    0.0000349   -0.6418807  
H   -2.4360069   -0.0011524   -3.5845912  
H   -0.1304110   -0.0013418   -3.9319084  
C    6.5907940    0.0004125   -4.4182901  
C    5.3731470    0.0003988   -3.8171156  
C    5.6071040    0.0003106   -2.3923001  
C    7.0713633    0.0003030   -2.2113713  
N    7.6095187   -0.0000323   -3.4775776  
C    7.6973063    0.0006260   -1.0072532  
C    6.8738980    0.0007803    0.1904669  
O    7.3427984    0.0010090    1.3211452  
C    5.3209689    0.0005394    0.0224868  
O    4.6174387    0.0003599    1.0236386  
C    4.7630496    0.0004757   -1.3275420  
H    4.4198578    0.0002628   -4.3149641  
H    6.8296397    0.0004931   -5.4694055  
H    8.5911147    0.0014371   -3.6861768  
C    9.1595802    0.0007866   -0.8567347  
C   10.0978075    0.0006796   -1.8320847  
C   11.3708594    0.0009206   -1.1279265  
C   11.0043824    0.0012739    0.3046511  
N    9.7095057    0.0011164    0.4698238  
C   11.9968881    0.0015422    1.3438899  
C   13.2964319    0.0010723    0.9690259  
O   14.3265502    0.0012564    1.8321004  
C   13.6981918    0.0003366   -0.4685932  
O   14.8995731    0.0000616   -0.7367415  
C   12.6613887    0.0001175   -1.5159536  
H    9.9448833    0.0003736   -2.8977723  
H   11.7005772    0.0020047    2.3826916  
H   15.1216829    0.0007831    1.2691472  
H   12.9936192   -0.0005352   -2.5454446  
C    0.0000000    0.0000000    1.4700000  
C    1.0541688    0.0001722    2.3260392  
C    0.5103138    0.0000454    3.6635956  
C   -0.9576371   -0.0002459    3.5155732  
N   -1.2018458    0.0001392    2.1615969  
C   -1.8348311   -0.0008317    4.5510609  
C   -1.2972847   -0.0009736    5.9014604  
O   -2.0050672   -0.0014265    6.9001319  
C    0.2542623   -0.0004184    6.0817573  
O    0.7184670   -0.0002256    7.2139121  
C    1.0974552   -0.0000873    4.8889129  
H    2.0940752    0.0005483    2.0517982  
H   -2.9081052   -0.0011668    4.4207061  
H    2.1707277    0.0000911    5.0223670  
H   -2.1128194   -0.0014912    1.7406791  
