62

C   -1.1239075    0.0327664   -0.7919009  
C   -0.7477578    0.0049816   -2.1148548  
C    0.6773568   -0.0492402   -2.1414694  
C    1.1189899   -0.0524453   -0.7935543  
N    0.0000000    0.0000000    0.0000000  
C    2.4710516   -0.1004019   -0.4408227  
C    3.3940895   -0.1462595   -1.4675046  
O    4.7273746   -0.1945187   -1.1793444  
C    2.9730598   -0.1435010   -2.8186308  
O    4.0122422   -0.1922109   -3.7247600  
C    1.6393959   -0.0959313   -3.1673471  
H    2.8141365   -0.1029671    0.5845984  
H    5.1892488   -0.2205604   -2.0274357  
H    3.6419987   -0.1868467   -4.6127322  
H    1.3471155   -0.0948778   -4.2109226  
H   -2.1049239    0.0748091   -0.3505418  
C   -1.6629795    0.0293635   -3.2649308  
C   -3.0152972    0.0810574   -3.2529376  
C   -3.4030227    0.0829985   -4.6551372  
C   -2.1242127    0.0275454   -5.3955116  
N   -1.1007385   -0.0041565   -4.5858911  
C   -2.0765721    0.0125552   -6.8316842  
C   -3.2529993    0.0508169   -7.4979341  
O   -3.3574031    0.0424557   -8.8377368  
C   -4.5600983    0.1067656   -6.7792386  
O   -5.5916998    0.1396444   -7.4500124  
C   -4.5825542    0.1211918   -5.3057356  
H   -3.6689891    0.1137350   -2.3981304  
H   -1.1278846   -0.0280621   -7.3467101  
H   -4.3153128    0.0769649   -9.0120083  
C   -6.0062506    2.3303200   -1.7488099  
C   -7.3056836    1.8792303   -1.7702487  
C   -7.4222058    0.9981617   -2.8859282  
C   -6.1507780    0.9501154   -3.5128962  
N   -5.3148544    1.7717990   -2.7982735  
C   -5.8968235    0.1766780   -4.6495975  
C   -6.9453921   -0.5619449   -5.1625473  
O   -6.7524070   -1.3348360   -6.2708842  
C   -8.2213198   -0.5268146   -4.5513259  
O   -9.1611465   -1.3166157   -5.1808363  
C   -8.4726426    0.2361865   -3.4300801  
H   -8.0752431    2.1525452   -1.0687716  
H   -4.3443971    1.9303546   -3.0008918  
H   -7.5995253   -1.7596974   -6.4583636  
H   -9.9937359   -1.2359795   -4.7055506  
H   -9.4602761    0.2432087   -2.9839755  
H   -5.5182861    3.0073892   -1.0687901  
C    2.5128556    2.1077716    2.9199648  
C    1.9592212    1.6432552    4.0696553  
C    0.8915788    0.7479214    3.6910360  
C    0.8684491    0.7287414    2.2159470  
N    1.8754542    1.5738793    1.8102719  
C    0.0000000    0.0000000    1.4700000  
C   -0.9772830   -0.8200135    2.1664417  
O   -1.8021297   -1.5120829    1.5842315  
C   -0.9711318   -0.8147624    3.7284083  
O   -1.7894187   -1.5009653    4.3257297  
C    0.0140216    0.0115358    4.4216297  
H    2.2638494    1.8988021    5.0689105  
H    0.0117648    0.0094386    5.5031631  
H    3.3327358    2.7953732    2.7900019  
H    2.1123206    1.7707734    0.8551938  
