58

C    1.2838547   -1.0739005   -7.6980018  
C    2.3234491   -1.9475389   -7.6893637  
C    2.6500511   -2.2268989   -9.0678145  
C    1.7087848   -1.4387265   -9.8860999  
N    0.9071782   -0.7624279   -8.9956300  
C    1.6916971   -1.4286463  -11.2430499  
C    2.6651954   -2.2489797  -11.9443983  
O    2.7305309   -2.3078178  -13.1652864  
C    3.6714697   -3.0920104  -11.0979253  
O    4.4954538   -3.7867094  -11.6773268  
C    3.5922600   -3.0204797   -9.6410587  
H    2.8062742   -2.3504482   -6.8169210  
H    0.9928473   -0.8432089  -11.8242403  
H    4.2927126   -3.6070679   -9.0622630  
H    0.1643904   -0.1371661   -9.2493253  
C    0.8518586   -0.7041560   -5.2251428  
C    0.0139741    0.0003876   -4.4216236  
C   -0.8729887    0.7427330   -5.2859478  
C   -0.4803619    0.4105167   -6.6687950  
N    0.5709014   -0.4706742   -6.5627858  
C   -1.0793694    0.9102636   -7.7792669  
C   -2.1843877    1.8373744   -7.6005633  
O   -2.7886792    2.3420368   -8.5378192  
C   -2.6168947    2.2035198   -6.1449943  
O   -3.5457349    2.9832469   -5.9820777  
C   -1.8948203    1.6002142   -5.0276389  
H   -0.7759752    0.6535195   -8.7847240  
H   -2.2006131    1.8587646   -4.0229668  
H    1.6510906   -1.3741284   -4.9526464  
C    3.2798085    0.0005853   -1.4499648  
C    2.5571144    0.0005562   -2.5996554  
C    1.1637436    0.0001546   -2.2210360  
C    1.1336965   -0.0000201   -0.7459470  
N    2.4483513   -0.0001430   -0.3402717  
C    0.0000000    0.0000000    0.0000000  
C   -1.2757367   -0.0000188   -0.6964414  
O   -2.3524597   -0.0000640   -0.1142313  
C   -1.2676494   -0.0000875   -2.2584081  
O   -2.3355762   -0.0004102   -2.8557294  
C    0.0181562    0.0001757   -2.9516296  
H    2.9547357    0.0006072   -3.5989105  
H    4.3498550    0.0008609   -1.3200021  
H    2.7563627    0.0012824    0.6148063  
C    0.8175213    0.6860729    2.3021913  
C    0.0000000    0.0000000    1.4700000  
C   -0.8887526   -0.7456559    2.3478473  
C   -0.4549825   -0.3816753    3.7138435  
N    0.5448156    0.4573574    3.6934124  
C   -1.0945674   -0.9182058    4.8835240  
C   -2.1210866   -1.7789155    4.6970523  
O   -2.8083856   -2.3554314    5.6976972  
C   -2.5824069   -2.1655116    3.3310774  
O   -3.5227682   -2.9541547    3.2362962  
C   -1.9100805   -1.6015804    2.1470656  
H   -0.7567140   -0.6349833    5.8697035  
H   -3.4728268   -2.9124471    5.2533954  
H   -2.2742832   -1.9066565    1.1752040  
H    1.6189533    1.3585343    2.0405121  
