60

C   -3.3003507   -0.0046233   -1.4738999  
C   -2.5232777   -0.0034810   -2.6090754  
C   -1.1623179   -0.0013105   -2.1820103  
C   -1.1711875   -0.0015117   -0.7636142  
N   -2.4852294   -0.0015923   -0.3662368  
C    0.0000000    0.0000000    0.0000000  
C    1.2020372    0.0014398   -0.6806473  
O    2.3759236    0.0025991    0.0157760  
C    1.2314650    0.0020395   -2.0955499  
O    2.5054370    0.0039130   -2.6250164  
C    0.0764527    0.0008222   -2.8495192  
H   -2.8919920   -0.0030269   -3.6205312  
H   -2.8036133   -0.0122975    0.5858650  
H    3.0835619    0.0037920   -0.6418800  
H    2.4360041    0.0041759   -3.5845909  
H    0.1304093    0.0015041   -3.9319081  
C   -4.7630454   -0.0063865   -1.3275424  
C   -5.6984925   -0.0085222   -2.3055572  
C   -6.9735426   -0.0095091   -1.6050234  
C   -6.6111439   -0.0077949   -0.1714096  
N   -5.3167438   -0.0058802   -0.0025540  
C   -7.6066031   -0.0080893    0.8650009  
C   -8.9050738   -0.0096198    0.4864412  
O   -9.9376437   -0.0100753    1.3465810  
C   -9.3027411   -0.0110001   -0.9523152  
O  -10.5033536   -0.0124856   -1.2238806  
C   -8.2629618   -0.0107105   -1.9967212  
H   -5.5425360   -0.0092382   -3.3708048  
H   -7.3132489   -0.0070155    1.9046411  
H  -10.7311708   -0.0112039    0.7813678  
C   -8.1267406   -0.7385089   -4.4236774  
C   -8.7707390   -0.5230065   -5.5996450  
C   -9.8443978    0.4034506   -5.3280376  
C   -9.7725807    0.7122655   -3.8871120  
N   -8.7104409   -0.0119559   -3.3969575  
C  -10.6175554    1.5525879   -3.2378197  
C  -11.6679600    2.1956215   -4.0096315  
O  -12.4786929    2.9687952   -3.5164617  
C  -11.7628604    1.8829371   -5.5370568  
O  -12.6432761    2.4181670   -6.1970995  
C  -10.7944357    0.9601883   -6.1240320  
H   -8.5221517   -0.9629909   -6.5489775  
H  -10.5474858    1.7655616   -2.1801609  
H  -10.8668591    0.7491426   -7.1823044  
H   -7.2749727   -1.3671347   -4.2206743  
C    2.5128556    2.1077716    2.9199648  
C    1.9592212    1.6432552    4.0696553  
C    0.8915788    0.7479214    3.6910360  
C    0.8684491    0.7287414    2.2159470  
N    1.8754542    1.5738793    1.8102719  
C    0.0000000    0.0000000    1.4700000  
C   -0.9772830   -0.8200135    2.1664417  
O   -1.8021297   -1.5120829    1.5842315  
C   -0.9711318   -0.8147624    3.7284083  
O   -1.7894187   -1.5009653    4.3257297  
C    0.0140216    0.0115358    4.4216297  
H    2.2638494    1.8988021    5.0689105  
H    0.0117648    0.0094386    5.5031631  
H    3.3327358    2.7953732    2.7900019  
H    2.1123206    1.7707734    0.8551938  
