58

C    6.1429157   -0.7310960   -3.2555550  
C    7.3905045   -0.5154932   -2.7645219  
C    8.0421968    0.4090055   -3.6619819  
C    7.0649958    0.7165617   -4.7237150  
N    5.9347405   -0.0064451   -4.4192921  
C    7.2992019    1.5549280   -5.7648657  
C    8.6006546    2.1970340   -5.8452208  
O    8.9084287    2.9684546   -6.7443798  
C    9.6509507    1.8856541   -4.7317910  
O   10.7501906    2.4201187   -4.7890434  
C    9.2819559    0.9649976   -3.6593693  
H    7.8068130   -0.9541796   -1.8752216  
H    6.5685790    1.7670051   -6.5330603  
H   10.0147803    0.7548453   -2.8922129  
H    5.3581409   -1.3585669   -2.8653010  
C    1.6707638   -0.0012342   -3.2725973  
C    3.0286798   -0.0026497   -3.2608754  
C    3.4615715   -0.0042631   -4.6383503  
C    2.2357551   -0.0036379   -5.4594252  
N    1.1849520   -0.0021879   -4.5713376  
C    2.2192692   -0.0043573   -6.8164192  
C    3.4939025   -0.0060727   -7.5148770  
O    3.5845469   -0.0068913   -8.7355670  
C    4.8047158   -0.0070127   -6.6654228  
O    5.8837814   -0.0087640   -7.2423773  
C    4.6947481   -0.0058250   -5.2087974  
H    3.6555461   -0.0027549   -2.3870034  
H    1.3089303   -0.0037484   -7.3996804  
H    0.2146124    0.0000900   -4.8272345  
C    1.0965515    0.0001359   -0.8010305  
C    0.0000000    0.0000000    0.0000000  
C   -1.1546564    0.0001470   -0.8669509  
C   -0.6372018    0.0003521   -2.2486279  
N    0.7342868    0.0007339   -2.1395011  
C   -1.4147743    0.0001355   -3.3608714  
C   -2.8576049   -0.0001046   -3.1854455  
O   -3.6427782   -0.0002491   -4.1244898  
C   -3.4275842   -0.0000725   -1.7311664  
O   -4.6406831    0.0000334   -1.5710053  
C   -2.4891868   -0.0001091   -0.6116742  
H   -1.0150456    0.0001619   -4.3654242  
H   -2.8919123   -0.0002920    0.3920869  
H    2.1388270    0.0000663   -0.5261648  
C    0.8400945    0.7047457    2.2710304  
C    0.0000000    0.0000000    1.4700000  
C   -0.8844236   -0.7423113    2.3369512  
C   -0.4878984   -0.4098547    3.7186280  
N    0.5629682    0.4714286    3.6095011  
C   -1.0836927   -0.9095027    4.8308716  
C   -2.1891196   -1.8367527    4.6554461  
O   -2.7906899   -2.3413415    5.5944904  
C   -2.6257283   -2.2031529    3.2011665  
O   -3.5549479   -2.9829990    3.0410059  
C   -1.9068976   -1.5999348    2.0816745  
H   -0.7774656   -0.6525820    5.8354244  
H   -2.2155208   -1.8586617    1.0779135  
H    1.6384792    1.3747609    1.9961646  
H    1.0518368    0.8833920    4.3830260  
