58

C    6.8134652    0.6934921   -5.4777863  
C    7.4994412   -0.1183772   -4.6325765  
C    8.8900426   -0.0449040   -5.0142372  
C    8.9584828    0.8829953   -6.1592740  
N    7.6663842    1.2951041   -6.3906557  
C   10.1014565    1.2195919   -6.8089033  
C   11.3473451    0.6283574   -6.3498400  
O   12.4295585    0.8682560   -6.8690339  
C   11.2983536   -0.3572020   -5.1390233  
O   12.3408792   -0.8614108   -4.7438311  
C   10.0060728   -0.6422332   -4.5204633  
H    7.0792274   -0.7022399   -3.8331155  
H   10.1298127    1.9024039   -7.6466819  
H    9.9807754   -1.3255258   -3.6824925  
H    7.3864061    1.9359288   -7.1103809  
C    3.4164199   -0.7248701   -3.0395970  
C    4.6504339   -0.5074363   -3.5630539  
C    4.4860929    0.4201609   -4.6573074  
C    3.0448514    0.7275403   -4.7289399  
N    2.4521483    0.0014840   -3.7217481  
C    2.4820257    1.5683543   -5.6333530  
C    3.3539028    2.2134704   -6.6009226  
O    2.9430859    2.9872366   -7.4558000  
C    4.8835163    1.9023315   -6.5436510  
O    5.6273702    2.4393190   -7.3533342  
C    5.3721319    0.9788728   -5.5227048  
H    5.5707637   -0.9468592   -3.2217111  
H    1.4224210    1.7802521   -5.6686799  
H    3.1302856   -1.3547904   -2.2130272  
C    0.0000000    0.0000000    0.0000000  
C    1.0662923   -0.0000101   -0.8334270  
C    0.4961873    0.0000065   -2.1718887  
C   -0.9663854   -0.0000848   -1.9540250  
N   -1.2632773   -0.0000083   -0.6828660  
C   -1.8985359   -0.0000514   -3.0477261  
C   -1.3925770    0.0004566   -4.3020547  
O   -2.1456378    0.0005414   -5.4151314  
C    0.0786240    0.0009326   -4.5545000  
O    0.4683767    0.0012591   -5.7221100  
C    1.0143171    0.0008444   -3.4159031  
H    2.1107200    0.0000633   -0.5721865  
H   -2.9622181   -0.0003268   -2.8593381  
H   -1.5042265    0.0009697   -6.1484419  
C    1.1319247   -0.0015655    2.2709268  
C    0.7969915   -0.0034943    3.5869401  
C   -0.6453339   -0.0035710    3.6542670  
C   -1.1266833   -0.0015433    2.2596025  
N    0.0000000    0.0000000    1.4700000  
C   -2.4346130   -0.0013964    1.8976294  
C   -3.4350110   -0.0031408    2.9520183  
O   -4.6384611   -0.0030974    2.7283916  
C   -2.9478959   -0.0050506    4.4361073  
O   -3.7809380   -0.0062218    5.3323774  
C   -1.5113823   -0.0053090    4.7012123  
H    1.4821238   -0.0045407    4.4159191  
H   -2.7664565   -0.0000232    0.8686553  
H   -1.1823530   -0.0068408    5.7314848  
H    2.1104316   -0.0009391    1.8188057  
