58

C    3.2798085    0.0005856   -1.4499646  
C    2.5571146    0.0005565   -2.5996553  
C    1.1637436    0.0001548   -2.2210360  
C    1.1336964   -0.0000200   -0.7459468  
N    2.4483512   -0.0001429   -0.3402719  
C    0.0000000    0.0000000    0.0000000  
C   -1.2757371   -0.0000187   -0.6964415  
O   -2.3524597   -0.0000640   -0.1142312  
C   -1.2676493   -0.0000873   -2.2584081  
O   -2.3355761   -0.0004101   -2.8557295  
C    0.0181561    0.0001759   -2.9516296  
H    2.9547354    0.0006074   -3.5989104  
H    2.7563628    0.0012823    0.6148064  
C    6.5739159    0.0018720   -4.3537888  
C    7.6280847    0.0019468   -3.4977494  
C    7.0842298    0.0017736   -2.1601930  
C    5.6162787    0.0015610   -2.3082157  
N    5.3720702    0.0020315   -3.6621917  
C    4.7390846    0.0009612   -1.2727278  
C    5.2766314    0.0007199    0.0776717  
O    4.5688488    0.0002469    1.0763435  
C    6.8281783    0.0011905    0.2579685  
O    7.2923834    0.0012993    1.3901232  
C    7.6713711    0.0015458   -0.9348758  
H    8.6679910    0.0022877   -3.7719906  
H    8.7446435    0.0016652   -0.8014218  
H    6.5739154    0.0019307   -5.4316984  
H    4.4610964    0.0004679   -4.0831096  
C    0.8518586   -0.7041558   -5.2251424  
C    0.0139740    0.0003878   -4.4216236  
C   -0.8729886    0.7427330   -5.2859478  
C   -0.4803616    0.4105165   -6.6687949  
N    0.5709016   -0.4706743   -6.5627858  
C   -1.0793689    0.9102634   -7.7792669  
C   -2.1843874    1.8373743   -7.6005633  
O   -2.7886786    2.3420364   -8.5378201  
C   -2.6168947    2.2035197   -6.1449947  
O   -3.5457348    2.9832471   -5.9820786  
C   -1.8948201    1.6002144   -5.0276394  
H   -0.7759747    0.6535191   -8.7847240  
H   -2.2006131    1.8587647   -4.0229673  
H    1.6510908   -1.3741283   -4.9526460  
H    1.0576100   -0.8824758   -7.3377577  
C    0.0000000    0.0000000    1.4700000  
C    1.0662921    0.0000102    2.3034270  
C    0.4961870   -0.0000064    3.6418889  
C   -0.9663858    0.0000850    3.4240247  
N   -1.2632773    0.0000084    2.1528658  
C   -1.8985362    0.0000517    4.5177257  
C   -1.3925775   -0.0004564    5.7720543  
O   -2.1456383   -0.0005410    6.8851312  
C    0.0786232   -0.0009323    6.0245000  
O    0.4683759   -0.0012588    7.1921102  
C    1.0143166   -0.0008442    4.8859032  
H    2.1107198   -0.0000632    2.0421868  
H   -2.9622183    0.0003270    4.3293377  
H   -1.5042274   -0.0009692    7.6184419  
H    2.0724152   -0.0013148    5.1109744  
