60

C    0.0000000    0.0000000    0.0000000  
C    1.0521658   -0.0011915   -0.8862348  
C    0.4917204   -0.0011962   -2.1979134  
C   -0.9187438    0.0003156   -2.0478678  
N   -1.1833172   -0.0009399   -0.7007906  
C   -1.7951720    0.0010369   -3.1372081  
C   -1.2375860    0.0005237   -4.4010417  
O   -2.0474242    0.0015383   -5.4997568  
C    0.1673556   -0.0013570   -4.5711965  
O    0.5673491   -0.0020698   -5.8915554  
C    1.0325755   -0.0023424   -3.4969898  
H    2.0953050   -0.0030673   -0.6200571  
H   -2.0989779    0.0102395   -0.2891812  
H   -1.4634918    0.0006513   -6.2693586  
H    1.5290676   -0.0033171   -5.9180051  
H    2.1042130   -0.0039634   -3.6584468  
C   -4.3329808    2.1449891   -0.3175463  
C   -5.5711572    1.7385073   -0.6826093  
C   -5.3538080    0.8273651   -1.7957482  
C   -3.8860978    0.7997184   -1.9736433  
N   -3.2823588    1.5700994   -1.1099296  
C   -3.2578670    0.0024074   -2.9908491  
C   -4.0594148   -0.7341158   -3.7935875  
O   -3.6090807   -1.5234538   -4.7836302  
C   -5.5440578   -0.7276609   -3.6388152  
O   -6.2117031   -1.4223443   -4.4048992  
C   -6.1645263    0.0984905   -2.5879030  
H   -4.4116756   -1.9150295   -5.1730682  
H   -7.2431293    0.0755131   -2.5084157  
H   -4.0641993    2.8271115    0.4733005  
C   -7.2441365    3.3493891    0.3398005  
C   -6.8603848    2.1254410   -0.0917833  
C   -8.0065480    1.2642011    0.1553495  
C   -9.0209204    2.1569162    0.7559266  
N   -8.5797323    3.3804850    0.8664794  
C  -10.3175445    1.6787864    1.1499373  
C  -10.5886333    0.3684841    0.9525740  
O  -11.7572122   -0.2127462    1.2729413  
C   -9.5859749   -0.5577036    0.3484096  
O   -9.9009879   -1.7381483    0.1982848  
C   -8.2629157   -0.0431587   -0.0474233  
H  -11.0393978    2.3534228    1.5866329  
H  -11.6488795   -1.1459751    1.0150647  
H   -7.5647909   -0.7462164   -0.4816595  
H   -6.6753409    4.2655480    0.3298920  
C    1.1319247   -0.0015655    2.2709268  
C    0.7969915   -0.0034943    3.5869401  
C   -0.6453339   -0.0035710    3.6542670  
C   -1.1266833   -0.0015433    2.2596025  
N    0.0000000    0.0000000    1.4700000  
C   -2.4346130   -0.0013964    1.8976294  
C   -3.4350110   -0.0031408    2.9520183  
O   -4.6384611   -0.0030974    2.7283916  
C   -2.9478959   -0.0050506    4.4361073  
O   -3.7809380   -0.0062218    5.3323774  
C   -1.5113823   -0.0053090    4.7012123  
H    1.4821238   -0.0045407    4.4159191  
H   -2.7664565   -0.0000232    0.8686553  
H   -1.1823530   -0.0068408    5.7314848  
H    2.1104316   -0.0009391    1.8188057  
