60

C    3.3003542    0.0005275   -1.4738990  
C    2.5232811    0.0003496   -2.6090753  
C    1.1623198   -0.0001321   -2.1820102  
C    1.1711882    0.0000582   -0.7636142  
N    2.4852300   -0.0014919   -0.3662357  
C    0.0000000    0.0000000    0.0000000  
C   -1.2020384    0.0000519   -0.6806475  
O   -2.3759249    0.0003492    0.0157746  
C   -1.2314659   -0.0005114   -2.0955505  
O   -2.5054388   -0.0008041   -2.6250179  
C   -0.0764518   -0.0007276   -2.8495194  
H    2.8919949   -0.0005621   -3.6205303  
H    2.8036264    0.0088184    0.5858659  
H   -3.0835637    0.0000345   -0.6418813  
H   -2.4360051   -0.0011532   -3.5845918  
H    4.3715547    0.0004895   -1.3667137  
C    2.3339065   -2.1433070   -5.7798816  
C    1.7884031   -1.7364555   -6.9497008  
C    0.7199603   -0.8255810   -6.5686010  
C    0.7627104   -0.7984778   -5.0907573  
N    1.7068228   -1.5689211   -4.6227204  
C   -0.1496420   -0.0015617   -4.3176960  
C   -1.0629253    0.7351032   -4.9904312  
O   -1.9749207    1.5241133   -4.3973308  
C   -1.1310654    0.7291938   -6.4815658  
O   -1.9881496    1.4239786   -7.0273693  
C   -0.1842226   -0.0965599   -7.2519837  
H   -2.4796315    1.9159025   -5.1328038  
H   -0.2663181   -0.0731919   -8.3303830  
H    3.1560518   -2.8253870   -5.6321752  
C    3.0344730   -5.5873570   -8.7144375  
C    2.6276855   -4.6071568   -7.8672041  
C    2.5347657   -3.3925052   -8.6423309  
C    2.9235241   -3.7479634  -10.0204852  
N    3.2148146   -5.0923935   -9.9971024  
C    2.9641886   -2.8736885  -11.0576415  
C    2.6010317   -1.4902483  -10.7992922  
O    2.6060973   -0.6270470  -11.6671393  
C    2.1863130   -1.0914396   -9.3471333  
O    1.8787904    0.0704387   -9.1175050  
C    2.1806087   -2.1228368   -8.3127062  
H    2.4169564   -4.7218759   -6.8188496  
H    3.2520738   -3.1550012  -12.0610839  
H    3.2178908   -6.6296189   -8.5096491  
H    3.5106785   -5.6314629  -10.7901452  
C    0.8400945    0.7047457    2.2710304  
C    0.0000000    0.0000000    1.4700000  
C   -0.8844236   -0.7423113    2.3369512  
C   -0.4878984   -0.4098547    3.7186280  
N    0.5629682    0.4714286    3.6095011  
C   -1.0836927   -0.9095027    4.8308716  
C   -2.1891196   -1.8367527    4.6554461  
O   -2.7906899   -2.3413415    5.5944904  
C   -2.6257283   -2.2031529    3.2011665  
O   -3.5549479   -2.9829990    3.0410059  
C   -1.9068976   -1.5999348    2.0816745  
H   -0.7774656   -0.6525820    5.8354244  
H   -2.2155208   -1.8586617    1.0779135  
H    1.6384792    1.3747609    1.9961646  
H    1.0518368    0.8833920    4.3830260  
