60

C   -3.3041232    0.0064568   -1.5420398  
C   -2.5845322    0.0056207   -0.3695828  
C   -1.2039993    0.0023964   -0.7283578  
C   -1.1422396    0.0016690   -2.1454364  
N   -2.4348672    0.0022339   -2.6077441  
C    0.0655126   -0.0010103   -2.8497916  
C    1.2321704   -0.0026844   -2.1101410  
O    2.4392731   -0.0049686   -2.7472546  
C    1.1911172   -0.0023693   -0.6955280  
O    2.4371472   -0.0046175   -0.1032889  
C    0.0000000    0.0000000    0.0000000  
H   -3.0031471    0.0060418    0.6222612  
H   -2.7054473    0.0124931   -3.5745231  
H    0.1193475   -0.0017221   -3.9297473  
H    3.1132901   -0.0061302   -2.0551820  
H    2.3200255   -0.0042093    0.8516386  
C   -4.7577163    0.0089541   -1.7610415  
C   -5.7406947    0.0122646   -0.8308149  
C   -6.9792840    0.0135142   -1.5939617  
C   -6.5459610    0.0106506   -3.0077535  
N   -5.2447597    0.0078898   -3.1119529  
C   -7.4885852    0.0108277   -4.0924404  
C   -8.8042911    0.0133446   -3.7789987  
O   -9.7927559    0.0138200   -4.6894812  
C   -9.2730961    0.0158977   -2.3618266  
O  -10.4857399    0.0182436   -2.1503751  
C   -8.2866053    0.0157054   -1.2669479  
H   -5.6379666    0.0135933    0.2408761  
H   -7.1438342    0.0089030   -5.1161846  
H  -10.6134385    0.0157711   -4.1644777  
C   -7.1545713    2.0314838    2.5435084  
C   -7.1527037    1.6479356    1.2456384  
C   -8.2758875    0.7313615    1.1237782  
C   -8.8604015    0.6756300    2.4809150  
N   -8.2073673    1.4357706    3.3174092  
C  -10.0082664   -0.1347335    2.7822511  
C  -10.5479158   -0.8563087    1.7735677  
O  -11.6196407   -1.6552269    1.9120533  
C   -9.9811285   -0.8208877    0.3931115  
O  -10.5234567   -1.5033871   -0.4759657  
C   -8.8032425    0.0181266    0.1092715  
H   -6.4731266    1.9497958    0.4670944  
H  -10.4144058   -0.1566003    3.7829922  
H  -11.7646913   -2.0314560    1.0251681  
H   -6.4762482    2.7094882    3.0366222  
C    2.5128556    2.1077716    2.9199648  
C    1.9592212    1.6432552    4.0696553  
C    0.8915788    0.7479214    3.6910360  
C    0.8684491    0.7287414    2.2159470  
N    1.8754542    1.5738793    1.8102719  
C    0.0000000    0.0000000    1.4700000  
C   -0.9772830   -0.8200135    2.1664417  
O   -1.8021297   -1.5120829    1.5842315  
C   -0.9711318   -0.8147624    3.7284083  
O   -1.7894187   -1.5009653    4.3257297  
C    0.0140216    0.0115358    4.4216297  
H    2.2638494    1.8988021    5.0689105  
H    0.0117648    0.0094386    5.5031631  
H    3.3327358    2.7953732    2.7900019  
H    2.1123206    1.7707734    0.8551938  
