58

C    2.5229106   -2.1069162   -5.8790356  
C    1.9659600   -1.6422911   -7.0270794  
C    0.8993072   -0.7471219   -6.6452951  
C    0.8803721   -0.7281568   -5.1701434  
N    1.8886140   -1.5732495   -4.7674571  
C    0.0139741    0.0003876   -4.4216236  
C   -0.9653707    0.8204009   -5.1151637  
O   -1.7886285    1.5123013   -4.5305094  
C   -0.9636625    0.8153754   -6.6771421  
O   -1.7837160    1.5015801   -7.2720341  
C    0.0195993   -0.0107214   -7.3732829  
H    2.2677701   -1.8976626   -8.0272341  
H    0.0142654   -0.0084685   -8.4548052  
H    2.1282169   -1.7702569   -3.8130851  
C    5.0819224   -4.2617110   -8.7608323  
C    4.1412340   -3.4711532   -8.1827329  
C    4.3019698   -3.6016938   -6.7537618  
C    5.4214562   -4.5398105   -6.5452480  
N    5.8499441   -4.9033864   -7.8010745  
C    5.8856321   -4.9249141   -5.3295419  
C    5.2393703   -4.3791856   -4.1475690  
O    5.5841195   -4.6645004   -3.0082512  
C    4.0516229   -3.3841190   -4.3448081  
O    3.4995352   -2.9183885   -3.3571062  
C    3.6416186   -3.0445436   -5.7051162  
H    3.4172371   -2.8657980   -8.6984713  
H    6.7082466   -5.6141618   -5.1985734  
H    5.2785773   -4.4297022   -9.8072529  
H    6.6056344   -5.5357309   -7.9911253  
C    3.2798085    0.0005853   -1.4499648  
C    2.5571144    0.0005562   -2.5996554  
C    1.1637436    0.0001546   -2.2210360  
C    1.1336965   -0.0000201   -0.7459470  
N    2.4483513   -0.0001430   -0.3402717  
C    0.0000000    0.0000000    0.0000000  
C   -1.2757367   -0.0000188   -0.6964414  
O   -2.3524597   -0.0000640   -0.1142313  
C   -1.2676494   -0.0000875   -2.2584081  
O   -2.3355762   -0.0004102   -2.8557294  
C    0.0181562    0.0001757   -2.9516296  
H    2.9547357    0.0006072   -3.5989105  
H    4.3498550    0.0008609   -1.3200021  
H    2.7563627    0.0012824    0.6148063  
C    2.5128556    2.1077716    2.9199648  
C    1.9592212    1.6432552    4.0696553  
C    0.8915788    0.7479214    3.6910360  
C    0.8684491    0.7287414    2.2159470  
N    1.8754542    1.5738793    1.8102719  
C    0.0000000    0.0000000    1.4700000  
C   -0.9772830   -0.8200135    2.1664417  
O   -1.8021297   -1.5120829    1.5842315  
C   -0.9711318   -0.8147624    3.7284083  
O   -1.7894187   -1.5009653    4.3257297  
C    0.0140216    0.0115358    4.4216297  
H    2.2638494    1.8988021    5.0689105  
H    0.0117648    0.0094386    5.5031631  
H    3.3327358    2.7953732    2.7900019  
H    2.1123206    1.7707734    0.8551938  
