64

C    2.3027755   -2.1230396   -5.9144744  
C    1.6515184   -1.6244168   -7.0188779  
C    0.6310524   -0.7498916   -6.5409088  
C    0.7085809   -0.7546403   -5.1246134  
N    1.7328874   -1.6001003   -4.7773237  
C   -0.1496415   -0.0015615   -4.3176961  
C   -1.1033075    0.7706086   -4.9520874  
O   -1.9667115    1.5256559   -4.2121874  
C   -1.1966333    0.7882862   -6.3641049  
O   -2.1980387    1.6065087   -6.8447736  
C   -0.3504838    0.0453975   -7.1607693  
H    2.0305490   -1.7962856   -3.8387663  
H   -2.5411491    1.9798214   -4.8422822  
H   -2.1929071    1.5610733   -7.8057700  
H   -0.4460584    0.0789894   -8.2397570  
H    3.1277800   -2.8114387   -5.8478920  
C    2.8002665   -5.4449880   -9.0371139  
C    2.4386190   -4.4987454   -8.1063589  
C    2.3064738   -3.2602105   -8.8014635  
C    2.6020039   -3.5147193  -10.1652132  
N    2.8995286   -4.8505401  -10.2732882  
C    2.5701201   -2.5176325  -11.1447996  
C    2.2334769   -1.2404136  -10.7403735  
O    2.1868710   -0.2291461  -11.6558944  
C    1.9356896   -0.9666090   -9.3842127  
O    1.6190516    0.3538399   -9.1402899  
C    1.9672103   -1.9497154   -8.4172413  
H    2.2895842   -4.6787790   -7.0554697  
H    3.1388663   -5.3247282  -11.1252534  
H    2.7944548   -2.7051053  -12.1858233  
H    1.9357115    0.5673717  -11.1703607  
H    1.4315929    0.4533176   -8.2019038  
H    2.9966543   -6.4966068   -8.9167446  
C    3.3003543    0.0005276   -1.4738987  
C    2.5232814    0.0003497   -2.6090747  
C    1.1623200   -0.0001320   -2.1820103  
C    1.1711883    0.0000582   -0.7636140  
N    2.4852300   -0.0014919   -0.3662360  
C    0.0000000    0.0000000    0.0000000  
C   -1.2020384    0.0000519   -0.6806477  
O   -2.3759249    0.0003493    0.0157743  
C   -1.2314656   -0.0005115   -2.0955510  
O   -2.5054392   -0.0008039   -2.6250180  
C   -0.0764516   -0.0007274   -2.8495195  
H    2.8919955   -0.0005620   -3.6205304  
H    2.8036267    0.0088183    0.5858662  
H   -3.0835638    0.0000347   -0.6418818  
H   -2.4360047   -0.0011529   -3.5845921  
H    4.3715549    0.0004895   -1.3667136  
C    0.8400945    0.7047457    2.2710304  
C    0.0000000    0.0000000    1.4700000  
C   -0.8844236   -0.7423113    2.3369512  
C   -0.4878984   -0.4098547    3.7186280  
N    0.5629682    0.4714286    3.6095011  
C   -1.0836927   -0.9095027    4.8308716  
C   -2.1891196   -1.8367527    4.6554461  
O   -2.7906899   -2.3413415    5.5944904  
C   -2.6257283   -2.2031529    3.2011665  
O   -3.5549479   -2.9829990    3.0410059  
C   -1.9068976   -1.5999348    2.0816745  
H   -0.7774656   -0.6525820    5.8354244  
H   -2.2155208   -1.8586617    1.0779135  
H    1.6384792    1.3747609    1.9961646  
H    1.0518368    0.8833920    4.3830260  
