58

C    7.1645721    0.5593762   -4.8456775  
C    7.6894527   -0.2738783   -3.9106580  
C    9.1212612   -0.2671329   -4.0969885  
C    9.3894371    0.6449161   -5.2252783  
N    8.1618980    1.1124879   -5.6344404  
C   10.6252737    0.9229187   -5.7122344  
C   11.7674810    0.2808380   -5.0832424  
O   12.9207816    0.4663271   -5.4490173  
C   11.5068302   -0.6890108   -3.8868896  
O   12.4606373   -1.2356428   -3.3495740  
C   10.1299242   -0.9090877   -3.4515202  
H    7.1366824   -0.8299440   -3.1745546  
H   10.8001801    1.5951091   -6.5407740  
H    9.9579963   -1.5818942   -2.6223666  
H    8.0135456    1.7578574   -6.3884550  
C    3.4546601   -0.7051941   -2.8655877  
C    2.5562217   -0.0001543   -3.6003001  
C    3.3075555    0.7421849   -4.5848131  
C    4.7275393    0.4094238   -4.3618641  
N    4.7487509   -0.4720441   -3.3057138  
C    5.7578600    0.9090038   -5.0902626  
C    5.4475471    1.8364960   -6.1654368  
O    6.3052804    2.3410462   -6.8781947  
C    3.9505758    2.2032199   -6.4191982  
O    3.6771258    2.9832721   -7.3214208  
C    2.9282242    1.6000478   -5.5678272  
H    1.8941006    1.8589998   -5.7501908  
H    3.2802844   -1.3753180   -2.0395027  
H    5.5766095   -0.8842294   -2.9160992  
C    0.0000000    0.0000000    0.0000000  
C    1.0541688   -0.0001719   -0.8560391  
C    0.5103141   -0.0000449   -2.1935955  
C   -0.9576367    0.0002461   -2.0455733  
N   -1.2018459   -0.0001392   -0.6915970  
C   -1.8348306    0.0008319   -3.0810611  
C   -1.2972842    0.0009739   -4.4314605  
O   -2.0050664    0.0014267   -5.4301321  
C    0.2542628    0.0004190   -4.6117571  
O    0.7184677    0.0002263   -5.7439119  
C    1.0974556    0.0000880   -3.4189127  
H    2.0940752   -0.0005479   -0.5817978  
H   -2.9081050    0.0011669   -2.9507065  
H   -2.1128195    0.0014911   -0.2706793  
C    0.0000000    0.0000000    1.4700000  
C    1.0662921    0.0000102    2.3034270  
C    0.4961870   -0.0000064    3.6418889  
C   -0.9663858    0.0000850    3.4240247  
N   -1.2632773    0.0000084    2.1528658  
C   -1.8985362    0.0000517    4.5177257  
C   -1.3925775   -0.0004564    5.7720543  
O   -2.1456383   -0.0005410    6.8851312  
C    0.0786232   -0.0009323    6.0245000  
O    0.4683759   -0.0012588    7.1921102  
C    1.0143166   -0.0008442    4.8859032  
H    2.1107198   -0.0000632    2.0421868  
H   -2.9622183    0.0003270    4.3293377  
H   -1.5042274   -0.0009692    7.6184419  
H    2.0724152   -0.0013148    5.1109744  
