58

C   -0.2963294   -0.0005338   -4.3948469  
C    0.7278653   -0.0010062   -5.2865311  
C    0.1384642   -0.0010224   -6.6046519  
C   -1.3235475   -0.0004878   -6.4063798  
N   -1.5211839   -0.0006099   -5.0448253  
C   -2.2357330    0.0000552   -7.4111785  
C   -1.7448094   -0.0001090   -8.7792171  
O   -2.4864203    0.0002821   -9.7530307  
C   -0.2003572   -0.0009253   -9.0126111  
O    0.2247519   -0.0013767  -10.1600184  
C    0.6832433   -0.0011822   -7.8493823  
H    1.7765637   -0.0014912   -5.0481110  
H   -3.3039064    0.0005719   -7.2440971  
H    1.7513081   -0.0015427   -8.0195611  
H   -2.4171876    0.0012266   -4.5929172  
C    3.1301144   -0.0010311   -1.7028257  
C    2.5367765   -0.0002766   -0.4864669  
C    1.1089900    0.0001028   -0.7656184  
C    1.0177865   -0.0004148   -2.2415134  
N    2.1993573   -0.0011611   -2.7963824  
C   -0.2459219   -0.0002876   -2.9257117  
C   -1.3675328   -0.0000605   -2.1698521  
O   -2.6129318    0.0000868   -2.6748487  
C   -1.3083586    0.0000910   -0.6783230  
O   -2.3693261    0.0004206   -0.0541687  
C    0.0000000    0.0000000    0.0000000  
H    3.0096014   -0.0001008    0.4807517  
H   -3.1967444    0.0002095   -1.8949028  
C    6.6685708   -0.0005967    0.8976866  
C    7.6427397   -0.0013905   -0.0483943  
C    6.9825038   -0.0021116   -1.3324984  
C    5.5334434   -0.0016404   -1.0549838  
N    5.4101702   -0.0011224    0.3153057  
C    4.5679458   -0.0016854   -2.0086709  
C    4.9837194   -0.0024605   -3.4013901  
O    4.1902288   -0.0026238   -4.3334168  
C    6.5131870   -0.0032215   -3.7184591  
O    6.8752460   -0.0041839   -4.8872933  
C    7.4587608   -0.0028166   -2.6050220  
H    8.7028559   -0.0016450    0.1326225  
H    8.5159862   -0.0031431   -2.8330532  
H    6.7640838    0.0001112    1.9713563  
H    4.5400773    0.0008356    0.8152875  
C    2.4951002    2.0940188    2.9809380  
C    1.9440701    1.6314916    1.8291961  
C    0.8759964    0.7350050    2.2038498  
C    0.8497377    0.7130254    3.6788474  
N    1.8560616    1.5571714    4.0882609  
C   -0.0205033   -0.0168748    4.4215661  
C   -0.9962600   -0.8356168    3.7214979  
O   -1.8224391   -1.5286685    4.3006425  
C   -0.9864710   -0.8277881    2.1595606  
O   -1.8030528   -1.5133726    1.5592035  
C    0.0000000    0.0000000    1.4700000  
H    2.2509283    1.8888011    0.8310761  
H   -0.0229599   -0.0187323    5.5027230  
H    3.3143982    2.7817323    3.1139444  
H    2.0889452    1.7545833    5.0442112  
