62

C    0.0000000    0.0000000    0.0000000  
C    1.0521663   -0.0011902   -0.8862345  
C    0.4917215   -0.0011956   -2.1979133  
C   -0.9187430    0.0003149   -2.0478683  
N   -1.1833172   -0.0009411   -0.7007910  
C   -1.7951704    0.0010351   -3.1372088  
C   -1.2375840    0.0005226   -4.4010423  
O   -2.0474221    0.0015361   -5.4997580  
C    0.1673576   -0.0013565   -4.5711965  
O    0.5673516   -0.0020685   -5.8915550  
C    1.0325767   -0.0023411   -3.4969892  
H    2.0953056   -0.0030649   -0.6200563  
H   -2.0989778    0.0102372   -0.2891821  
H   -1.4634890    0.0006499   -6.2693592  
H    1.5290706   -0.0033151   -5.9180044  
C   -4.5382432    2.1273441   -0.3186947  
C   -3.4269652    1.6642215   -0.9843126  
C   -3.8900509    0.7769057   -2.0005914  
C   -5.3047972    0.7380662   -1.9061941  
N   -5.6653153    1.5677425   -0.8735850  
C   -6.0984769   -0.0377255   -2.7564927  
C   -5.4522252   -0.7877412   -3.7198273  
O   -6.1789713   -1.5628758   -4.5765772  
C   -4.0414998   -0.7624929   -3.8295256  
O   -3.5480024   -1.5637039   -4.8384183  
C   -3.2578654    0.0024039   -2.9908502  
H   -2.4078449    1.9320309   -0.7637133  
H   -6.6071042    1.7500065   -0.5772840  
H   -7.1771657   -0.0717845   -2.6896186  
H   -5.5421618   -1.9965803   -5.1593622  
H   -2.5888282   -1.4891819   -4.8443292  
H   -4.6159809    2.8114593    0.5088938  
C    4.3488889   -2.1006961   -1.4732771  
C    3.1285885   -1.6364739   -1.8466934  
C    3.3412556   -0.7405982   -2.9589050  
C    4.7959106   -0.7208242   -3.2046243  
N    5.3494374   -1.5655342   -2.2702993  
C    5.4017631    0.0079245   -4.1760010  
C    4.5653427    0.8276663   -5.0367911  
O    5.0159568    1.5198131   -5.9402182  
C    3.0222853    0.8221725   -4.7944090  
O    2.3079812    1.5086153   -5.5126196  
C    2.4861696   -0.0045381   -3.7159924  
H    2.1869465   -1.8922771   -1.3944888  
H    6.4704900    0.0081661   -4.3395035  
H    4.6014596   -2.7885695   -0.6827531  
H    6.3291232   -1.7643638   -2.1823809  
C    0.0000000    0.0000000    1.4700000  
C    1.0541688    0.0001722    2.3260392  
C    0.5103138    0.0000454    3.6635956  
C   -0.9576371   -0.0002459    3.5155732  
N   -1.2018458    0.0001392    2.1615969  
C   -1.8348311   -0.0008317    4.5510609  
C   -1.2972847   -0.0009736    5.9014604  
O   -2.0050672   -0.0014265    6.9001319  
C    0.2542623   -0.0004184    6.0817573  
O    0.7184670   -0.0002256    7.2139121  
C    1.0974552   -0.0000873    4.8889129  
H    2.0940752    0.0005483    2.0517982  
H   -2.9081052   -0.0011668    4.4207061  
H    2.1707277    0.0000911    5.0223670  
H   -2.1128194   -0.0014912    1.7406791  
