64

C   -1.7667978    2.7920742   -1.5420440  
C   -1.3815337    2.1843068   -0.3695856  
C   -0.6437715    1.0174357   -0.7283591  
C   -0.6112572    0.9649193   -2.1454373  
N   -1.3041138    2.0561740   -2.6077472  
C    0.0342904   -0.0558365   -2.8497916  
C    0.6586430   -1.0413694   -2.1101392  
O    1.3041753   -2.0613650   -2.7472509  
C    0.6368872   -1.0065512   -0.6955255  
O    1.3033290   -2.0593803   -0.1032852  
C    0.0000000    0.0000000    0.0000000  
H   -1.6057143    2.5378363    0.6222576  
H    0.0625658   -0.1016540   -3.9297466  
H    1.6647201   -2.6308444   -2.0551776  
H    1.2408506   -1.9603110    0.8516423  
H   -2.3362436    3.6914998   -1.7024306  
C   -1.2418396    5.9509929   -4.8023240  
C   -1.1846371    4.9823897   -3.8271303  
C   -1.4310110    3.7318303   -4.4674439  
C   -1.6330488    4.0022979   -5.8451066  
N   -1.5132752    5.3594298   -6.0138209  
C   -1.9015279    2.9991957   -6.7813188  
C   -1.9669475    1.6993459   -6.3184059  
O   -2.2258070    0.6811664   -7.1897924  
C   -1.7685654    1.4094806   -4.9474790  
O   -1.8657652    0.0673054   -4.6434024  
C   -1.5039332    2.3985931   -4.0232755  
H   -0.9904410    5.1559563   -2.7825464  
H   -1.5965202    5.8450884   -6.8885708  
H   -2.0566084    3.1987947   -7.8326568  
H   -2.2278043   -0.1314499   -6.6673791  
H   -1.7190636   -0.0419606   -3.6988690  
C   -0.3592708    8.6481796   -1.3474845  
C   -0.6132559    7.5492046   -2.1350202  
C   -0.7873413    8.0240156   -3.4687552  
C   -0.6266123    9.4328582   -3.4333084  
N   -0.3696793    9.7790973   -2.1299585  
C   -0.7316442   10.2349522   -4.5736596  
C   -1.0035898    9.6032895   -5.7716687  
O   -1.1162488   10.3386896   -6.9160060  
C   -1.1676389    8.1987201   -5.8272585  
O   -1.4346728    7.7199614   -7.0932864  
C   -1.0644264    7.4068383   -4.7026268  
H   -0.6675892    6.5307383   -1.7903931  
H   -0.2009533   10.7121055   -1.7997940  
H   -0.6103572   11.3092315   -4.5532790  
H   -1.3055040    9.7115758   -7.6260585  
H   -1.5313472    6.7640773   -7.0428548  
H   -0.1729319    8.7149514   -0.2892887  
C    0.8400945    0.7047457    2.2710304  
C    0.0000000    0.0000000    1.4700000  
C   -0.8844236   -0.7423113    2.3369512  
C   -0.4878984   -0.4098547    3.7186280  
N    0.5629682    0.4714286    3.6095011  
C   -1.0836927   -0.9095027    4.8308716  
C   -2.1891196   -1.8367527    4.6554461  
O   -2.7906899   -2.3413415    5.5944904  
C   -2.6257283   -2.2031529    3.2011665  
O   -3.5549479   -2.9829990    3.0410059  
C   -1.9068976   -1.5999348    2.0816745  
H   -0.7774656   -0.6525820    5.8354244  
H   -2.2155208   -1.8586617    1.0779135  
H    1.6384792    1.3747609    1.9961646  
H    1.0518368    0.8833920    4.3830260  
