64

C   -4.4706939    2.1246863   -0.3281855  
C   -5.6599773    1.6264302   -0.8075739  
C   -5.3396884    0.7516505   -1.8877475  
C   -3.9276469    0.7558733   -2.0220869  
N   -3.4313253    1.6012783   -1.0610604  
C   -3.2578655    0.0024282   -2.9908505  
C   -4.0275335   -0.7695739   -3.8392613  
O   -3.4247949   -1.5249625   -4.8031636  
C   -5.4377033   -0.7867282   -3.7211783  
O   -6.0624940   -1.6048442   -4.6396918  
C   -6.0991477   -0.0434783   -2.7658795  
H   -6.6381192    1.8650666   -0.4264133  
H   -2.4588255    1.7971334   -0.9065739  
H   -4.1336024   -1.9789340   -5.2772597  
H   -7.0119838   -1.5590482   -4.4914529  
H   -7.1803458   -0.0766723   -2.6996337  
C   -4.2126224    3.0647260    0.7720983  
C   -5.0905799    3.6981092    1.6209115  
C   -4.3097367    4.5009126    2.5043085  
C   -2.9505723    4.3155474    2.1434221  
N   -2.9270725    3.4361639    1.0895012  
C   -1.8983962    4.9564353    2.8044645  
C   -2.2242440    5.8000468    3.8486485  
O   -1.2358568    6.4514301    4.5282102  
C   -3.5744285    5.9976343    4.2238525  
O   -3.7355264    6.8671197    5.2828064  
C   -4.6129201    5.3655020    3.5723392  
H   -6.1619412    3.5934403    1.6060053  
H   -2.1005312    3.1227131    0.6135188  
H   -0.8604027    4.8192724    2.5343567  
H   -1.6743296    6.9803949    5.2073305  
H   -4.6755693    6.9448342    5.4722345  
H   -5.6372199    5.5363230    3.8823533  
C    0.0000000    0.0000000    0.0000000  
C    1.0521666   -0.0011982   -0.8862343  
C    0.4917215   -0.0011996   -2.1979132  
C   -0.9187429    0.0003215   -2.0478682  
N   -1.1833171   -0.0009323   -0.7007913  
C   -1.7951703    0.0010483   -3.1372089  
C   -1.2375841    0.0005313   -4.4010422  
O   -2.0474218    0.0015510   -5.4997578  
C    0.1673576   -0.0013585   -4.5711963  
O    0.5673520   -0.0020735   -5.8915554  
C    1.0325768   -0.0023493   -3.4969892  
H    2.0953056   -0.0030808   -0.6200564  
H   -2.0989778    0.0102529   -0.2891822  
H   -1.4634888    0.0006601   -6.2693595  
H    1.5290707   -0.0033271   -5.9180047  
H    2.1042146   -0.0039770   -3.6584456  
C    1.1319247   -0.0015655    2.2709268  
C    0.7969915   -0.0034943    3.5869401  
C   -0.6453339   -0.0035710    3.6542670  
C   -1.1266833   -0.0015433    2.2596025  
N    0.0000000    0.0000000    1.4700000  
C   -2.4346130   -0.0013964    1.8976294  
C   -3.4350110   -0.0031408    2.9520183  
O   -4.6384611   -0.0030974    2.7283916  
C   -2.9478959   -0.0050506    4.4361073  
O   -3.7809380   -0.0062218    5.3323774  
C   -1.5113823   -0.0053090    4.7012123  
H    1.4821238   -0.0045407    4.4159191  
H   -2.7664565   -0.0000232    0.8686553  
H   -1.1823530   -0.0068408    5.7314848  
H    2.1104316   -0.0009391    1.8188057  
