60

C    1.1243405    0.0100579   -0.7919005  
C    0.7474061    0.0234979   -2.1148545  
C   -0.6787397    0.0234092   -2.1414699  
C   -1.1201752    0.0097939   -0.7935547  
N    0.0000000    0.0000000    0.0000000  
C   -2.4730815    0.0062265   -0.4408247  
C   -3.3971972    0.0169000   -1.4675061  
O   -4.7313521    0.0143498   -1.1793474  
C   -2.9763670    0.0301768   -2.8186327  
O   -4.0166498    0.0392772   -3.7247625  
C   -1.6418585    0.0334300   -3.1673483  
H   -2.8160167   -0.0042754    0.5845968  
H   -5.1938833    0.0227837   -2.0274383  
H   -3.6464701    0.0480163   -4.6127342  
H   -1.3497495    0.0435080   -4.2109232  
H    2.1062464    0.0054047   -0.3505410  
C    4.5576540   -2.0608770   -2.9109854  
C    3.4088896   -1.6040004   -2.3491312  
C    2.8058657   -0.6998634   -3.2997804  
C    3.7039031   -0.6672365   -4.4699318  
N    4.7468755   -1.5131505   -4.1707198  
C    3.4850151    0.0720187   -5.5867552  
C    2.2849643    0.8903122   -5.6397499  
O    1.9987076    1.5913464   -6.6014719  
C    1.3198855    0.8712925   -4.4117158  
O    0.3065736    1.5563984   -4.4447247  
C    1.6628930    0.0339871   -3.2649301  
H    3.0275645   -1.8698619   -1.3793263  
H    4.1564149    0.0816022   -6.4341283  
H    5.2820356   -2.7514593   -2.5106644  
C    6.4725500   -3.0373545   -5.2371217  
C    7.5040802   -2.9656107   -6.1173905  
C    7.6012087   -1.5886083   -6.5407888  
C    6.5340751   -0.8587650   -5.8299120  
N    5.8860981   -1.7939264   -5.0562918  
C    6.2941787    0.4706878   -5.9591772  
C    7.1435550    1.2336211   -6.8586358  
O    7.0076872    2.4359903   -7.0434310  
C    8.2797367    0.4811195   -7.6219424  
O    9.0010032    1.1128799   -8.3821498  
C    8.4406306   -0.9537160   -7.4001028  
H    8.1258547   -3.7839578   -6.4341218  
H    5.5062069    0.9867389   -5.4284209  
H    9.2297952   -1.4672734   -7.9322682  
H    6.0913067   -3.8940196   -4.7054567  
C    0.8681109    0.7263879    2.2709268  
C    0.6127770    0.5096195    3.5869401  
C   -0.4920590   -0.4175482    3.6542670  
C   -0.8620974   -0.7254003    2.2596025  
N    0.0000000    0.0000000    1.4700000  
C   -1.8641242   -1.5660088    1.8976294  
C   -2.6293522   -2.2103885    2.9520183  
O   -3.5512764   -2.9839180    2.7283916  
C   -2.2549728   -1.8987399    4.4361073  
O   -2.8923672   -2.4351063    5.3323774  
C   -1.1543735   -0.9755647    4.7012123  
H    1.1382914    0.9492124    4.4159191  
H   -2.1192137   -1.7782617    0.8686553  
H   -0.9013378   -0.7652422    5.7314848  
H    1.6172880    1.3558399    1.8188057  
