58

C    9.7202376   -4.3943810   -5.4130538  
C    8.6323024   -3.5846657   -5.3435257  
C    8.1341613   -3.6641083   -3.9906104  
C    9.0274849   -4.5931181   -3.2724842  
N    9.9674195   -5.0007420   -4.1907745  
C    8.8922832   -4.9342571   -1.9659436  
C    7.7934715   -4.3474357   -1.2170842  
O    7.5872110   -4.5916845   -0.0355172  
C    6.8349314   -3.3611774   -1.9575572  
O    5.9060998   -2.8611268   -1.3374915  
C    7.0826286   -3.0706321   -3.3675509  
H    8.2251053   -2.9987552   -6.1482074  
H    9.5586745   -5.6176043   -1.4581374  
H   10.3620894   -4.5993175   -6.2544313  
H   10.7185861   -5.6387138   -4.0015958  
C    6.1745028   -2.1408797   -4.0544039  
C    6.2180773   -1.7334911   -5.3442551  
C    5.0926408   -0.8229047   -5.4882170  
C    4.4611847   -0.7965389   -4.1513732  
N    5.0910258   -1.5671308   -3.3066974  
C    3.2973506   -0.0000934   -3.8752374  
C    2.7877443    0.7368259   -4.8884434  
O    1.7057650    1.5254560   -4.7725804  
C    3.4025812    0.7316581   -6.2486307  
O    2.8855803    1.4266387   -7.1232350  
C    4.5959740   -0.0936230   -6.5067952  
H    6.9265059   -2.0159437   -6.1041411  
H    1.5889228    1.9175682   -5.6567459  
H    5.0113651   -0.0697219   -7.5053484  
C    3.3321174    0.0004714   -1.3379332  
C    2.6974186    0.0000115   -2.5332308  
C    1.2800441   -0.0002119   -2.2052838  
C    1.2395035    0.0000643   -0.7271293  
N    2.4394063    0.0005458   -0.2131034  
C    0.0000000    0.0000000    0.0000000  
C   -1.1468701    0.0000634   -0.7169542  
O   -2.3742201    0.0000072   -0.1695492  
C   -1.1388767    0.0001606   -2.2096354  
O   -2.2206229    0.0000903   -2.7970413  
C    0.1454526    0.0001815   -2.9324239  
H   -2.9844344    0.0001023   -0.9290168  
H    0.1083580    0.0003680   -4.0135594  
H    4.3940040    0.0007617   -1.1498630  
C    2.5128556    2.1077716    2.9199648  
C    1.9592212    1.6432552    4.0696553  
C    0.8915788    0.7479214    3.6910360  
C    0.8684491    0.7287414    2.2159470  
N    1.8754542    1.5738793    1.8102719  
C    0.0000000    0.0000000    1.4700000  
C   -0.9772830   -0.8200135    2.1664417  
O   -1.8021297   -1.5120829    1.5842315  
C   -0.9711318   -0.8147624    3.7284083  
O   -1.7894187   -1.5009653    4.3257297  
C    0.0140216    0.0115358    4.4216297  
H    2.2638494    1.8988021    5.0689105  
H    0.0117648    0.0094386    5.5031631  
H    3.3327358    2.7953732    2.7900019  
H    2.1123206    1.7707734    0.8551938  
