60

C    3.3003543    0.0005276   -1.4738987  
C    2.5232814    0.0003497   -2.6090747  
C    1.1623201   -0.0001318   -2.1820100  
C    1.1711882    0.0000584   -0.7636144  
N    2.4852299   -0.0014918   -0.3662356  
C    0.0000000    0.0000000    0.0000000  
C   -1.2020383    0.0000521   -0.6806484  
O   -2.3759250    0.0003495    0.0157746  
C   -1.2314658   -0.0005110   -2.0955509  
O   -2.5054390   -0.0008035   -2.6250179  
C   -0.0764516   -0.0007271   -2.8495195  
H    2.8919951   -0.0005616   -3.6205302  
H    2.8036261    0.0088182    0.5858657  
H   -3.0835640    0.0000348   -0.6418822  
H   -2.4360046   -0.0011525   -3.5845922  
H    4.3715547    0.0004895   -1.3667137  
C    0.6778498   -0.7280274   -5.1604559  
C    0.3572099   -0.5121162   -6.4622422  
C   -0.7500349    0.4145349   -6.4749820  
C   -1.0503172    0.7230181   -5.0637914  
N   -0.1496415   -0.0015610   -4.3176962  
C   -2.0334658    1.5633981   -4.6528354  
C   -2.8505387    2.2068484   -5.6681675  
O   -3.7605409    2.9801052   -5.3993377  
C   -2.5503714    1.8945198   -7.1688856  
O   -3.2318468    2.4301019   -8.0326014  
C   -1.4639111    0.9716706   -7.4879570  
H   -2.2371053    1.7761244   -3.6125527  
H   -1.2623885    0.7608732   -8.5294351  
H    1.4488982   -1.3568984   -4.7458534  
C    1.0184830   -1.1133085   -7.6293690  
C    2.0582016   -1.9859439   -7.6689690  
C    2.3221891   -2.2633597   -9.0611566  
C    1.3440454   -1.4751395   -9.8349362  
N    0.5830402   -0.8006727   -8.9081918  
C    1.2654063   -1.4634752  -11.1896993  
C    2.2068389   -2.2820328  -11.9354906  
O    2.2167743   -2.3393673  -13.1581579  
C    3.2512529   -3.1250814  -11.1365706  
O    4.0487413   -3.8182933  -11.7536034  
C    3.2381509   -3.0553458   -9.6775239  
H    2.5804793   -2.3894117   -6.8198203  
H    0.5403724   -0.8780341  -11.7378728  
H    3.9646792   -3.6419342   -9.1318177  
H   -0.1710664   -0.1758358   -9.1271646  
C    0.8681109    0.7263879    2.2709268  
C    0.6127770    0.5096195    3.5869401  
C   -0.4920590   -0.4175482    3.6542670  
C   -0.8620974   -0.7254003    2.2596025  
N    0.0000000    0.0000000    1.4700000  
C   -1.8641242   -1.5660088    1.8976294  
C   -2.6293522   -2.2103885    2.9520183  
O   -3.5512764   -2.9839180    2.7283916  
C   -2.2549728   -1.8987399    4.4361073  
O   -2.8923672   -2.4351063    5.3323774  
C   -1.1543735   -0.9755647    4.7012123  
H    1.1382914    0.9492124    4.4159191  
H   -2.1192137   -1.7782617    0.8686553  
H   -0.9013378   -0.7652422    5.7314848  
H    1.6172880    1.3558399    1.8188057  
