58

C    4.2737527    0.5429397   -7.3193637  
C    5.2721481   -0.3006199   -6.9510043  
C    6.2207340   -0.3308009   -8.0391735  
C    5.6893405    0.5708102   -9.0791298  
N    4.5071374    1.0682083   -8.5812537  
C    6.2966081    0.8158897  -10.2677699  
C    7.5576316    0.1468559  -10.5411727  
O    8.1818362    0.3019068  -11.5826269  
C    8.1387797   -0.8125262   -9.4541319  
O    9.1996260   -1.3816262   -9.6731985  
C    7.3926979   -0.9962674   -8.2117737  
H    5.3366417   -0.8402902   -6.0229914  
H    5.8899412    1.4809743  -11.0168999  
H    7.8019914   -1.6620412   -7.4641459  
H    3.9073864    1.7149122   -9.0599189  
C    2.8937200   -0.6810875   -3.3716098  
C    1.7334695    0.0049281   -3.2500363  
C    1.6077149    0.7522589   -4.4918830  
C    2.8122597    0.3892092   -5.2689618  
N    3.5698264   -0.4507652   -4.6174055  
C    3.0644633    0.9274691   -6.5773023  
C    2.1544920    1.7889434   -7.0863688  
O    2.2622348    2.3670678   -8.2947578  
C    0.9287267    2.1746338   -6.3268270  
O    0.1435728    2.9640512   -6.8517780  
C    0.6926282    1.6089292   -4.9866180  
H    1.4670774    2.9242633   -8.3748264  
H   -0.2072110    1.9133941   -4.4691038  
H    3.3447091   -1.3545428   -2.6602446  
C    1.1319246    0.0015678   -0.8009268  
C    0.7969914    0.0034958   -2.1169401  
C   -0.6453340    0.0035696   -2.1842669  
C   -1.1266832    0.0015410   -0.7896025  
N    0.0000000    0.0000000    0.0000000  
C   -2.4346129    0.0013913   -0.4276292  
C   -3.4350111    0.0031335   -1.4820181  
O   -4.6384614    0.0030875   -1.2583914  
C   -2.9478961    0.0050442   -2.9661074  
O   -3.7809382    0.0062135   -3.8623773  
C   -1.5113825    0.0053055   -3.2312122  
H   -2.7664565    0.0000174    0.6013448  
H   -1.1823533    0.0068381   -4.2614848  
H    2.1104316    0.0009435   -0.3488059  
C    2.4951002    2.0940188    2.9809380  
C    1.9440701    1.6314916    1.8291961  
C    0.8759964    0.7350050    2.2038498  
C    0.8497377    0.7130254    3.6788474  
N    1.8560616    1.5571714    4.0882609  
C   -0.0205033   -0.0168748    4.4215661  
C   -0.9962600   -0.8356168    3.7214979  
O   -1.8224391   -1.5286685    4.3006425  
C   -0.9864710   -0.8277881    2.1595606  
O   -1.8030528   -1.5133726    1.5592035  
C    0.0000000    0.0000000    1.4700000  
H    2.2509283    1.8888011    0.8310761  
H   -0.0229599   -0.0187323    5.5027230  
H    3.3143982    2.7817323    3.1139444  
H    2.0889452    1.7545833    5.0442112  
