60

C    0.0000000    0.0000000    0.0000000  
C    1.0521664   -0.0011851   -0.8862348  
C    0.4917202   -0.0011938   -2.1979134  
C   -0.9187444    0.0003096   -2.0478678  
N   -1.1833179   -0.0009472   -0.7007905  
C   -1.7951721    0.0010252   -3.1372078  
C   -1.2375866    0.0005151   -4.4010416  
O   -2.0474248    0.0015244   -5.4997569  
C    0.1673546   -0.0013569   -4.5711962  
O    0.5673488   -0.0020673   -5.8915555  
C    1.0325747   -0.0023369   -3.4969896  
H    2.0953051   -0.0030547   -0.6200575  
H   -2.0989778    0.0102265   -0.2891814  
H   -2.8710949    0.0020268   -3.0295498  
H   -1.4634926    0.0006406   -6.2693586  
H    1.5290671   -0.0033093   -5.9180052  
C    4.2912444   -2.1142262   -1.4465428  
C    5.3462991   -1.6514736   -2.1654271  
C    4.8141523   -0.7556743   -3.1650263  
C    3.3521090   -0.7342993   -2.9681418  
N    3.0997545   -1.5787399   -1.9116728  
C    2.4861677   -0.0045268   -3.7159935  
C    3.0304349    0.8143591   -4.7863833  
O    2.3328448    1.5072196   -5.5155015  
C    4.5758766    0.8067818   -5.0130044  
O    5.0456220    1.4920197   -5.9113639  
C    5.4069258   -0.0204581   -4.1418653  
H    6.3794131   -1.9084809   -2.0129899  
H    4.2838764   -2.8015585   -0.6162357  
H    2.1903382   -1.7741895   -1.5350985  
C    7.6811920   -1.0992698   -4.2963999  
C    6.8600598   -0.0197976   -4.3639023  
C    7.6862634    1.1176929   -4.6930519  
C    9.0659306    0.6087732   -4.8126617  
N    8.9947250   -0.7418158   -4.5602168  
C   10.1446237    1.3749686   -5.1144412  
C    9.9326599    2.7957105   -5.3360228  
O   10.8399483    3.5693256   -5.6128769  
C    8.4798547    3.3563636   -5.2142383  
O    8.2891635    4.5509383   -5.3983257  
C    7.3982515    2.4317446   -4.8839839  
H   11.1483256    0.9817816   -5.1974846  
H    6.3952297    2.8278555   -4.8017274  
H    7.4372935   -2.1258113   -4.0759115  
H    9.7762407   -1.3712680   -4.5685452  
C    0.0000000    0.0000000    1.4700000  
C    1.0541688    0.0001722    2.3260392  
C    0.5103138    0.0000454    3.6635956  
C   -0.9576371   -0.0002459    3.5155732  
N   -1.2018458    0.0001392    2.1615969  
C   -1.8348311   -0.0008317    4.5510609  
C   -1.2972847   -0.0009736    5.9014604  
O   -2.0050672   -0.0014265    6.9001319  
C    0.2542623   -0.0004184    6.0817573  
O    0.7184670   -0.0002256    7.2139121  
C    1.0974552   -0.0000873    4.8889129  
H    2.0940752    0.0005483    2.0517982  
H   -2.9081052   -0.0011668    4.4207061  
H    2.1707277    0.0000911    5.0223670  
H   -2.1128194   -0.0014912    1.7406791  
