60

C    3.3003553    0.0005277   -1.4738972  
C    2.5232826    0.0003499   -2.6090734  
C    1.1623211   -0.0001317   -2.1820095  
C    1.1711890    0.0000584   -0.7636139  
N    2.4852302   -0.0014919   -0.3662346  
C    0.0000000    0.0000000    0.0000000  
C   -1.2020381    0.0000521   -0.6806487  
O   -2.3759247    0.0003495    0.0157730  
C   -1.2314647   -0.0005110   -2.0955514  
O   -2.5054374   -0.0008035   -2.6250194  
C   -0.0764503   -0.0007270   -2.8495198  
H    2.8036263    0.0088182    0.5858675  
H   -3.0835633    0.0000349   -0.6418833  
H   -2.4360028   -0.0011526   -3.5845934  
H   -0.1304074   -0.0013418   -3.9319087  
H    4.3715555    0.0004894   -1.3667115  
C    5.8650080   -2.0107117   -4.7661418  
C    5.0212882   -1.6285493   -3.7793960  
C    4.0882060   -0.7127451   -4.4174869  
C    4.5276509   -0.6558962   -5.8282455  
N    5.5687246   -1.4147709   -6.0386380  
C    3.8513830    0.1541356   -6.8037440  
C    2.7843685    0.8743253   -6.3888445  
O    2.0599319    1.6727811   -7.1911545  
C    2.3162665    0.8377519   -4.9719100  
O    1.3381236    1.5190136   -4.6647624  
C    3.0267455   -0.0008949   -3.9901687  
H    5.0308654   -1.9308546   -2.7461506  
H    1.3721631    2.0479798   -6.6120577  
H    6.7017030   -2.6878025   -4.6993397  
C    5.3612179   -2.9893177   -9.5121626  
C    4.8711740   -2.3054163   -8.4462305  
C    4.7489843   -0.9250287   -8.8517363  
C    5.2112988   -0.8603296  -10.2513325  
N    5.5687801   -2.1444946  -10.5919464  
C    5.2503025    0.2731611  -10.9965722  
C    4.8075983    1.5121308  -10.3789132  
O    4.8047000    2.5856657  -10.9669747  
C    4.3141613    1.4670193   -8.8975995  
O    3.9393182    2.5038813   -8.3668732  
C    4.3180758    0.1850328   -8.1973523  
H    4.6237224   -2.7205262   -7.4854674  
H    5.5928681    0.2988854  -12.0217046  
H    5.5883916   -4.0393776   -9.5996639  
H    5.9236795   -2.4251550  -11.4876709  
C    0.8400945    0.7047457    2.2710304  
C    0.0000000    0.0000000    1.4700000  
C   -0.8844236   -0.7423113    2.3369512  
C   -0.4878984   -0.4098547    3.7186280  
N    0.5629682    0.4714286    3.6095011  
C   -1.0836927   -0.9095027    4.8308716  
C   -2.1891196   -1.8367527    4.6554461  
O   -2.7906899   -2.3413415    5.5944904  
C   -2.6257283   -2.2031529    3.2011665  
O   -3.5549479   -2.9829990    3.0410059  
C   -1.9068976   -1.5999348    2.0816745  
H   -0.7774656   -0.6525820    5.8354244  
H   -2.2155208   -1.8586617    1.0779135  
H    1.6384792    1.3747609    1.9961646  
H    1.0518368    0.8833920    4.3830260  
