62

C   -3.3041146    0.0089503   -1.5420439  
C   -2.5845262    0.0075711   -0.3695859  
C   -1.2039958    0.0033051   -0.7283595  
C   -1.1422343    0.0025310   -2.1454376  
N   -2.4348613    0.0040714   -2.6077473  
C    0.0655165   -0.0010598   -2.8497917  
C    1.2321722   -0.0036143   -2.1101395  
O    2.4392729   -0.0068094   -2.7472517  
C    1.1911166   -0.0032683   -0.6955262  
O    2.4371436   -0.0064567   -0.1032859  
C    0.0000000    0.0000000    0.0000000  
H   -3.0031416    0.0083081    0.6222574  
H   -2.7054323    0.0145347   -3.5745267  
H    0.1193513   -0.0018121   -3.9297470  
H    3.1132883   -0.0084797   -2.0551783  
H    2.3200204   -0.0059602    0.8516413  
C   -5.7131579    0.0154458   -0.7960725  
C   -4.7577049    0.0125445   -1.7610471  
C   -5.4429580    0.0133815   -3.0319770  
C   -6.8863020    0.0170637   -2.7261420  
N   -6.9827184    0.0177640   -1.3537016  
C   -7.8702859    0.0192349   -3.6607408  
C   -7.4818654    0.0176271   -5.0613348  
O   -8.2934521    0.0192952   -5.9776457  
C   -5.9589045    0.0134785   -5.4082907  
O   -5.6198050    0.0117878   -6.5839910  
C   -4.9917123    0.0117008   -4.3135825  
H   -8.9231768    0.0220580   -3.4151327  
H   -3.9391578    0.0090333   -4.5622712  
H   -5.5966382    0.0158683    0.2755208  
C   -8.1957136    2.1483174    2.3270954  
C   -9.4772104    1.6537558    2.4022058  
C   -9.6515647    0.7784153    1.2895603  
C   -8.4322540    0.7785043    0.5648484  
N   -7.5705496    1.6220943    1.2209270  
C   -8.2426771    0.0234236   -0.5964877  
C   -9.3032075   -0.7459942   -1.0340365  
O   -9.1721757   -1.5028218   -2.1623342  
C  -10.5278077   -0.7590145   -0.3248102  
O  -11.4874269   -1.5749502   -0.8875925  
C  -10.7156287   -0.0141486    0.8208009  
H  -10.1980803    1.8951522    3.1644837  
H   -6.6247152    1.8150136    0.9449548  
H  -10.0168663   -1.9545235   -2.2877467  
H  -12.2824446   -1.5263947   -0.3479685  
H  -11.6649807   -0.0441641    1.3426316  
H   -7.6786382    2.8359030    2.9742570  
C    0.8400945    0.7047457    2.2710304  
C    0.0000000    0.0000000    1.4700000  
C   -0.8844236   -0.7423113    2.3369512  
C   -0.4878984   -0.4098547    3.7186280  
N    0.5629682    0.4714286    3.6095011  
C   -1.0836927   -0.9095027    4.8308716  
C   -2.1891196   -1.8367527    4.6554461  
O   -2.7906899   -2.3413415    5.5944904  
C   -2.6257283   -2.2031529    3.2011665  
O   -3.5549479   -2.9829990    3.0410059  
C   -1.9068976   -1.5999348    2.0816745  
H   -0.7774656   -0.6525820    5.8354244  
H   -2.2155208   -1.8586617    1.0779135  
H    1.6384792    1.3747609    1.9961646  
H    1.0518368    0.8833920    4.3830260  
