58

C    9.0917678   -0.0017382    0.1990309  
C    9.7581601   -0.0004566    1.3822441  
C   11.1681746   -0.0015008    1.0712807  
C   11.2693421   -0.0034807   -0.4006405  
N    9.9757869   -0.0039291   -0.8692600  
C   12.4377017   -0.0045181   -1.0910307  
C   13.6783592   -0.0038511   -0.3338605  
O   14.7819123   -0.0047464   -0.8634526  
C   13.5949336   -0.0020113    1.2258964  
O   14.6328030   -0.0017425    1.8740376  
C   12.2771846   -0.0007354    1.8562846  
H    9.3128004    0.0008660    2.3611544  
H   12.4898553   -0.0058384   -2.1709326  
H   12.2280871    0.0007409    2.9367063  
H    9.7142051   -0.0036304   -1.8380852  
C    6.6685711   -0.0005966    0.8976878  
C    7.6427397   -0.0013904   -0.0483931  
C    6.9825040   -0.0021115   -1.3324975  
C    5.5334440   -0.0016403   -1.0549831  
N    5.4101705   -0.0011223    0.3153065  
C    4.5679461   -0.0016854   -2.0086701  
C    4.9837200   -0.0024605   -3.4013893  
O    4.1902296   -0.0026238   -4.3334163  
C    6.5131881   -0.0032214   -3.7184584  
O    6.8752474   -0.0041840   -4.8872923  
C    7.4587612   -0.0028164   -2.6050211  
H    8.5159867   -0.0031429   -2.8330520  
H    6.7640843    0.0001113    1.9713569  
H    4.5400776    0.0008356    0.8152882  
C    3.1301149   -0.0010311   -1.7028252  
C    2.5367768   -0.0002767   -0.4864665  
C    1.1089904    0.0001028   -0.7656183  
C    1.0177872   -0.0004148   -2.2415132  
N    2.1993578   -0.0011611   -2.7963820  
C   -0.2459209   -0.0002877   -2.9257118  
C   -1.3675319   -0.0000605   -2.1698524  
O   -2.6129313    0.0000867   -2.6748490  
C   -1.3083584    0.0000910   -0.6783232  
O   -2.3693261    0.0004206   -0.0541692  
C    0.0000000    0.0000000    0.0000000  
H    3.0096017   -0.0001007    0.4807525  
H   -0.2829630   -0.0004687   -4.0053125  
H   -3.1967441    0.0002094   -1.8949034  
C    2.3971438    2.0127888    3.1728260  
C    1.9431056    1.6308205    1.9564670  
C    0.8496017    0.7127664    2.2356185  
C    0.7794028    0.6545384    3.7115134  
N    1.6840587    1.4146091    4.2663826  
C   -0.1885723   -0.1578550    4.3957118  
C   -1.0476298   -0.8789867    3.6398520  
O   -2.0015663   -1.6796266    4.1448486  
C   -1.0022026   -0.8410666    2.1483229  
O   -1.8147390   -1.5232959    1.5241687  
C    0.0000000    0.0000000    1.4700000  
H    2.3054237    1.9346118    0.9892483  
H   -0.2170646   -0.1815267    5.4753125  
H   -2.4487139   -2.0549881    3.3649027  
H    3.2048689    2.6911772    3.3971983  
