60

C    3.3041272    0.0001182   -1.5420430  
C    2.5845371   -0.0004777   -0.3695856  
C    1.2040006   -0.0000006   -0.7283593  
C    1.1422372    0.0006038   -2.1454372  
N    2.4348640    0.0026113   -2.6077468  
C   -0.0655182    0.0008798   -2.8497918  
C   -1.2321767    0.0002323   -2.1101399  
O   -2.4392815    0.0001145   -2.7472521  
C   -1.1911210   -0.0000006   -0.6955266  
O   -2.4371527   -0.0002323   -0.1032862  
C    0.0000000    0.0000000    0.0000000  
H    3.0031537   -0.0000657    0.6222579  
H    2.7054627   -0.0071095   -3.5745262  
H   -3.1132989   -0.0000651   -2.0551787  
H   -2.3200282   -0.0004073    0.8516412  
H    4.3686620    0.0004077   -1.7024292  
C    2.3446867   -2.1385760   -5.7825616  
C    1.7992123   -1.7303703   -6.9519226  
C    0.7308349   -0.8198484   -6.5697986  
C    0.7735870   -0.7944100   -5.0919257  
N    1.7176441   -1.5654466   -4.6247550  
C   -0.1387084    0.0017018   -4.3179686  
C   -1.0519392    0.7391880   -4.9898749  
O   -1.9638782    1.5275961   -4.3958874  
C   -1.1200798    0.7349601   -6.4810150  
O   -1.9771140    1.4304198   -7.0260372  
C   -0.1732961   -0.0899946   -7.2523611  
H    2.0864369   -2.0122475   -7.9504827  
H   -2.4685607    1.9202478   -5.1309194  
H   -0.2553896   -0.0654081   -8.3307333  
C    3.4652987   -3.0686354   -5.5822665  
C    4.2068355   -3.7278502   -6.5094308  
C    5.1805636   -4.5134697   -5.7886730  
C    4.9438110   -4.2560896   -4.3553219  
N    3.8913106   -3.3718677   -4.2980144  
C    5.6588754   -4.8137138   -3.3456479  
C    6.7335294   -5.7282485   -3.6939031  
O    7.4348923   -6.2813987   -2.8569943  
C    7.0021004   -6.0151826   -5.2056385  
O    7.9044144   -6.7831870   -5.5110210  
C    6.1640501   -5.3543972   -6.2030782  
H    4.0856646   -3.6701950   -7.5764858  
H    5.4688290   -4.6116262   -2.3006828  
H    6.3563593   -5.5585662   -7.2476142  
H    3.4926092   -3.0050616   -3.4533027  
C    0.0000000    0.0000000    1.4700000  
C    1.0541688    0.0001722    2.3260392  
C    0.5103138    0.0000454    3.6635956  
C   -0.9576371   -0.0002459    3.5155732  
N   -1.2018458    0.0001392    2.1615969  
C   -1.8348311   -0.0008317    4.5510609  
C   -1.2972847   -0.0009736    5.9014604  
O   -2.0050672   -0.0014265    6.9001319  
C    0.2542623   -0.0004184    6.0817573  
O    0.7184670   -0.0002256    7.2139121  
C    1.0974552   -0.0000873    4.8889129  
H    2.0940752    0.0005483    2.0517982  
H   -2.9081052   -0.0011668    4.4207061  
H    2.1707277    0.0000911    5.0223670  
H   -2.1128194   -0.0014912    1.7406791  
