58

C    2.7524404    2.2033912   -2.8642448  
C    1.6367583    1.9634904   -3.6002996  
C    1.5487627    3.0146995   -4.5862266  
C    2.7129961    3.8929713   -4.3626442  
N    3.4022679    3.3463528   -3.3048152  
C    2.9897128    5.0034584   -5.0919941  
C    2.0800613    5.3573923   -6.1689345  
O    2.2424672    6.3384787   -6.8826536  
C    0.8405006    4.4416715   -6.4233943  
O    0.0674713    4.7297661   -7.3271017  
C    0.6482964    3.2711505   -5.5708743  
H   -0.2123088    2.6421464   -5.7537308  
H    3.1544806    1.6414954   -2.0368836  
H    4.2482759    3.7190538   -2.9144158  
C    0.0000000    0.0000000    0.0000000  
C    0.6750715    0.8096610   -0.8560388  
C    0.3267671    0.3919749   -2.1935956  
C   -0.6133226   -0.7354611   -2.0455734  
N   -0.7693836   -0.9232996   -0.6915975  
C   -1.1754020   -1.4089115   -3.0810616  
C   -0.8313432   -0.9958981   -4.4314610  
O   -1.2848536   -1.5392986   -5.4301327  
C    0.1624721    0.1955836   -4.6117574  
O    0.4598309    0.5520445   -5.7439117  
C    0.7025866    0.8430788   -3.4189126  
H    1.3411676    1.6082351   -0.5817976  
H   -1.8628308   -2.2331437   -2.9507073  
H   -1.3538933   -1.6220303   -0.2706797  
C    7.1475373    4.0453620   -4.0537818  
C    7.6568821    5.3022134   -3.9832961  
C    6.5757382    6.2118861   -4.2807188  
C    5.3862423    5.3759842   -4.5320311  
N    5.7999074    4.0727550   -4.3791799  
C    4.1583784    5.8607636   -4.8467436  
C    3.9977012    7.3019869   -4.9446897  
O    2.9319280    7.8360300   -5.2225858  
C    5.2440263    8.2063630   -4.6828050  
O    5.1209835    9.4211624   -4.7627045  
C    6.5150820    7.5674335   -4.3510839  
H    8.6739394    5.5623749   -3.7497969  
H    7.3731535    8.2006873   -4.1710085  
H    7.6433331    3.1014050   -3.8955996  
H    5.2127514    3.2659069   -4.4854407  
C    3.3321173   -0.0004715    2.8079335  
C    2.6974184   -0.0000116    4.0032312  
C    1.2800439    0.0002118    3.6752840  
C    1.2395035   -0.0000644    2.1971295  
N    2.4394063   -0.0005460    1.6831036  
C    0.0000000    0.0000000    1.4700000  
C   -1.1468701   -0.0000635    2.1869543  
O   -2.3742202   -0.0000073    1.6395491  
C   -1.1388768   -0.0001607    3.6796354  
O   -2.2206231   -0.0000905    4.2670412  
C    0.1454524   -0.0001816    4.4024240  
H    3.1367986    0.0000651    4.9860947  
H   -2.9844344   -0.0001026    2.3990168  
H    0.1083576   -0.0003682    5.4835595  
H    4.3940039   -0.0007619    2.6198634  
