58

C    1.0639010   -0.0252099   -4.6315339  
C   -0.2005759   -0.0055397   -5.1262930  
C   -0.0894609   -0.0091811   -6.5659026  
C    1.3537489   -0.0327833   -6.8714827  
N    1.9982432   -0.0411661   -5.6559799  
C    1.8742440   -0.0431644   -8.1247507  
C    0.9514451   -0.0300021   -9.2476060  
O    1.3217821   -0.0377584  -10.4142641  
C   -0.5812014   -0.0047209   -8.9473386  
O   -1.3677481    0.0068357   -9.8846067  
C   -1.0214470    0.0042994   -7.5545165  
H   -1.1076283    0.0099554   -4.5486870  
H    2.9361591   -0.0606244   -8.3270903  
H    2.9939413   -0.0584729   -5.5321523  
C   -1.1317923    0.0173898   -0.8009271  
C   -0.7969379    0.0098526   -2.1169403  
C    0.6451838   -0.0143770   -2.1842675  
C    1.1264996   -0.0204102   -0.7896027  
N    0.0000000    0.0000000    0.0000000  
C    2.4342482   -0.0421656   -0.4276298  
C    3.4344769   -0.0606621   -1.4820177  
O    4.6377589   -0.0807713   -1.2583910  
C    2.9473983   -0.0544144   -2.9661070  
O    3.7803037   -0.0695353   -3.8623774  
C    1.5110817   -0.0306171   -3.2312126  
H   -1.4819916    0.0202795   -2.9459196  
H    2.7660683   -0.0463495    0.6013453  
H   -2.1101517    0.0344019   -0.3488057  
C   -3.4573746    2.1419182   -4.5556379  
C   -2.4345183    1.6618630   -5.3088889  
C   -3.0139666    0.7731392   -6.2882987  
C   -4.4686830    0.7748166   -6.0421525  
N   -4.6719831    1.6238542   -4.9788117  
C   -5.3706998    0.0582445   -6.7595055  
C   -4.8757231   -0.7700929   -7.8464227  
O   -5.6082774   -1.4525080   -8.5506780  
C   -3.3388315   -0.7872858   -8.1247646  
O   -2.9103659   -1.4811323   -9.0370446  
C   -2.4660591    0.0278330   -7.2835143  
H   -1.3929439    1.9026864   -5.1916680  
H   -6.4336672    0.0736996   -6.5626000  
H   -3.4260259    2.8304075   -3.7268496  
H   -5.5653278    1.8361853   -4.5739684  
C    2.3971438    2.0127888    3.1728260  
C    1.9431056    1.6308205    1.9564670  
C    0.8496017    0.7127664    2.2356185  
C    0.7794028    0.6545384    3.7115134  
N    1.6840587    1.4146091    4.2663826  
C   -0.1885723   -0.1578550    4.3957118  
C   -1.0476298   -0.8789867    3.6398520  
O   -2.0015663   -1.6796266    4.1448486  
C   -1.0022026   -0.8410666    2.1483229  
O   -1.8147390   -1.5232959    1.5241687  
C    0.0000000    0.0000000    1.4700000  
H    2.3054237    1.9346118    0.9892483  
H   -0.2170646   -0.1815267    5.4753125  
H   -2.4487139   -2.0549881    3.3649027  
H    3.2048689    2.6911772    3.3971983  
