58

C   -9.1327109    3.0051736   -1.4581565  
C  -10.2724644    2.2682066   -1.4143801  
C   -9.9040863    0.9048937   -1.7152298  
C   -8.4458308    0.9080337   -1.9394462  
N   -8.0391962    2.2113239   -1.7692314  
C   -7.7131165   -0.1915623   -2.2488359  
C   -8.4070865   -1.4629568   -2.3692399  
O   -7.8360254   -2.5100797   -2.6444196  
C   -9.9513664   -1.4895994   -2.1362254  
O  -10.5465029   -2.5541548   -2.2351900  
C  -10.6312654   -0.2391326   -1.8077100  
H  -11.2587288    2.6375102   -1.1964100  
H  -11.7005581   -0.2661579   -1.6476900  
H   -8.9996462    4.0614662   -1.2895495  
H   -7.0934003    2.5354795   -1.8554924  
C   -4.6051151    2.0113810   -0.1334484  
C   -3.4864975    1.6298262   -0.7927588  
C   -3.9518793    0.7119509   -1.8210703  
C   -5.4173875    0.6533628   -1.6328199  
N   -5.8061459    1.4130851   -0.6450558  
C   -6.2597398   -0.1589839   -2.4668592  
C   -5.6651263   -0.8797267   -3.4447650  
O   -6.3285769   -1.6802773   -4.2962297  
C   -4.1885397   -0.8414367   -3.6601392  
O   -3.7155084   -1.5233211   -4.5692574  
C   -3.3460097   -0.0004262   -2.7913647  
H   -2.4709784    1.9337813   -0.6045895  
H   -5.6384844   -2.0553379   -4.8726450  
H   -4.6853284    2.6895276    0.7012110  
C    0.0000000    0.0000000    0.0000000  
C    1.0662919   -0.0000103   -0.8334272  
C    0.4961868    0.0000066   -2.1718889  
C   -0.9663860   -0.0000849   -1.9540248  
N   -1.2632775   -0.0000084   -0.6828659  
C   -1.8985364   -0.0000515   -3.0477258  
C   -1.3925778    0.0004567   -4.3020543  
O   -2.1456385    0.0005412   -5.4151314  
C    0.0786229    0.0009326   -4.5544999  
O    0.4683756    0.0012594   -5.7221104  
C    1.0143162    0.0008443   -3.4159034  
H    2.1107195    0.0000631   -0.5721869  
H   -1.5042277    0.0009692   -6.1484420  
H    2.0724151    0.0013151   -3.6409746  
C    3.1301144    0.0010313    3.1728260  
C    2.5367765    0.0002768    1.9564670  
C    1.1089900   -0.0001027    2.2356185  
C    1.0177864    0.0004150    3.7115134  
N    2.1993570    0.0011613    4.2663826  
C   -0.2459220    0.0002880    4.3957118  
C   -1.3675327    0.0000606    3.6398520  
O   -2.6129319   -0.0000866    4.1448486  
C   -1.3083589   -0.0000910    2.1483229  
O   -2.3693264   -0.0004206    1.5241687  
C    0.0000000    0.0000000    1.4700000  
H    3.0096015    0.0001008    0.9892483  
H   -0.2829642    0.0004689    5.4753125  
H   -3.1967446   -0.0002093    3.3649027  
H    4.1849273    0.0015113    3.3971983  
