62

C    1.1243402    0.0100689   -0.7919007  
C    0.7474053    0.0235052   -2.1148548  
C   -0.6787403    0.0234026   -2.1414698  
C   -1.1201753    0.0097828   -0.7935546  
N    0.0000000    0.0000000    0.0000000  
C   -2.4730829    0.0062023   -0.4408232  
C   -3.3971971    0.0168662   -1.4675058  
O   -4.7313532    0.0143033   -1.1793458  
C   -2.9763678    0.0301476   -2.8186313  
O   -4.0166516    0.0392378   -3.7247615  
C   -1.6418599    0.0334139   -3.1673478  
H   -2.8160155   -0.0043031    0.5845969  
H   -5.1938842    0.0227325   -2.0274367  
H   -3.6464717    0.0479802   -4.6127334  
H   -1.3497512    0.0434945   -4.2109229  
H    2.1062459    0.0054255   -0.3505413  
C    4.5591040   -2.0908367   -2.8627791  
C    4.8002487   -1.5799956   -4.1171146  
C    3.7183613   -0.7026895   -4.4244489  
C    2.8404238   -0.7184132   -3.3104903  
N    3.3797220   -1.5727930   -2.3810763  
C    1.6628917    0.0340035   -3.2649306  
C    1.3663827    0.8167827   -4.3638010  
O    0.2292580    1.5716967   -4.3719361  
C    2.2296355    0.8455015   -5.4848660  
O    1.7956875    1.6734903   -6.4994928  
C    3.3913290    0.1032736   -5.5306120  
H    2.9827848   -1.7777778   -1.4819636  
H    0.2145592    2.0340902   -5.2200169  
H    2.4347302    1.6351441   -7.2176555  
H    4.0327708    0.1454529   -6.4031093  
H    5.1343445   -2.7848405   -2.2742080  
C    5.9614858   -1.8968882   -4.9609203  
C    6.9929905   -2.7272346   -4.6814543  
C    7.8508235   -2.6678681   -5.8549525  
C    7.1668610   -1.7284788   -6.7694615  
N    6.0588440   -1.2732230   -6.2507798  
C    7.7046579   -1.3954079   -8.0597814  
C    8.8728342   -1.9741667   -8.4199686  
O    9.4886337   -1.7545180   -9.5941008  
C    9.5873280   -2.9259829   -7.5190216  
O   10.6462445   -3.4152749   -7.9120990  
C    9.0152781   -3.2515794   -6.2004352  
H    7.1521465   -3.3081947   -3.7891367  
H    7.1834749   -0.7059245   -8.7077713  
H   10.2925888   -2.3036763   -9.5589745  
H    9.5635828   -3.9454144   -5.5773906  
C    2.5128556    2.1077716    2.9199648  
C    1.9592212    1.6432552    4.0696553  
C    0.8915788    0.7479214    3.6910360  
C    0.8684491    0.7287414    2.2159470  
N    1.8754542    1.5738793    1.8102719  
C    0.0000000    0.0000000    1.4700000  
C   -0.9772830   -0.8200135    2.1664417  
O   -1.8021297   -1.5120829    1.5842315  
C   -0.9711318   -0.8147624    3.7284083  
O   -1.7894187   -1.5009653    4.3257297  
C    0.0140216    0.0115358    4.4216297  
H    2.2638494    1.8988021    5.0689105  
H    0.0117648    0.0094386    5.5031631  
H    3.3327358    2.7953732    2.7900019  
H    2.1123206    1.7707734    0.8551938  
