58

C    1.0965514    0.0001359   -0.8010305  
C    0.0000000    0.0000000    0.0000000  
C   -1.1546564    0.0001470   -0.8669509  
C   -0.6372019    0.0003521   -2.2486280  
N    0.7342869    0.0007339   -2.1395010  
C   -1.4147744    0.0001354   -3.3608710  
C   -2.8576055   -0.0001048   -3.1854456  
O   -3.6427781   -0.0002489   -4.1244902  
C   -3.4275843   -0.0000726   -1.7311659  
O   -4.6406828    0.0000334   -1.5710051  
C   -2.4891866   -0.0001091   -0.6116744  
H   -1.0150453    0.0001618   -4.3654242  
H   -2.8919120   -0.0002919    0.3920864  
H    2.1388270    0.0000663   -0.5261644  
C    4.5566853   -2.0943509   -2.8440025  
C    3.3981922   -1.6309278   -2.3080843  
C    2.8135372   -0.7361947   -3.2788915  
C    3.7329563   -0.7162208   -4.4326073  
N    4.7695081   -1.5597352   -4.1056014  
C    3.5352810    0.0116651   -5.5607967  
C    2.3371276    0.8302005   -5.6442438  
O    2.0692117    1.5215083   -6.6182129  
C    1.3496272    0.8244746   -4.4340312  
O    0.3376968    1.5099055   -4.4926967  
C    1.6707639   -0.0012341   -3.2725972  
H    2.9988744   -1.8865413   -1.3427757  
H    5.2729793   -2.7812824   -2.4233624  
H    5.5580252   -1.7581542   -4.6937494  
C    5.8696021   -3.1944211   -7.5020300  
C    5.0406454   -2.4865026   -6.6922416  
C    5.0901449   -1.1133776   -7.1359898  
C    6.0225533   -1.0791138   -8.2788943  
N    6.4605302   -2.3721738   -8.4493707  
C    6.3405393    0.0394297   -8.9785015  
C    5.7234287    1.2932807   -8.5790419  
O    5.9453396    2.3552254   -9.1459026  
C    4.7330420    1.2804063   -7.3712449  
O    4.2075945    2.3300210   -7.0255939  
C    4.4691795    0.0122186   -6.6960209  
H    4.4608214   -2.8811448   -5.8769654  
H    7.0268687    0.0428380   -9.8138755  
H    6.0986933   -4.2475878   -7.4863097  
H    7.1079931   -2.6726692   -9.1547363  
C    2.5128556    2.1077716    2.9199648  
C    1.9592212    1.6432552    4.0696553  
C    0.8915788    0.7479214    3.6910360  
C    0.8684491    0.7287414    2.2159470  
N    1.8754542    1.5738793    1.8102719  
C    0.0000000    0.0000000    1.4700000  
C   -0.9772830   -0.8200135    2.1664417  
O   -1.8021297   -1.5120829    1.5842315  
C   -0.9711318   -0.8147624    3.7284083  
O   -1.7894187   -1.5009653    4.3257297  
C    0.0140216    0.0115358    4.4216297  
H    2.2638494    1.8988021    5.0689105  
H    0.0117648    0.0094386    5.5031631  
H    3.3327358    2.7953732    2.7900019  
H    2.1123206    1.7707734    0.8551938  
