58

C   -2.7442351   -0.0006479   -8.6694132  
C   -3.8304865   -0.0013293   -7.8544699  
C   -4.9961004   -0.0019735   -8.7066318  
C   -4.4963003   -0.0016381  -10.0947926  
N   -3.1235322   -0.0004331  -10.0031573  
C   -5.2879873   -0.0024544  -11.1970335  
C   -6.7284641   -0.0035236  -11.0032306  
O   -7.5255434   -0.0042504  -11.9321888  
C   -7.2798594   -0.0036436   -9.5418033  
O   -8.4908177   -0.0042333   -9.3661915  
C   -6.3272675   -0.0029846   -8.4343639  
H   -3.8167774   -0.0011931   -6.7790976  
H   -4.9010962   -0.0023194  -12.2066003  
H   -6.7171653   -0.0032780   -7.4255511  
H   -2.4941438   -0.0014974  -10.7847691  
C   -0.8287671    0.0000935   -4.7555305  
C    0.4848180    0.0005136   -5.0812189  
C    0.5106012    0.0006419   -6.5358099  
C   -0.9135390    0.0001374   -6.9338157  
N   -1.7033614   -0.0001048   -5.8945036  
C   -1.3181690    0.0001434   -8.3127145  
C   -0.3443518    0.0010204   -9.2513381  
O   -0.5775778    0.0011269  -10.5748351  
C    1.1017781    0.0019181   -8.8813809  
O    1.9341164    0.0025672   -9.7882621  
C    1.4913199    0.0018495   -7.4600500  
H    1.3316902    0.0008023   -4.4164762  
H    0.3072615    0.0018584  -10.9825256  
H    2.5491446    0.0026319   -7.2336960  
C    1.0672566   -0.0000698   -0.8321912  
C    0.0000000    0.0000000    0.0000000  
C   -1.1601226   -0.0000736   -0.8778472  
C   -0.5938732   -0.0000770   -2.2438435  
N    0.7113365   -0.0001555   -2.2234123  
C   -1.4286989   -0.0001880   -3.4135239  
C   -2.7683117   -0.0006800   -3.2270522  
O   -3.6653907   -0.0008306   -4.2276967  
C   -3.3702026   -0.0010611   -1.8610771  
O   -4.5974909   -0.0013781   -1.7662957  
C   -2.4926826   -0.0008944   -0.6770655  
H   -4.5324249   -0.0012263   -3.7833950  
H   -2.9677773   -0.0012975    0.2947963  
H    2.1134390   -0.0000546   -0.5705121  
C    2.5528530    2.1414826    2.8079335  
C    2.0663498    1.7338582    4.0032312  
C    0.9804344    0.8229586    3.6752840  
C    0.9495562    0.7966882    2.1971295  
N    1.8690446    1.5676019    1.6831036  
C    0.0000000    0.0000000    1.4700000  
C   -0.8785127   -0.7372425    2.1869543  
O   -1.8187535   -1.5261249    1.6395491  
C   -0.8723269   -0.7321790    3.6796354  
O   -1.7010379   -1.4274584    4.2670412  
C    0.1115397    0.0933559    4.4024240  
H    2.4028853    2.0163452    4.9860947  
H   -2.2861435   -1.9184361    2.3990168  
H    0.0832434    0.0693689    5.4835595  
H    3.3664920    2.8238276    2.6198634  
