58

C   -4.7161315    0.0019806   -1.6923275  
C   -5.6957059    0.0027954   -0.7518443  
C   -6.9559325    0.0031796   -1.4565888  
C   -6.6279059    0.0024877   -2.8950562  
N   -5.2541433    0.0021768   -2.9703270  
C   -7.5472407    0.0021949   -3.8933189  
C   -8.9536499    0.0028134   -3.5265108  
O   -9.8573540    0.0026741   -4.3521136  
C   -9.3240192    0.0038032   -2.0090688  
O  -10.5048011    0.0046365   -1.6881119  
C   -8.2443350    0.0037592   -1.0251305  
H   -5.5518779    0.0032758    0.3139539  
H   -8.5092033    0.0042424    0.0234721  
H   -4.7240348    0.0001421   -3.8224002  
C   -3.2573657    0.0012846   -1.5109392  
C   -2.5379457    0.0009443   -0.3591970  
C   -1.1435032    0.0003153   -0.7338501  
C   -1.1092595    0.0003463   -2.2088478  
N   -2.4227545    0.0005474   -2.6182617  
C    0.0265547    0.0002444   -2.9515659  
C    1.3003050   -0.0001322   -2.2514972  
O    2.3786795   -0.0003114   -2.8306412  
C    1.2877728   -0.0004235   -0.6895599  
O    2.3539962   -0.0010479   -0.0892025  
C    0.0000000    0.0000000    0.0000000  
H   -2.9384089    0.0009321    0.6389230  
H    0.0296320    0.0003996   -4.0327227  
H   -2.7280465    0.0021721   -3.5742123  
C   -6.1824391   -0.7040159   -5.8929655  
C   -7.1912937    0.0013269   -5.3195731  
C   -7.8392606    0.7432569   -6.3752782  
C   -7.1200712    0.4099259   -7.6196441  
N   -6.1271532   -0.4714482   -7.2588337  
C   -7.4286720    0.9090051   -8.8433228  
C   -8.5434146    1.8365219   -8.9412849  
O   -8.8995571    2.3406451   -9.9983206  
C   -9.3190664    2.2038453   -7.6362013  
O  -10.2591911    2.9839233   -7.7062278  
C   -8.8928744    1.6011821   -6.3756418  
H   -6.8883886    0.6514460   -9.7436931  
H   -9.4352908    1.8605472   -5.4766213  
H   -5.4745616   -1.3739866   -5.4325981  
H   -5.4656487   -0.8839405   -7.8907427  
C    0.0000000    0.0000000    1.4700000  
C    1.0662921    0.0000102    2.3034270  
C    0.4961870   -0.0000064    3.6418889  
C   -0.9663858    0.0000850    3.4240247  
N   -1.2632773    0.0000084    2.1528658  
C   -1.8985362    0.0000517    4.5177257  
C   -1.3925775   -0.0004564    5.7720543  
O   -2.1456383   -0.0005410    6.8851312  
C    0.0786232   -0.0009323    6.0245000  
O    0.4683759   -0.0012588    7.1921102  
C    1.0143166   -0.0008442    4.8859032  
H    2.1107198   -0.0000632    2.0421868  
H   -2.9622183    0.0003270    4.3293377  
H   -1.5042274   -0.0009692    7.6184419  
H    2.0724152   -0.0013148    5.1109744  
