58

C    7.2731049   -0.0034291    2.5928544  
C    6.5570100   -0.0036654    3.7466671  
C    7.5085322   -0.0046869    4.8326884  
C    8.8472727   -0.0049997    4.2125559  
N    8.6350744   -0.0046025    2.8531954  
C   10.0149646   -0.0055212    4.9040757  
C    9.9487970   -0.0060188    6.3560255  
O   10.9443560   -0.0065678    7.0681801  
C    8.5416196   -0.0059514    7.0340053  
O    8.4733573   -0.0066739    8.2557262  
C    7.3545773   -0.0050870    6.1826640  
H    5.4846110   -0.0033618    3.8277349  
H   10.9865283   -0.0056131    4.4297614  
H    6.3840294   -0.0048405    6.6599071  
H    9.3582094   -0.0031285    2.1574069  
C    6.7921787   -0.0024529    1.2037505  
C    5.5119019   -0.0013791    0.7650373  
C    5.6127417   -0.0007797   -0.6862830  
C    7.0661036   -0.0015327   -0.9589046  
N    7.7625294   -0.0025955    0.1451691  
C    7.5891409   -0.0012857   -2.2973807  
C    6.7006590   -0.0007189   -3.3171523  
O    7.0481224   -0.0004246   -4.6153470  
C    5.2278296   -0.0003233   -3.0743867  
O    4.4775294    0.0003121   -4.0502297  
C    4.7161325   -0.0005435   -1.6923264  
H    4.6104180   -0.0011262    1.3535969  
H    8.6559200   -0.0016445   -2.4673550  
H    6.2020990   -0.0000590   -5.0984587  
C    3.2573665   -0.0002920   -1.5109385  
C    2.5379463   -0.0001709   -0.3591964  
C    1.1435038    0.0000331   -0.7338500  
C    1.1092599   -0.0000083   -2.2088477  
N    2.4227553    0.0001909   -2.6182613  
C   -0.0265539   -0.0002524   -2.9515660  
C   -1.3003040   -0.0002640   -2.2514977  
O   -2.3786790   -0.0004133   -2.8306421  
C   -1.2877727    0.0000311   -0.6895603  
O   -2.3539959    0.0003306   -0.0892030  
C    0.0000000    0.0000000    0.0000000  
H    2.9384091   -0.0000367    0.6389234  
H   -0.0296303   -0.0004086   -4.0327229  
H    2.7280482   -0.0013407   -3.5742119  
C    0.8175213    0.6860729    2.3021913  
C    0.0000000    0.0000000    1.4700000  
C   -0.8887526   -0.7456559    2.3478473  
C   -0.4549825   -0.3816753    3.7138435  
N    0.5448156    0.4573574    3.6934124  
C   -1.0945674   -0.9182058    4.8835240  
C   -2.1210866   -1.7789155    4.6970523  
O   -2.8083856   -2.3554314    5.6976972  
C   -2.5824069   -2.1655116    3.3310774  
O   -3.5227682   -2.9541547    3.2362962  
C   -1.9100805   -1.6015804    2.1470656  
H   -0.7567140   -0.6349833    5.8697035  
H   -3.4728268   -2.9124471    5.2533954  
H   -2.2742832   -1.9066565    1.1752040  
H    1.6189533    1.3585343    2.0405121  
