60

C   -1.1178032   -0.0487174   -0.8003807  
C    0.0000000    0.0000000    0.0000000  
C    1.1313866    0.0475856   -0.8673522  
C    0.6377658    0.0253564   -2.1969277  
N   -0.7315650   -0.0351970   -2.1202240  
C    1.4758554    0.0605014   -3.3154803  
C    2.8370351    0.1194616   -3.0876848  
O    3.7006302    0.1561155   -4.1440335  
C    3.3487744    0.1420901   -1.7684323  
O    4.7257669    0.2012464   -1.7073109  
C    2.5225792    0.1071713   -0.6644810  
H    1.1059018    0.0436821   -4.3313806  
H    4.5898871    0.1944773   -3.7685115  
H    4.9889141    0.2130323   -0.7819903  
H    2.9435814    0.1255624    0.3339667  
H   -2.1599672   -0.0934841   -0.5342069  
C   -1.6467605   -0.0605395   -3.2703000  
C   -2.9988600   -0.1176637   -3.2583483  
C   -3.3866698   -0.1178897   -4.6605265  
C   -2.1081509   -0.0553822   -5.4008412  
N   -1.0847501   -0.0216367   -4.5912111  
C   -2.0606665   -0.0368845   -6.8369782  
C   -3.2369342   -0.0793092   -7.5032589  
O   -3.3414552   -0.0683796   -8.8430339  
C   -4.5437085   -0.1431429   -6.7846303  
O   -5.5751889   -0.1792305   -7.4554269  
C   -4.5660126   -0.1609541   -5.3111621  
H   -3.6523510   -0.1551227   -2.4035834  
H   -4.2991948   -0.1071749   -9.0173392  
H   -5.5329378   -0.2077421   -4.8283622  
C    1.8350657   -1.9759593   -6.0888540  
C    0.5414847   -1.5687464   -6.0188468  
C    0.3231716   -0.6680125   -7.1260288  
C    1.6047827   -0.5832601   -7.8520319  
N    2.4798542   -1.3988124   -7.1723157  
C    1.8110230    0.1688043   -8.9626934  
C    0.6964054    0.9468626   -9.4772687  
O    0.7815968    1.6555706  -10.4716410  
C   -0.6699925    0.8723624   -8.7241341  
O   -1.6155233    1.5232798   -9.1478539  
C   -0.7699913    0.0259639   -7.5377688  
H   -0.1776565   -1.8653481   -5.2762316  
H    2.7590403    0.2168588   -9.4802494  
H    2.3716429   -2.6489574   -5.4399712  
H    3.4385967   -1.5527854   -7.4255991  
C    2.5128556    2.1077716    2.9199648  
C    1.9592212    1.6432552    4.0696553  
C    0.8915788    0.7479214    3.6910360  
C    0.8684491    0.7287414    2.2159470  
N    1.8754542    1.5738793    1.8102719  
C    0.0000000    0.0000000    1.4700000  
C   -0.9772830   -0.8200135    2.1664417  
O   -1.8021297   -1.5120829    1.5842315  
C   -0.9711318   -0.8147624    3.7284083  
O   -1.7894187   -1.5009653    4.3257297  
C    0.0140216    0.0115358    4.4216297  
H    2.2638494    1.8988021    5.0689105  
H    0.0117648    0.0094386    5.5031631  
H    3.3327358    2.7953732    2.7900019  
H    2.1123206    1.7707734    0.8551938  
