58

C    4.7720172   -0.7421630   -8.8242631  
C    5.6005694   -0.7712056   -9.8997783  
C    5.6444804    0.5696265  -10.4337045  
C    4.7673257    1.3880818   -9.5749133  
N    4.2688977    0.5335272   -8.6187770  
C    4.5412410    2.7147984   -9.7493062  
C    5.2060217    3.3810561  -10.8568723  
O    5.0668102    4.5731319  -11.0974493  
C    6.1392527    2.5337091  -11.7793084  
O    6.7040801    3.0836616  -12.7151408  
C    6.3044352    1.1112961  -11.4906774  
H    6.1213897   -1.6335433  -10.2762540  
H    3.8941523    3.2967359   -9.1077957  
H    6.9524649    0.5317017  -12.1339893  
H    4.4864609   -1.5454125   -8.1646135  
C    4.1680083   -0.6852559   -4.4364468  
C    3.1006054    0.0006263   -3.9654951  
C    2.5992457    0.7461593   -5.1097496  
C    3.5073877    0.3823239   -6.2185716  
N    4.4289477   -0.4565249   -5.8299206  
C    3.3454770    0.9187916   -7.5418527  
C    2.3225889    1.7793023   -7.7481421  
O    2.0538413    2.3557385   -8.9320071  
C    1.3888525    2.1657481   -6.6495260  
O    0.4799308    2.9542128   -6.9091524  
C    1.5758912    1.6018852   -5.3008232  
H    1.2721072    2.9126104   -8.7648596  
H    0.8781185    1.9068480   -4.5324863  
H    4.8160315   -1.3575814   -3.8969864  
C    3.2798083    0.0005857   -1.4499652  
C    2.5571142    0.0005565   -2.5996556  
C    1.1637432    0.0001548   -2.2210361  
C    1.1336964   -0.0000200   -0.7459473  
N    2.4483512   -0.0001428   -0.3402723  
C    0.0000000    0.0000000    0.0000000  
C   -1.2757368   -0.0000186   -0.6964415  
O   -2.3524598   -0.0000639   -0.1142311  
C   -1.2676497   -0.0000872   -2.2584083  
O   -2.3355766   -0.0004101   -2.8557295  
C    0.0181558    0.0001758   -2.9516296  
H    0.0150788    0.0003319   -4.0331631  
H    4.3498547    0.0008612   -1.3200026  
H    2.7563626    0.0012823    0.6148059  
C    2.5528530    2.1414826    2.8079335  
C    2.0663498    1.7338582    4.0032312  
C    0.9804344    0.8229586    3.6752840  
C    0.9495562    0.7966882    2.1971295  
N    1.8690446    1.5676019    1.6831036  
C    0.0000000    0.0000000    1.4700000  
C   -0.8785127   -0.7372425    2.1869543  
O   -1.8187535   -1.5261249    1.6395491  
C   -0.8723269   -0.7321790    3.6796354  
O   -1.7010379   -1.4274584    4.2670412  
C    0.1115397    0.0933559    4.4024240  
H    2.4028853    2.0163452    4.9860947  
H   -2.2861435   -1.9184361    2.3990168  
H    0.0832434    0.0693689    5.4835595  
H    3.3664920    2.8238276    2.6198634  
