58

C    1.0638789   -0.0261250   -4.6315341  
C   -0.2005807   -0.0053673   -5.1262929  
C   -0.0894688   -0.0091042   -6.5659026  
C    1.3537202   -0.0339477   -6.8714825  
N    1.9982070   -0.0428849   -5.6559800  
C    1.8742061   -0.0447766   -8.1247509  
C    0.9514187   -0.0308206   -9.2476061  
O    1.3217486   -0.0388954  -10.4142645  
C   -0.5812055   -0.0042211   -8.9473393  
O   -1.3677419    0.0080121   -9.8846070  
C   -1.0214431    0.0051780   -7.5545166  
H   -1.1076191    0.0109081   -4.5486867  
H   -2.0842863    0.0234068   -7.3551297  
H    2.9938898   -0.0610481   -5.5321521  
C   -1.1317766    0.0183633   -0.8009272  
C   -0.7969292    0.0105380   -2.1169407  
C    0.6451711   -0.0149319   -2.1842674  
C    1.1264815   -0.0213791   -0.7896027  
N    0.0000000    0.0000000    0.0000000  
C    2.4342112   -0.0442594   -0.4276299  
C    3.4344237   -0.0636162   -1.4820183  
O    4.6376880   -0.0847604   -1.2583917  
C    2.9473504   -0.0569495   -2.9661073  
O    3.7802426   -0.0727868   -3.8623776  
C    1.5110547   -0.0319169   -3.2312126  
H   -1.4819735    0.0215542   -2.9459192  
H    2.7660275   -0.0487287    0.6013447  
H   -2.1101211    0.0362168   -0.3488060  
C    3.3180173   -0.0697578   -8.3998620  
C    4.3560898   -0.0862144   -7.5245283  
C    5.5680365   -0.1079221   -8.3090975  
C    5.1479298   -0.1026968   -9.7234078  
N    3.7723654   -0.0796699   -9.7099040  
C    6.0008123   -0.1182630  -10.7788949  
C    7.4277579   -0.1419556  -10.5035754  
O    8.2761830   -0.1573081  -11.3857530  
C    7.8952040   -0.1481309   -9.0131852  
O    9.0940616   -0.1683285   -8.7690665  
C    6.8814086   -0.1295799   -7.9616500  
H    4.2813459   -0.0836433   -6.4516719  
H    5.6719231   -0.1139444  -11.8088085  
H    7.2133459   -0.1337946   -6.9323179  
H    3.1884857   -0.0693858  -10.5260083  
C    0.0000000    0.0000000    1.4700000  
C    1.0662921    0.0000102    2.3034270  
C    0.4961870   -0.0000064    3.6418889  
C   -0.9663858    0.0000850    3.4240247  
N   -1.2632773    0.0000084    2.1528658  
C   -1.8985362    0.0000517    4.5177257  
C   -1.3925775   -0.0004564    5.7720543  
O   -2.1456383   -0.0005410    6.8851312  
C    0.0786232   -0.0009323    6.0245000  
O    0.4683759   -0.0012588    7.1921102  
C    1.0143166   -0.0008442    4.8859032  
H    2.1107198   -0.0000632    2.0421868  
H   -2.9622183    0.0003270    4.3293377  
H   -1.5042274   -0.0009692    7.6184419  
H    2.0724152   -0.0013148    5.1109744  
