58

C    6.7841712   -1.9938171   -1.7325052  
C    7.3091284   -2.8263362   -0.7968737  
C    8.7408995   -2.8199388   -0.9834932  
C    9.0089712   -1.9088952   -2.1126203  
N    7.7814123   -1.4415144   -2.5219415  
C   10.2447484   -1.6314733   -2.6000605  
C   11.3869972   -2.2731629   -1.9707431  
O   12.5402485   -2.0881391   -2.3369062  
C   11.1264567   -3.2419481   -0.7735052  
O   12.0802977   -3.7882426   -0.2359092  
C    9.7496072   -3.4614703   -0.3376739  
H    6.7564309   -3.3816963   -0.0601827  
H   10.4195786   -0.9600185   -3.4292124  
H    9.5777565   -4.1335411    0.4920922  
H    7.6329945   -0.7967743   -3.2764808  
C    4.3047792   -2.1086498   -1.2859242  
C    5.3774559   -1.6442158   -1.9771117  
C    4.8701585   -0.7486134   -2.9897229  
C    3.4034921   -0.7291860   -2.8306571  
N    3.1250161   -1.5744517   -1.7814350  
C    2.5562217   -0.0001543   -3.6003001  
C    3.1269051    0.8199333   -4.6559103  
O    2.4474934    1.5122577   -5.4024942  
C    4.6776933    0.8144236   -4.8425426  
O    5.1696079    1.5006859   -5.7281636  
C    5.4870227   -0.0121788   -3.9505977  
H    6.5600128   -0.0102594   -4.0862903  
H    4.2768484   -2.7963878   -0.4563912  
H    2.2064273   -1.7712340   -1.4285626  
C    0.0000000    0.0000000    0.0000000  
C    1.0541688   -0.0001719   -0.8560391  
C    0.5103141   -0.0000449   -2.1935955  
C   -0.9576367    0.0002461   -2.0455733  
N   -1.2018459   -0.0001392   -0.6915970  
C   -1.8348306    0.0008319   -3.0810611  
C   -1.2972842    0.0009739   -4.4314605  
O   -2.0050664    0.0014267   -5.4301321  
C    0.2542628    0.0004190   -4.6117571  
O    0.7184677    0.0002263   -5.7439119  
C    1.0974556    0.0000880   -3.4189127  
H    2.0940752   -0.0005479   -0.5817978  
H   -2.9081050    0.0011669   -2.9507065  
H   -2.1128195    0.0014911   -0.2706793  
C    0.0000000    0.0000000    1.4700000  
C    1.0662921    0.0000102    2.3034270  
C    0.4961870   -0.0000064    3.6418889  
C   -0.9663858    0.0000850    3.4240247  
N   -1.2632773    0.0000084    2.1528658  
C   -1.8985362    0.0000517    4.5177257  
C   -1.3925775   -0.0004564    5.7720543  
O   -2.1456383   -0.0005410    6.8851312  
C    0.0786232   -0.0009323    6.0245000  
O    0.4683759   -0.0012588    7.1921102  
C    1.0143166   -0.0008442    4.8859032  
H    2.1107198   -0.0000632    2.0421868  
H   -2.9622183    0.0003270    4.3293377  
H   -1.5042274   -0.0009692    7.6184419  
H    2.0724152   -0.0013148    5.1109744  
