58

C    2.1473375   -2.0926199   -5.9901677  
C    1.6357181   -1.6303826   -4.8202715  
C    0.5546356   -0.7348949   -5.1582028  
C    0.4777943   -0.7131856   -6.6314352  
N    1.4702310   -1.5565182   -7.0749998  
C   -0.4180461    0.0158273   -7.3439762  
C   -1.3699446    0.8338316   -6.6109729  
O   -2.2161079    1.5260620   -7.1615425  
C   -1.3065946    0.8262731   -5.0502888  
O   -2.1027135    1.5112426   -4.4223778  
C   -0.2963289   -0.0005348   -4.3948470  
H    1.9768484   -1.8872557   -3.8332256  
H   -0.4575768    0.0175016   -8.4244137  
H    2.9621990   -2.7796376   -6.1510954  
H    1.6703713   -1.7538860   -8.0383468  
C    3.1301148   -0.0010315   -1.7028253  
C    2.5367766   -0.0002767   -0.4864666  
C    1.1089903    0.0001025   -0.7656183  
C    1.0177867   -0.0004153   -2.2415131  
N    2.1993574   -0.0011616   -2.7963821  
C   -0.2459218   -0.0002884   -2.9257117  
C   -1.3675324   -0.0000610   -2.1698519  
O   -2.6129318    0.0000862   -2.6748483  
C   -1.3083588    0.0000908   -0.6783229  
O   -2.3693264    0.0004202   -0.0541688  
C    0.0000000    0.0000000    0.0000000  
H    3.0096015   -0.0001006    0.4807520  
H   -3.1967441    0.0002093   -1.8949029  
C    5.6039774   -0.0017522   -1.1379130  
C    4.5679459   -0.0016858   -2.0086704  
C    5.1852099   -0.0025566   -3.3260481  
C    6.6391261   -0.0029696   -3.0563966  
N    6.8907015   -0.0025818   -1.7754988  
C    7.6095171   -0.0038936   -4.1163145  
C    7.1484094   -0.0047718   -5.3878147  
O    7.9405118   -0.0056820   -6.4734544  
C    5.6870980   -0.0047557   -5.6923321  
O    5.3390440   -0.0054603   -6.8730428  
C    4.7115721   -0.0037546   -4.5876729  
H    8.6658404   -0.0039713   -3.8902820  
H    7.3255396   -0.0061836   -7.2290739  
H    3.6621307   -0.0038915   -4.8501668  
H    5.5656909   -0.0012540   -0.0601804  
C    0.8175213    0.6860729    2.3021913  
C    0.0000000    0.0000000    1.4700000  
C   -0.8887526   -0.7456559    2.3478473  
C   -0.4549825   -0.3816753    3.7138435  
N    0.5448156    0.4573574    3.6934124  
C   -1.0945674   -0.9182058    4.8835240  
C   -2.1210866   -1.7789155    4.6970523  
O   -2.8083856   -2.3554314    5.6976972  
C   -2.5824069   -2.1655116    3.3310774  
O   -3.5227682   -2.9541547    3.2362962  
C   -1.9100805   -1.6015804    2.1470656  
H   -0.7567140   -0.6349833    5.8697035  
H   -3.4728268   -2.9124471    5.2533954  
H   -2.2742832   -1.9066565    1.1752040  
H    1.6189533    1.3585343    2.0405121  
