58

C    6.7793180   -0.0000198   -4.0582543  
C    7.7853558    0.0004715   -3.1461347  
C    7.1695417    0.0010654   -1.8401455  
C    5.7118172    0.0008492   -2.0678074  
N    5.5416285    0.0005853   -3.4330638  
C    4.7795897    0.0008677   -1.0815734  
C    5.2428770    0.0013430    0.2960697  
O    4.4818132    0.0014589    1.2547581  
C    6.7823187    0.0018306    0.5605056  
O    7.1842447    0.0025397    1.7162368  
C    7.6891548    0.0014827   -0.5847015  
H    8.8386419    0.0006056   -3.3633973  
H    8.7535776    0.0016187   -0.3930577  
H    6.8379582   -0.0005561   -5.1345679  
H    4.6549018   -0.0011620   -3.9029158  
C    3.3321166    0.0004717   -1.3379342  
C    2.6974176    0.0000121   -2.5332317  
C    1.2800432   -0.0002115   -2.2052842  
C    1.2395033    0.0000645   -0.7271297  
N    2.4394059    0.0005461   -0.2131042  
C    0.0000000    0.0000000    0.0000000  
C   -1.1468704    0.0000636   -0.7169540  
O   -2.3742206    0.0000073   -0.1695488  
C   -1.1388774    0.0001610   -2.2096351  
O   -2.2206238    0.0000908   -2.7970408  
C    0.1454514    0.0001820   -2.9324241  
H    3.1367977   -0.0000646   -3.5160953  
H   -2.9844351    0.0001027   -0.9290163  
C    2.4320874   -2.0124020   -6.1859213  
C    2.0200827   -1.6305786   -4.9546442  
C    0.9177864   -0.7123201   -5.1959805  
C    0.7970278   -0.6538274   -6.6685905  
N    1.6820117   -1.4139316   -7.2542826  
C   -0.1937187    0.1588225   -7.3190578  
C   -1.0262447    0.8799466   -6.5340644  
O   -1.9968178    1.6808100   -7.0059183  
C   -0.9297042    0.8417626   -5.0449762  
O   -1.7202585    1.5240004   -4.3932124  
C    0.0950440    0.0004357   -4.4015596  
H    2.4153094   -1.9345886   -4.0004695  
H   -0.2592110    0.1826846   -8.3970432  
H   -2.4169017    2.0561008   -6.2110353  
H    3.2315425   -2.6908671   -6.4379729  
C    2.4951002    2.0940188    2.9809380  
C    1.9440701    1.6314916    1.8291961  
C    0.8759964    0.7350050    2.2038498  
C    0.8497377    0.7130254    3.6788474  
N    1.8560616    1.5571714    4.0882609  
C   -0.0205033   -0.0168748    4.4215661  
C   -0.9962600   -0.8356168    3.7214979  
O   -1.8224391   -1.5286685    4.3006425  
C   -0.9864710   -0.8277881    2.1595606  
O   -1.8030528   -1.5133726    1.5592035  
C    0.0000000    0.0000000    1.4700000  
H    2.2509283    1.8888011    0.8310761  
H   -0.0229599   -0.0187323    5.5027230  
H    3.3143982    2.7817323    3.1139444  
H    2.0889452    1.7545833    5.0442112  
