60

C   -1.1188116    0.0108739   -0.8003804  
C    0.0000000    0.0000000    0.0000000  
C    1.1323150   -0.0127269   -0.8673525  
C    0.6382105   -0.0086396   -2.1969278  
N   -0.7324018    0.0038084   -2.1202234  
C    1.4769819   -0.0181719   -3.3154808  
C    2.8393704   -0.0317768   -3.0876853  
O    3.7036921   -0.0411604   -4.1440348  
C    3.3515891   -0.0364302   -1.7684329  
O    4.7297780   -0.0506814   -1.7073124  
C    2.5247072   -0.0273054   -0.6644812  
H   -1.3574983    0.0198087   -2.9057040  
H    4.5937290   -0.0502051   -3.7685130  
H    4.9931797   -0.0529245   -0.7819916  
H    2.9460911   -0.0313586    0.3339654  
H   -2.1618808    0.0216649   -0.5342067  
C    0.9735342   -0.0142233   -4.6965757  
C   -0.3100015   -0.0013782   -5.1397993  
C   -0.2571563   -0.0032639   -6.5827264  
C    1.1726310   -0.0183983   -6.9464167  
N    1.8657736   -0.0240532   -5.7579674  
C    1.6420866   -0.0248346   -8.2197089  
C    0.6745896   -0.0160595   -9.3043320  
O    0.9974983   -0.0207948  -10.4850137  
C   -0.8447843    0.0002480   -8.9423345  
O   -1.6686305    0.0080499   -9.8470310  
C   -1.2284075    0.0056725   -7.5328464  
H   -1.1930356    0.0084946   -4.5259859  
H   -2.2824181    0.0167709   -7.2906433  
H    2.8657458   -0.0357785   -5.6745051  
C    3.0737275   -0.0401263   -8.5529805  
C    4.1464237   -0.0504526   -7.7203392  
C    5.3257782   -0.0635954   -8.5532769  
C    4.8488139   -0.0600248   -9.9494441  
N    3.4747990   -0.0460358   -9.8803265  
C    5.6584140   -0.0691713  -11.0385585  
C    7.0954465   -0.0837139  -10.8211663  
O    7.9075978   -0.0928111  -11.7369325  
C    7.6227928   -0.0879832   -9.3508960  
O    8.8306455   -0.1005033   -9.1554563  
C    6.6522365   -0.0769048   -8.2592233  
H    4.1150980   -0.0492082   -6.6453365  
H    5.2881363   -0.0662084  -12.0543313  
H    7.0255342   -0.0797432   -7.2441542  
H    2.8583502   -0.0389474  -10.6721520  
C    0.0000000    0.0000000    1.4700000  
C    1.0541688    0.0001722    2.3260392  
C    0.5103138    0.0000454    3.6635956  
C   -0.9576371   -0.0002459    3.5155732  
N   -1.2018458    0.0001392    2.1615969  
C   -1.8348311   -0.0008317    4.5510609  
C   -1.2972847   -0.0009736    5.9014604  
O   -2.0050672   -0.0014265    6.9001319  
C    0.2542623   -0.0004184    6.0817573  
O    0.7184670   -0.0002256    7.2139121  
C    1.0974552   -0.0000873    4.8889129  
H    2.0940752    0.0005483    2.0517982  
H   -2.9081052   -0.0011668    4.4207061  
H    2.1707277    0.0000911    5.0223670  
H   -2.1128194   -0.0014912    1.7406791  
