60

C    1.1188652    0.0008224   -0.8003802  
C    0.0000000    0.0000000    0.0000000  
C   -1.1323853    0.0008890   -0.8673533  
C   -0.6382643    0.0019671   -2.1969285  
N    0.7324033    0.0038480   -2.1202239  
C   -1.4770893    0.0027306   -3.3154817  
C   -2.8395456    0.0020923   -3.0876872  
O   -3.7039175    0.0024398   -4.1440366  
C   -3.3517859    0.0013910   -1.7684347  
O   -4.7300482    0.0012340   -1.7073141  
C   -2.5248534    0.0009109   -0.6644831  
H   -1.1067543    0.0036975   -4.3313818  
H   -4.5940006    0.0021799   -3.7685155  
H   -4.9934591    0.0007236   -0.7819939  
H   -2.9462571    0.0005587    0.3339638  
H    2.1619903    0.0009362   -0.5342058  
C    2.8040021   -0.7159408   -3.3653690  
C    1.6478457   -0.0100099   -3.2702992  
C    1.4957399    0.7174269   -4.5082553  
C    2.6664319    0.3749497   -5.3383031  
N    3.4207028   -0.4973419   -4.5879215  
C    2.8929145    0.8595980   -6.5855108  
C    1.9187493    1.7801252   -7.1477982  
O    2.0328527    2.2713027   -8.2631573  
C    0.6714812    2.1569266   -6.2863179  
O   -0.1553079    2.9312412   -6.7490459  
C    0.5367524    1.5697089   -4.9555753  
H   -0.3298157    1.8355597   -4.3655693  
H    3.2575091   -1.3773148   -2.6450879  
H    4.2849208   -0.9128926   -4.8837121  
C    4.8972659   -2.9788108   -7.0720215  
C    5.8997903   -2.6703362   -7.9272214  
C    5.7405620   -1.2492359   -8.1948412  
C    4.5608070   -0.8497854   -7.3978463  
N    4.0622658   -1.8594209   -6.7374810  
C    4.0692646    0.5005550   -7.3906130  
C    4.7266546    1.4105648   -8.1449704  
O    4.3780527    2.7055111   -8.2323300  
C    5.9206294    1.0384399   -8.9598975  
O    6.4695224    1.9184463   -9.6228656  
C    6.4054046   -0.3532615   -8.9506489  
H    6.6542340   -3.3261331   -8.3269971  
H    5.0303553    3.0973873   -8.8406783  
H    7.2733861   -0.5821886   -9.5543301  
H    4.6695157   -3.9375164   -6.6338585  
C    2.4951002    2.0940188    2.9809380  
C    1.9440701    1.6314916    1.8291961  
C    0.8759964    0.7350050    2.2038498  
C    0.8497377    0.7130254    3.6788474  
N    1.8560616    1.5571714    4.0882609  
C   -0.0205033   -0.0168748    4.4215661  
C   -0.9962600   -0.8356168    3.7214979  
O   -1.8224391   -1.5286685    4.3006425  
C   -0.9864710   -0.8277881    2.1595606  
O   -1.8030528   -1.5133726    1.5592035  
C    0.0000000    0.0000000    1.4700000  
H    2.2509283    1.8888011    0.8310761  
H   -0.0229599   -0.0187323    5.5027230  
H    3.3143982    2.7817323    3.1139444  
H    2.0889452    1.7545833    5.0442112  
