58

C   -7.6979663    0.0071297   -2.0094656  
C   -8.4033462    0.6818914   -1.0654258  
C   -9.7919998    0.3298440   -1.2458149  
C   -9.8381439   -0.6121041   -2.3804490  
N   -8.5364111   -0.7655586   -2.7985808  
C  -10.9727922   -1.1777593   -2.8645058  
C  -12.2326667   -0.8358629   -2.2254732  
O  -13.3089075   -1.2926165   -2.5879373  
C  -12.2074094    0.1598642   -1.0222716  
O  -13.2619326    0.4554297   -0.4764860  
C  -10.9221766    0.7038494   -0.5908669  
H   -7.9972489    1.3501354   -0.3270848  
H  -10.9847173   -1.8664985   -3.6978164  
H  -10.9132873    1.3924600    0.2430755  
H   -8.2407499   -1.3504982   -3.5585003  
C   -4.3359695    2.1064019   -0.0635820  
C   -5.5644951    1.6417188   -0.4083569  
C   -5.3776807    0.7467255   -1.5259088  
C   -3.9292261    0.7279266   -1.8059380  
N   -3.3543288    1.5729381   -0.8848846  
C   -3.3460097   -0.0004262   -2.7913647  
C   -4.2020390   -0.8203939   -3.6324361  
O   -3.7724544   -1.5121265   -4.5463637  
C   -5.7389983   -0.8155422   -3.3539782  
O   -6.4697262   -1.5017101   -4.0557400  
C   -6.2499650    0.0103542   -2.2628046  
H   -6.4953656    1.8969415    0.0659372  
H   -4.0651600    2.7938494    0.7212547  
H   -2.3726197    1.7700214   -0.8181561  
C    0.0000000    0.0000000    0.0000000  
C    1.0662919   -0.0000103   -0.8334272  
C    0.4961868    0.0000066   -2.1718889  
C   -0.9663860   -0.0000849   -1.9540248  
N   -1.2632775   -0.0000084   -0.6828659  
C   -1.8985364   -0.0000515   -3.0477258  
C   -1.3925778    0.0004567   -4.3020543  
O   -2.1456385    0.0005412   -5.4151314  
C    0.0786229    0.0009326   -4.5544999  
O    0.4683756    0.0012594   -5.7221104  
C    1.0143162    0.0008443   -3.4159034  
H    2.1107195    0.0000631   -0.5721869  
H   -1.5042277    0.0009692   -6.1484420  
H    2.0724151    0.0013151   -3.6409746  
C    3.3321173   -0.0004715    2.8079335  
C    2.6974184   -0.0000116    4.0032312  
C    1.2800439    0.0002118    3.6752840  
C    1.2395035   -0.0000644    2.1971295  
N    2.4394063   -0.0005460    1.6831036  
C    0.0000000    0.0000000    1.4700000  
C   -1.1468701   -0.0000635    2.1869543  
O   -2.3742202   -0.0000073    1.6395491  
C   -1.1388768   -0.0001607    3.6796354  
O   -2.2206231   -0.0000905    4.2670412  
C    0.1454524   -0.0001816    4.4024240  
H    3.1367986    0.0000651    4.9860947  
H   -2.9844344   -0.0001026    2.3990168  
H    0.1083576   -0.0003682    5.4835595  
H    4.3940039   -0.0007619    2.6198634  
