62

C   -4.4707081    2.1246583   -0.3281856  
C   -5.6599878    1.6263945   -0.8075745  
C   -5.3396937    0.7516167   -1.8877482  
C   -3.9276520    0.7558485   -2.0220873  
N   -3.4313359    1.6012569   -1.0610605  
C   -3.2578656    0.0024077   -2.9908503  
C   -4.0275288   -0.7695991   -3.8392613  
O   -3.4247850   -1.5249845   -4.8031641  
C   -5.4376988   -0.7867627   -3.7211790  
O   -6.0624834   -1.6048825   -4.6396920  
C   -6.0991482   -0.0435168   -2.7658799  
H   -2.4588376    1.7971179   -0.9065737  
H   -4.1335895   -1.9789601   -5.2772597  
H   -7.0119740   -1.5590920   -4.4914531  
H   -7.1803452   -0.0767178   -2.6996347  
H   -4.2817145    2.8130940    0.4776032  
C    0.0000000    0.0000000    0.0000000  
C    1.0521663   -0.0011919   -0.8862340  
C    0.4917211   -0.0011968   -2.1979129  
C   -0.9187434    0.0003156   -2.0478680  
N   -1.1833175   -0.0009398   -0.7007911  
C   -1.7951700    0.0010368   -3.1372091  
C   -1.2375840    0.0005234   -4.4010420  
O   -2.0474216    0.0015377   -5.4997579  
C    0.1673575   -0.0013577   -4.5711962  
O    0.5673522   -0.0020705   -5.8915554  
C    1.0325768   -0.0023431   -3.4969889  
H    2.0953057   -0.0030680   -0.6200562  
H   -2.0989780    0.0102397   -0.2891821  
H   -1.4634885    0.0006509   -6.2693589  
H    1.5290710   -0.0033183   -5.9180045  
H    2.1042149   -0.0039643   -3.6584454  
C   -7.4685113    5.3966762    0.6103995  
C   -6.6207956    4.4546019    0.1225989  
C   -7.3464066    3.2064760    0.1001092  
C   -8.6960313    3.5007415    0.6184828  
N   -8.7050461    4.8453109    0.9099317  
C   -9.6847417    2.5811756    0.7546996  
C   -9.4006048    1.2100836    0.3649454  
O  -10.2247964    0.3090724    0.4497348  
C   -7.9779084    0.8757700   -0.1863923  
O   -7.7269318   -0.2751774   -0.5174384  
C   -6.9955979    1.9522329   -0.2871173  
H   -5.6032392    4.6156134   -0.1860558  
H  -10.6679558    2.8179183    1.1369981  
H   -7.2938741    6.4473010    0.7764697  
H   -9.4897311    5.3489422    1.2809722  
C    3.3321173   -0.0004715    2.8079335  
C    2.6974184   -0.0000116    4.0032312  
C    1.2800439    0.0002118    3.6752840  
C    1.2395035   -0.0000644    2.1971295  
N    2.4394063   -0.0005460    1.6831036  
C    0.0000000    0.0000000    1.4700000  
C   -1.1468701   -0.0000635    2.1869543  
O   -2.3742202   -0.0000073    1.6395491  
C   -1.1388768   -0.0001607    3.6796354  
O   -2.2206231   -0.0000905    4.2670412  
C    0.1454524   -0.0001816    4.4024240  
H    3.1367986    0.0000651    4.9860947  
H   -2.9844344   -0.0001026    2.3990168  
H    0.1083576   -0.0003682    5.4835595  
H    4.3940039   -0.0007619    2.6198634  
