58

C    0.0000000    0.0000000    0.0000000  
C    0.5727669    0.8849918   -0.8560391  
C    0.2772395    0.4284380   -2.1935957  
C   -0.5203930   -0.8039017   -2.0455737  
N   -0.6527236   -1.0091502   -0.6915974  
C   -0.9973754   -1.5400796   -3.0810617  
C   -0.7055005   -1.0886761   -4.4314612  
O   -1.0903468   -1.6826870   -5.4301324  
C    0.1377635    0.2137087   -4.6117577  
O    0.3900806    0.6033528   -5.7439119  
C    0.5960624    0.9214769   -3.4189131  
H    1.1379581    1.7578974   -0.5817982  
H   -1.5806567   -2.4410228   -2.9507071  
H   -1.1489315   -1.7731220   -0.2706798  
C    2.4674133    2.5519381   -2.8909325  
C    1.3886650    2.1461318   -3.6003003  
C    1.1772122    3.1898997   -4.5914295  
C    2.2479963    4.1753928   -4.3291140  
N    3.0074916    3.8067855   -3.3334807  
C    2.3859407    5.3746518   -5.1087515  
C    1.4949210    5.5798793   -6.1053958  
O    1.5049997    6.6550635   -6.9115703  
C    0.4033402    4.6038181   -6.3950792  
O   -0.3720418    4.8552636   -7.3174557  
C    0.2828374    3.3811470   -5.5811506  
H    0.7538666    6.5182542   -7.5167437  
H   -0.5213820    2.6992586   -5.8229964  
H    2.9438712    2.0521598   -2.0625708  
C    4.7463364    6.0624077   -4.4805434  
C    3.4635016    6.3312248   -4.8176648  
C    3.3756781    7.7833265   -4.8313074  
C    4.7339617    8.2422779   -4.4693490  
N    5.5418014    7.2379610   -4.2626329  
C    5.0651372    9.6372929   -4.3726926  
C    4.0840892   10.5330980   -4.6264877  
O    4.2521214   11.8653847   -4.5733982  
C    2.7034508   10.1012251   -4.9945714  
O    1.8603784   10.9714083   -5.2118969  
C    2.3886699    8.6644670   -5.0871156  
H    6.0659049    9.9442887   -4.1059960  
H    3.3799607   12.2345907   -4.8018174  
H    1.3768682    8.3927813   -5.3566960  
H    5.2140199    5.0977773   -4.3633501  
C    0.0000000    0.0000000    1.4700000  
C    1.0541688    0.0001722    2.3260392  
C    0.5103138    0.0000454    3.6635956  
C   -0.9576371   -0.0002459    3.5155732  
N   -1.2018458    0.0001392    2.1615969  
C   -1.8348311   -0.0008317    4.5510609  
C   -1.2972847   -0.0009736    5.9014604  
O   -2.0050672   -0.0014265    6.9001319  
C    0.2542623   -0.0004184    6.0817573  
O    0.7184670   -0.0002256    7.2139121  
C    1.0974552   -0.0000873    4.8889129  
H    2.0940752    0.0005483    2.0517982  
H   -2.9081052   -0.0011668    4.4207061  
H    2.1707277    0.0000911    5.0223670  
H   -2.1128194   -0.0014912    1.7406791  
