58

C   -0.0582920   -0.8706553   -9.6456792  
C   -0.2258923    0.1910652   -8.8157785  
C   -0.4520694    1.3468188   -9.6511907  
C   -0.4021701    0.8679612  -11.0458213  
N   -0.1598739   -0.4844292  -10.9735536  
C   -0.5702347    1.6578714  -12.1364641  
C   -0.8164948    3.0742378  -11.9224609  
O   -0.9807502    3.8678225  -12.8398183  
C   -0.8731817    3.6032389  -10.4538737  
O   -1.0795585    4.7938619  -10.2612940  
C   -0.6771604    2.6548139   -9.3602939  
H   -0.5299835    1.2865505  -13.1510625  
H   -0.7181103    3.0290742   -8.3464026  
H    0.1310977   -1.9027130   -9.3989435  
H   -0.0725185   -1.0969109  -11.7636695  
C    2.4064704   -2.0119089   -6.1315527  
C    1.9558553   -1.6301625   -4.9138521  
C    0.8614673   -0.7121809   -5.1897589  
C    0.7870640   -0.6537475   -6.6654397  
N    1.6902156   -1.4136448   -7.2229901  
C   -0.1829370    0.1586449   -7.3467641  
C   -1.0399147    0.8795790   -6.5883597  
O   -1.9953662    1.6801933   -7.0905244  
C   -0.9902404    0.8414487   -5.0969710  
O   -1.8010679    1.5235043   -4.4704093  
C    0.0139741    0.0003876   -4.4216236  
H    2.3209548   -1.9340559   -3.9477120  
H   -2.4403315    2.0553965   -6.3092554  
H    3.2136235   -2.6901819   -6.3583201  
C    3.2798085    0.0005853   -1.4499648  
C    2.5571144    0.0005562   -2.5996554  
C    1.1637436    0.0001546   -2.2210360  
C    1.1336965   -0.0000201   -0.7459470  
N    2.4483513   -0.0001430   -0.3402717  
C    0.0000000    0.0000000    0.0000000  
C   -1.2757367   -0.0000188   -0.6964414  
O   -2.3524597   -0.0000640   -0.1142313  
C   -1.2676494   -0.0000875   -2.2584081  
O   -2.3355762   -0.0004102   -2.8557294  
C    0.0181562    0.0001757   -2.9516296  
H    2.9547357    0.0006072   -3.5989105  
H    4.3498550    0.0008609   -1.3200021  
H    2.7563627    0.0012824    0.6148063  
C    0.8175213    0.6860729    2.3021913  
C    0.0000000    0.0000000    1.4700000  
C   -0.8887526   -0.7456559    2.3478473  
C   -0.4549825   -0.3816753    3.7138435  
N    0.5448156    0.4573574    3.6934124  
C   -1.0945674   -0.9182058    4.8835240  
C   -2.1210866   -1.7789155    4.6970523  
O   -2.8083856   -2.3554314    5.6976972  
C   -2.5824069   -2.1655116    3.3310774  
O   -3.5227682   -2.9541547    3.2362962  
C   -1.9100805   -1.6015804    2.1470656  
H   -0.7567140   -0.6349833    5.8697035  
H   -3.4728268   -2.9124471    5.2533954  
H   -2.2742832   -1.9066565    1.1752040  
H    1.6189533    1.3585343    2.0405121  
