60

C    0.0000000    0.0000000    0.0000000  
C    1.0521670   -0.0011903   -0.8862341  
C    0.4917223   -0.0011957   -2.1979133  
C   -0.9187419    0.0003148   -2.0478687  
N   -1.1833165   -0.0009412   -0.7007917  
C   -1.7951689    0.0010351   -3.1372100  
C   -1.2375821    0.0005225   -4.4010430  
O   -2.0474197    0.0015361   -5.4997589  
C    0.1673595   -0.0013567   -4.5711966  
O    0.5673540   -0.0020687   -5.8915551  
C    1.0325779   -0.0023413   -3.4969890  
H    2.0953065   -0.0030650   -0.6200556  
H   -2.0989773    0.0102372   -0.2891831  
H   -1.4634867    0.0006498   -6.2693597  
H    1.5290733   -0.0033154   -5.9180042  
H    2.1042160   -0.0039610   -3.6584451  
C   -3.2578643    0.0024039   -2.9908521  
C   -4.0046933    0.0033126   -1.8566910  
C   -5.3897511    0.0044627   -2.2646723  
C   -5.3886182    0.0041181   -3.7400671  
N   -4.0656842    0.0032564   -4.1178685  
C   -6.5062972    0.0045472   -4.5098061  
C   -7.7964663    0.0056318   -3.8404804  
O   -8.8606446    0.0061497   -4.4453152  
C   -7.8213898    0.0062655   -2.2786917  
O   -8.9017009    0.0074859   -1.7040725  
C   -6.5505216    0.0054372   -1.5584518  
H   -3.6282780    0.0033734   -0.8492560  
H   -6.4834491    0.0041525   -5.5907257  
H   -3.7375590    0.0012866   -5.0662233  
C   -5.7645985    0.7100682    0.7319247  
C   -6.5857685    0.0057646   -0.0888745  
C   -7.4912769   -0.7357005    0.7567732  
C   -7.1277476   -0.4032291    2.1474922  
N   -6.0739117    0.4772538    2.0634135  
C   -7.7504106   -0.9021894    3.2452327  
C   -8.8520028   -1.8286620    3.0435421  
O   -9.4762908   -2.3325975    3.9679957  
C   -9.2538879   -2.1950637    1.5792868  
O  -10.1795801   -2.9742593    1.3970516  
C   -8.5079736   -1.5926257    0.4772291  
H   -7.4681671   -0.6452711    4.2567867  
H   -8.7926318   -1.8513482   -0.5335903  
H   -4.9593549    1.3794326    0.4761439  
H   -5.6034246    0.8890284    2.8483536  
C    1.1319247   -0.0015655    2.2709268  
C    0.7969915   -0.0034943    3.5869401  
C   -0.6453339   -0.0035710    3.6542670  
C   -1.1266833   -0.0015433    2.2596025  
N    0.0000000    0.0000000    1.4700000  
C   -2.4346130   -0.0013964    1.8976294  
C   -3.4350110   -0.0031408    2.9520183  
O   -4.6384611   -0.0030974    2.7283916  
C   -2.9478959   -0.0050506    4.4361073  
O   -3.7809380   -0.0062218    5.3323774  
C   -1.5113823   -0.0053090    4.7012123  
H    1.4821238   -0.0045407    4.4159191  
H   -2.7664565   -0.0000232    0.8686553  
H   -1.1823530   -0.0068408    5.7314848  
H    2.1104316   -0.0009391    1.8188057  
