62

C    2.3021910   -2.1255957   -5.9826735  
C    1.8095069   -1.6629746   -4.7844614  
C    0.7354735   -0.7756724   -5.0906433  
C    0.6180411   -0.7363240   -6.5036497  
N    1.5855137   -1.5656970   -7.0142915  
C   -0.3411041    0.0395977   -7.1615058  
C   -1.1974963    0.7892224   -6.3786691  
O   -2.1530486    1.5644625   -6.9693778  
C   -1.0957951    0.7634636   -4.9673539  
O   -2.0200008    1.5643286   -4.3287607  
C   -0.1496415   -0.0015616   -4.3176959  
H    2.1795065   -1.9311009   -3.8096787  
H   -0.4356854    0.0740440   -8.2381068  
H   -2.6345080    1.9978446   -6.2526902  
H   -1.8829374    1.4894719   -3.3794383  
H    3.1090430   -2.8095407   -6.1830921  
C    3.3003542    0.0005274   -1.4738984  
C    2.5232813    0.0003496   -2.6090747  
C    1.1623199   -0.0001320   -2.1820097  
C    1.1711882    0.0000583   -0.7636143  
N    2.4852298   -0.0014919   -0.3662359  
C    0.0000000    0.0000000    0.0000000  
C   -1.2020385    0.0000519   -0.6806477  
O   -2.3759249    0.0003493    0.0157746  
C   -1.2314658   -0.0005115   -2.0955507  
O   -2.5054393   -0.0008039   -2.6250177  
C   -0.0764517   -0.0007275   -2.8495196  
H    2.8919953   -0.0005619   -3.6205303  
H    2.8036266    0.0088182    0.5858663  
H   -3.0835639    0.0000344   -0.6418818  
H   -2.4360048   -0.0011532   -3.5845921  
H    4.3715547    0.0004895   -1.3667136  
C    2.5633918   -5.2503424   -9.2421995  
C    2.2724310   -4.3471618   -8.2707667  
C    2.1049707   -3.0688485   -8.9209262  
C    2.3237615   -3.3030141  -10.3610954  
N    2.5978315   -4.6451524  -10.4893163  
C    2.2535121   -2.3411360  -11.3158521  
C    1.9418193   -0.9846752  -10.8970474  
O    1.8560362   -0.0485957  -11.6810745  
C    1.7065544   -0.7137512   -9.3768317  
O    1.4437636    0.4243641   -9.0122840  
C    1.8091014   -1.8320070   -8.4425731  
H    2.1852616   -4.5529071   -7.2187758  
H    2.4173087   -2.5340619  -12.3669752  
H    2.7557660   -6.3070992   -9.1519383  
H    2.7909210   -5.1133429  -11.3556652  
C    2.3971438    2.0127888    3.1728260  
C    1.9431056    1.6308205    1.9564670  
C    0.8496017    0.7127664    2.2356185  
C    0.7794028    0.6545384    3.7115134  
N    1.6840587    1.4146091    4.2663826  
C   -0.1885723   -0.1578550    4.3957118  
C   -1.0476298   -0.8789867    3.6398520  
O   -2.0015663   -1.6796266    4.1448486  
C   -1.0022026   -0.8410666    2.1483229  
O   -1.8147390   -1.5232959    1.5241687  
C    0.0000000    0.0000000    1.4700000  
H    2.3054237    1.9346118    0.9892483  
H   -0.2170646   -0.1815267    5.4753125  
H   -2.4487139   -2.0549881    3.3649027  
H    3.2048689    2.6911772    3.3971983  
