58

C    2.9589963   -1.9910940   -7.4063661  
C    4.0317208   -2.8230243   -7.3713090  
C    4.6131983   -2.8161162   -8.6929258  
C    3.7853860   -1.9054143   -9.5066455  
N    2.7994725   -1.4386988   -8.6681702  
C    4.0078777   -1.6276819  -10.8162517  
C    5.1379548   -2.2686530  -11.4678806  
O    5.4215425   -2.0833040  -12.6441126  
C    6.0279726   -3.2370663  -10.6253555  
O    6.9819920   -3.7827559  -11.1632494  
C    5.6882671   -3.4569771   -9.2217556  
H    4.3762342   -3.3783160   -6.5171573  
H    3.3885890   -0.9564870  -11.3949474  
H    6.3096243   -4.1287867   -8.6452911  
H    2.0767082   -0.7943209   -8.9316778  
C    2.0577024   -2.1067618   -5.0538578  
C    2.0213371   -1.6421655   -6.3293585  
C    0.8918562   -0.7471752   -6.4193650  
C    0.2687260   -0.7282839   -5.0821511  
N    1.0227497   -1.5732440   -4.3008824  
C   -0.8287665    0.0000939   -4.7555305  
C   -1.4369818    0.8199930   -5.7901201  
O   -2.4278332    1.5117412   -5.5951874  
C   -0.7938993    0.8150429   -7.2135759  
O   -1.2973732    1.5011523   -8.0927962  
C    0.3886477   -0.0108723   -7.4444391  
H    0.8279790   -0.0085684   -8.4327239  
H    2.7533682   -2.7941798   -4.6006534  
H    0.8492695   -1.7702610   -3.3323081  
C    1.0672569   -0.0000698   -0.8321910  
C    0.0000000    0.0000000    0.0000000  
C   -1.1601223   -0.0000736   -0.8778472  
C   -0.5938729   -0.0000768   -2.2438435  
N    0.7113367   -0.0001553   -2.2234123  
C   -1.4286985   -0.0001877   -3.4135239  
C   -2.7683113   -0.0006798   -3.2270524  
O   -3.6653902   -0.0008302   -4.2276970  
C   -3.3702024   -0.0010610   -1.8610774  
O   -4.5974910   -0.0013779   -1.7662963  
C   -2.4926825   -0.0008943   -0.6770658  
H   -4.5324245   -0.0012258   -3.7833954  
H   -2.9677772   -0.0012974    0.2947961  
H    2.1134391   -0.0000547   -0.5705119  
C    2.5128556    2.1077716    2.9199648  
C    1.9592212    1.6432552    4.0696553  
C    0.8915788    0.7479214    3.6910360  
C    0.8684491    0.7287414    2.2159470  
N    1.8754542    1.5738793    1.8102719  
C    0.0000000    0.0000000    1.4700000  
C   -0.9772830   -0.8200135    2.1664417  
O   -1.8021297   -1.5120829    1.5842315  
C   -0.9711318   -0.8147624    3.7284083  
O   -1.7894187   -1.5009653    4.3257297  
C    0.0140216    0.0115358    4.4216297  
H    2.2638494    1.8988021    5.0689105  
H    0.0117648    0.0094386    5.5031631  
H    3.3327358    2.7953732    2.7900019  
H    2.1123206    1.7707734    0.8551938  
