60

C    3.3003544    0.0005276   -1.4738986  
C    2.5232813    0.0003499   -2.6090753  
C    1.1623200   -0.0001317   -2.1820106  
C    1.1711882    0.0000584   -0.7636145  
N    2.4852301   -0.0014919   -0.3662360  
C    0.0000000    0.0000000    0.0000000  
C   -1.2020382    0.0000521   -0.6806480  
O   -2.3759251    0.0003495    0.0157747  
C   -1.2314658   -0.0005110   -2.0955508  
O   -2.5054388   -0.0008034   -2.6250183  
C   -0.0764517   -0.0007269   -2.8495194  
H    2.8919952   -0.0005616   -3.6205303  
H    2.8036263    0.0088183    0.5858660  
H   -3.0835640    0.0000347   -0.6418822  
H   -2.4360050   -0.0011524   -3.5845918  
H    4.3715549    0.0004896   -1.3667134  
C    2.2697432   -2.0933927   -5.9499310  
C    1.7761647   -1.6308843   -4.7724157  
C    0.6896458   -0.7359134   -5.0938796  
C    0.5899535   -0.7148026   -6.5657511  
N    1.5756960   -1.5579531   -7.0243345  
C   -0.3170960    0.0136146   -7.2645886  
C   -1.2578063    0.8315633   -6.5172208  
O   -2.1126589    1.5232786   -7.0548621  
C   -1.1702522    0.8246325   -4.9577039  
O   -1.9567836    1.5095615   -4.3177811  
C   -0.1496416   -0.0015609   -4.3176961  
H    2.1326582   -1.8872532   -3.7906824  
H   -0.3733819    0.0148557   -8.3442835  
H    3.0822590   -2.7801821   -6.1232167  
C    2.6554246   -5.1911310   -9.3692537  
C    2.3377832   -4.3811986   -8.3325794  
C    2.1638718   -3.0640255   -8.9252934  
C    2.4213891   -3.2671981  -10.3671637  
N    2.7099613   -4.5121150  -10.6334285  
C    2.3479521   -2.1875361  -11.3126916  
C    2.0312574   -0.9607501  -10.8393686  
O    1.9276556    0.1366197  -11.6081902  
C    1.7654332   -0.7237886   -9.3897657  
O    1.4827409    0.4187967   -9.0294824  
C    1.8470515   -1.8475097   -8.4397581  
H    2.2341889   -4.6450238   -7.2939555  
H    2.5412078   -2.3646309  -12.3606424  
H    1.6914678    0.8513123  -10.9896570  
H    2.8631996   -6.2490831   -9.3460160  
C    0.8681109    0.7263879    2.2709268  
C    0.6127770    0.5096195    3.5869401  
C   -0.4920590   -0.4175482    3.6542670  
C   -0.8620974   -0.7254003    2.2596025  
N    0.0000000    0.0000000    1.4700000  
C   -1.8641242   -1.5660088    1.8976294  
C   -2.6293522   -2.2103885    2.9520183  
O   -3.5512764   -2.9839180    2.7283916  
C   -2.2549728   -1.8987399    4.4361073  
O   -2.8923672   -2.4351063    5.3323774  
C   -1.1543735   -0.9755647    4.7012123  
H    1.1382914    0.9492124    4.4159191  
H   -2.1192137   -1.7782617    0.8686553  
H   -0.9013378   -0.7652422    5.7314848  
H    1.6172880    1.3558399    1.8188057  
