58

C    5.1604424   -0.0611450   -7.8637113  
C    6.2413593   -0.7185554   -8.3571733  
C    6.3669229   -0.3400521   -9.7449071  
C    5.2626530    0.5985116  -10.0214516  
N    4.5682330    0.7249476   -8.8404848  
C    5.0346064    1.1845117  -11.2240749  
C    5.9368512    0.8696501  -12.3192252  
O    5.8154899    1.3460665  -13.4402061  
C    7.1130174   -0.1220253  -12.0490067  
O    7.8789213   -0.3949209  -12.9634350  
C    7.2565247   -0.6894970  -10.7106370  
H    6.8779602   -1.3919462   -7.8113742  
H    4.2188069    1.8703358  -11.4058071  
H    8.0736046   -1.3751312  -10.5317243  
H    3.7574440    1.3012381   -8.7079761  
C    6.1745029   -2.1408800   -4.0544034  
C    6.2180775   -1.7334918   -5.3442539  
C    5.0926412   -0.8229053   -5.4882168  
C    4.4611849   -0.7965391   -4.1513731  
N    5.0910257   -1.5671311   -3.3066964  
C    3.2973506   -0.0000934   -3.8752374  
C    2.7877448    0.7368256   -4.8884437  
O    1.7057652    1.5254555   -4.7725803  
C    3.4025818    0.7316575   -6.2486310  
O    2.8855809    1.4266382   -7.1232352  
C    4.5959746   -0.0936238   -6.5067949  
H    6.9265058   -2.0159443   -6.1041391  
H    1.5889232    1.9175678   -5.6567462  
H    6.8407164   -2.8229592   -3.5505179  
C    3.3321174    0.0004714   -1.3379332  
C    2.6974186    0.0000115   -2.5332308  
C    1.2800441   -0.0002119   -2.2052838  
C    1.2395035    0.0000643   -0.7271293  
N    2.4394063    0.0005458   -0.2131034  
C    0.0000000    0.0000000    0.0000000  
C   -1.1468701    0.0000634   -0.7169542  
O   -2.3742201    0.0000072   -0.1695492  
C   -1.1388767    0.0001606   -2.2096354  
O   -2.2206229    0.0000903   -2.7970413  
C    0.1454526    0.0001815   -2.9324239  
H   -2.9844344    0.0001023   -0.9290168  
H    0.1083580    0.0003680   -4.0135594  
H    4.3940040    0.0007617   -1.1498630  
C    2.5528530    2.1414826    2.8079335  
C    2.0663498    1.7338582    4.0032312  
C    0.9804344    0.8229586    3.6752840  
C    0.9495562    0.7966882    2.1971295  
N    1.8690446    1.5676019    1.6831036  
C    0.0000000    0.0000000    1.4700000  
C   -0.8785127   -0.7372425    2.1869543  
O   -1.8187535   -1.5261249    1.6395491  
C   -0.8723269   -0.7321790    3.6796354  
O   -1.7010379   -1.4274584    4.2670412  
C    0.1115397    0.0933559    4.4024240  
H    2.4028853    2.0163452    4.9860947  
H   -2.2861435   -1.9184361    2.3990168  
H    0.0832434    0.0693689    5.4835595  
H    3.3664920    2.8238276    2.6198634  
