58

C    0.2651301   -0.7281834   -9.5958939  
C    1.0168870   -0.7557228  -10.7264592  
C    1.0239865    0.5859292  -11.2600835  
C    0.2089222    1.4032274  -10.3411243  
N   -0.2220856    0.5472886   -9.3539618  
C   -0.0283262    2.7302597  -10.4973353  
C    0.5580443    3.3981034  -11.6474180  
O    0.4028150    4.5905802  -11.8759001  
C    1.4246148    2.5520010  -12.6338113  
O    1.9231784    3.1032928  -13.6058050  
C    1.6090220    1.1291070  -12.3595522  
H    1.5100011   -1.6175804  -11.1395622  
H   -0.6290624    3.3113315   -9.8114919  
H    2.2105727    0.5503813  -13.0472554  
H    0.0258795   -1.5323995   -8.9192215  
C   -0.0323134   -0.6779777   -5.1766170  
C   -1.0641734    0.0073898   -4.6315339  
C   -1.6436470    0.7548044   -5.7370117  
C   -0.8149132    0.3925081   -6.9068520  
N    0.1311772   -0.4471328   -6.5845079  
C   -1.0682723    0.9310665   -8.2148468  
C   -2.1027597    1.7921066   -8.3481908  
O   -2.4529912    2.3704387   -9.5096168  
C   -2.9577285    2.1770345   -7.1867179  
O   -3.8822556    2.9660878   -7.3813055  
C   -2.6775427    1.6110359   -5.8551526  
H   -3.2210373    2.9272097   -9.2876634  
H   -3.3201087    1.9149462   -5.0396906  
H    0.6514401   -1.3512741   -4.6845539  
C    1.1319248    0.0015675   -0.8009270  
C    0.7969916    0.0034959   -2.1169404  
C   -0.6453336    0.0035703   -2.1842672  
C   -1.1266831    0.0015415   -0.7896027  
N    0.0000000    0.0000000    0.0000000  
C   -2.4346129    0.0013924   -0.4276297  
C   -3.4350110    0.0031352   -1.4820184  
O   -4.6384610    0.0030897   -1.2583919  
C   -2.9478958    0.0050460   -2.9661075  
O   -3.7809377    0.0062160   -3.8623775  
C   -1.5113821    0.0053068   -3.2312125  
H    1.4821240    0.0045436   -2.9459192  
H   -2.7664565    0.0000185    0.6013447  
H    2.1104318    0.0009428   -0.3488058  
C    2.5528530    2.1414826    2.8079335  
C    2.0663498    1.7338582    4.0032312  
C    0.9804344    0.8229586    3.6752840  
C    0.9495562    0.7966882    2.1971295  
N    1.8690446    1.5676019    1.6831036  
C    0.0000000    0.0000000    1.4700000  
C   -0.8785127   -0.7372425    2.1869543  
O   -1.8187535   -1.5261249    1.6395491  
C   -0.8723269   -0.7321790    3.6796354  
O   -1.7010379   -1.4274584    4.2670412  
C    0.1115397    0.0933559    4.4024240  
H    2.4028853    2.0163452    4.9860947  
H   -2.2861435   -1.9184361    2.3990168  
H    0.0832434    0.0693689    5.4835595  
H    3.3664920    2.8238276    2.6198634  
