58

C    9.0469771   -0.0039984   -3.8087258  
C    9.6634883   -0.0034361   -2.5987719  
C   11.0852341   -0.0038162   -2.8507126  
C   11.2476487   -0.0046227   -4.3171412  
N    9.9747438   -0.0050949   -4.8392546  
C   12.4437613   -0.0047737   -4.9582480  
C   13.6517899   -0.0043230   -4.1500385  
O   14.7764525   -0.0044763   -4.6331876  
C   13.5034439   -0.0037195   -2.5951115  
O   14.5134046   -0.0036431   -1.9042865  
C   12.1605719   -0.0033281   -2.0201789  
H    9.1777248   -0.0030072   -1.6392687  
H   12.5408677   -0.0052397   -6.0350399  
H   12.0664969   -0.0027056   -0.9427409  
H    9.7537586   -0.0041222   -5.8181376  
C    5.6039774   -0.0017519   -1.1379128  
C    4.5679461   -0.0016854   -2.0086701  
C    5.1852102   -0.0025558   -3.3260480  
C    6.6391264   -0.0029689   -3.0563963  
N    6.8907016   -0.0025813   -1.7754983  
C    7.6095176   -0.0038927   -4.1163141  
C    7.1484091   -0.0047707   -5.3878142  
O    7.9405116   -0.0056807   -6.4734539  
C    5.6870988   -0.0047546   -5.6923317  
O    5.3390439   -0.0054591   -6.8730423  
C    4.7115722   -0.0037537   -4.5876724  
H    7.3255395   -0.0061822   -7.2290736  
H    3.6621309   -0.0038907   -4.8501666  
H    5.5656913   -0.0012540   -0.0601801  
C    3.1301149   -0.0010311   -1.7028252  
C    2.5367768   -0.0002767   -0.4864665  
C    1.1089904    0.0001028   -0.7656183  
C    1.0177872   -0.0004148   -2.2415132  
N    2.1993578   -0.0011611   -2.7963820  
C   -0.2459209   -0.0002877   -2.9257118  
C   -1.3675319   -0.0000605   -2.1698524  
O   -2.6129313    0.0000867   -2.6748490  
C   -1.3083584    0.0000910   -0.6783232  
O   -2.3693261    0.0004206   -0.0541692  
C    0.0000000    0.0000000    0.0000000  
H    3.0096017   -0.0001007    0.4807525  
H   -0.2829630   -0.0004687   -4.0053125  
H   -3.1967441    0.0002094   -1.8949034  
C    2.5128556    2.1077716    2.9199648  
C    1.9592212    1.6432552    4.0696553  
C    0.8915788    0.7479214    3.6910360  
C    0.8684491    0.7287414    2.2159470  
N    1.8754542    1.5738793    1.8102719  
C    0.0000000    0.0000000    1.4700000  
C   -0.9772830   -0.8200135    2.1664417  
O   -1.8021297   -1.5120829    1.5842315  
C   -0.9711318   -0.8147624    3.7284083  
O   -1.7894187   -1.5009653    4.3257297  
C    0.0140216    0.0115358    4.4216297  
H    2.2638494    1.8988021    5.0689105  
H    0.0117648    0.0094386    5.5031631  
H    3.3327358    2.7953732    2.7900019  
H    2.1123206    1.7707734    0.8551938  
