58

C    5.7052416   -2.0986834   -4.6958674  
C    4.8302129   -1.6343311   -3.7670098  
C    3.9272650   -0.7382853   -4.4501074  
C    4.3509920   -0.7185535   -5.8632096  
N    5.4336785   -1.5634476   -5.9458735  
C    3.7483768    0.0103197   -6.8365043  
C    2.6063698    0.8302498   -6.4676277  
O    1.9959434    1.5225188   -7.2716453  
C    2.1405129    0.8248036   -4.9767377  
O    1.1803932    1.5114042   -4.6542317  
C    2.8699641   -0.0020530   -4.0185824  
H    4.8187251   -1.8901546   -2.7224829  
H    4.0749507    0.0105274   -7.8671642  
H    6.5257693   -2.7867006   -4.5723449  
C    7.1772592   -5.2837330   -7.5632282  
C    6.5402278   -4.3642742   -6.7932527  
C    6.6370234   -3.0988304   -7.4818150  
C    7.3880254   -3.3582883   -8.7249843  
N    7.6865428   -4.7012905   -8.7139371  
C    7.6899988   -2.4143506   -9.6520759  
C    7.2458887   -1.0518872   -9.4091862  
O    7.4682998   -0.1306935  -10.1839363  
C    6.4492249   -0.7542894   -8.0990086  
O    6.0704085    0.3890972   -7.8835415  
C    6.1844898   -1.8548049   -7.1756275  
H    6.0577542   -4.5511487   -5.8504326  
H    8.2418632   -2.6257137  -10.5574386  
H    7.3177061   -6.3377809   -7.3867417  
H    8.1942281   -5.1843589   -9.4322314  
C    3.2573670   -0.0002921   -1.5109382  
C    2.5379468   -0.0001711   -0.3591962  
C    1.1435043    0.0000330   -0.7338498  
C    1.1092608   -0.0000085   -2.2088474  
N    2.4227562    0.0001906   -2.6182610  
C   -0.0265533   -0.0002525   -2.9515663  
C   -1.3003033   -0.0002641   -2.2514979  
O   -2.3786785   -0.0004132   -2.8306425  
C   -1.2877724    0.0000310   -0.6895608  
O   -2.3539956    0.0003306   -0.0892035  
C    0.0000000    0.0000000    0.0000000  
H    2.9384091   -0.0000370    0.6389240  
H   -0.0296290   -0.0004088   -4.0327231  
H    4.3270394   -0.0004767   -1.6439445  
C    0.8681109    0.7263879    2.2709268  
C    0.6127770    0.5096195    3.5869401  
C   -0.4920590   -0.4175482    3.6542670  
C   -0.8620974   -0.7254003    2.2596025  
N    0.0000000    0.0000000    1.4700000  
C   -1.8641242   -1.5660088    1.8976294  
C   -2.6293522   -2.2103885    2.9520183  
O   -3.5512764   -2.9839180    2.7283916  
C   -2.2549728   -1.8987399    4.4361073  
O   -2.8923672   -2.4351063    5.3323774  
C   -1.1543735   -0.9755647    4.7012123  
H    1.1382914    0.9492124    4.4159191  
H   -2.1192137   -1.7782617    0.8686553  
H   -0.9013378   -0.7652422    5.7314848  
H    1.6172880    1.3558399    1.8188057  
