60

C    3.3003542    0.0005278   -1.4738987  
C    2.5232813    0.0003500   -2.6090747  
C    1.1623198   -0.0001315   -2.1820098  
C    1.1711882    0.0000585   -0.7636139  
N    2.4852299   -0.0014917   -0.3662356  
C    0.0000000    0.0000000    0.0000000  
C   -1.2020384    0.0000521   -0.6806476  
O   -2.3759250    0.0003495    0.0157752  
C   -1.2314658   -0.0005109   -2.0955504  
O   -2.5054390   -0.0008033   -2.6250178  
C   -0.0764517   -0.0007269   -2.8495190  
H    2.8919952   -0.0005615   -3.6205299  
H    2.8036264    0.0088181    0.5858664  
H   -3.0835640    0.0000349   -0.6418814  
H   -2.4360049   -0.0011521   -3.5845916  
H    4.3715550    0.0004897   -1.3667131  
C    2.2697430   -2.0933922   -5.9499304  
C    1.7761646   -1.6308841   -4.7724154  
C    0.6896457   -0.7359131   -5.0938791  
C    0.5899536   -0.7148023   -6.5657504  
N    1.5756958   -1.5579527   -7.0243341  
C   -0.3170961    0.0136149   -7.2645882  
C   -1.2578065    0.8315636   -6.5172203  
O   -2.1126588    1.5232787   -7.0548617  
C   -1.1702524    0.8246329   -4.9577036  
O   -1.9567839    1.5095616   -4.3177804  
C   -0.1496416   -0.0015606   -4.3176956  
H    2.1326581   -1.8872530   -3.7906820  
H    3.0822591   -2.7801820   -6.1232168  
H    1.7609408   -1.7556229   -7.9905940  
C    0.0963420   -3.1901412  -10.2748114  
C    0.0307711   -2.4831178   -9.1172746  
C   -0.2320787   -1.1097168   -9.4771550  
C   -0.3148893   -1.0743154  -10.9497996  
N   -0.1065997   -2.3670472  -11.3721136  
C   -0.5521707    0.0447905  -11.6798702  
C   -0.7382025    1.2980894  -10.9677128  
O   -0.9568430    2.3604708  -11.5350248  
C   -0.6544086    1.2840102   -9.4080379  
O   -0.8090801    2.3331517   -8.7975960  
C   -0.3936250    0.0153025   -8.7325936  
H    0.1528082   -2.8785261   -8.1246147  
H   -0.6091470    0.0490327  -12.7595216  
H    0.2760593   -4.2431952  -10.4185785  
H   -0.1045521   -2.6668023  -12.3298144  
C    2.4951002    2.0940188    2.9809380  
C    1.9440701    1.6314916    1.8291961  
C    0.8759964    0.7350050    2.2038498  
C    0.8497377    0.7130254    3.6788474  
N    1.8560616    1.5571714    4.0882609  
C   -0.0205033   -0.0168748    4.4215661  
C   -0.9962600   -0.8356168    3.7214979  
O   -1.8224391   -1.5286685    4.3006425  
C   -0.9864710   -0.8277881    2.1595606  
O   -1.8030528   -1.5133726    1.5592035  
C    0.0000000    0.0000000    1.4700000  
H    2.2509283    1.8888011    0.8310761  
H   -0.0229599   -0.0187323    5.5027230  
H    3.3143982    2.7817323    3.1139444  
H    2.0889452    1.7545833    5.0442112  
