58

C    2.1528779   -1.8455356   -8.4934318  
C    3.1031112   -2.6595163   -9.0212264  
C    2.9673817   -2.5893171  -10.4570140  
C    1.8522046   -1.6610381  -10.7243499  
N    1.4015500   -1.2456057   -9.4925958  
C    1.4100096   -1.3269710  -11.9631258  
C    2.0767833   -1.9215231  -13.1096240  
O    1.7524848   -1.6840659  -14.2658000  
C    3.2600587   -2.9075424  -12.8499487  
O    3.8288825   -3.4145326  -13.8073739  
C    3.6459149   -3.1896579  -11.4695956  
H    3.8174705   -3.2427185   -8.4678923  
H    0.5903310   -0.6438271  -12.1373431  
H    4.4663107   -3.8732901  -11.2983583  
H    0.6448701   -0.6037395   -9.3426266  
C    2.5365544   -2.0936799   -5.9975191  
C    2.0254115   -1.6312727   -4.8274817  
C    0.9452520   -0.7345685   -5.1651398  
C    0.8684333   -0.7123308   -6.6383653  
N    1.8600007   -1.5565501   -7.0821874  
C   -0.0266555    0.0178219   -7.3506841  
C   -0.9777107    0.8365828   -6.6174311  
O   -1.8231599    1.5298524   -7.1677885  
C   -0.9143685    0.8284831   -5.0567494  
O   -1.7097814    1.5140808   -4.4286293  
C    0.0950446    0.0004351   -4.4015596  
H    2.3662773   -1.8887982   -3.8405139  
H   -0.0661842    0.0198663   -8.4311199  
H    3.3507073   -2.7814875   -6.1586566  
C    3.3321173    0.0004713   -1.3379338  
C    2.6974181    0.0000116   -2.5332314  
C    1.2800438   -0.0002119   -2.2052841  
C    1.2395034    0.0000643   -0.7271299  
N    2.4394062    0.0005460   -0.2131038  
C    0.0000000    0.0000000    0.0000000  
C   -1.1468702    0.0000634   -0.7169543  
O   -2.3742203    0.0000074   -0.1695487  
C   -1.1388770    0.0001607   -2.2096355  
O   -2.2206234    0.0000905   -2.7970411  
C    0.1454522    0.0001815   -2.9324241  
H    3.1367984   -0.0000653   -3.5160950  
H   -2.9844346    0.0001026   -0.9290167  
H    4.3940038    0.0007618   -1.1498640  
C    0.8400945    0.7047457    2.2710304  
C    0.0000000    0.0000000    1.4700000  
C   -0.8844236   -0.7423113    2.3369512  
C   -0.4878984   -0.4098547    3.7186280  
N    0.5629682    0.4714286    3.6095011  
C   -1.0836927   -0.9095027    4.8308716  
C   -2.1891196   -1.8367527    4.6554461  
O   -2.7906899   -2.3413415    5.5944904  
C   -2.6257283   -2.2031529    3.2011665  
O   -3.5549479   -2.9829990    3.0410059  
C   -1.9068976   -1.5999348    2.0816745  
H   -0.7774656   -0.6525820    5.8354244  
H   -2.2155208   -1.8586617    1.0779135  
H    1.6384792    1.3747609    1.9961646  
H    1.0518368    0.8833920    4.3830260  
