62

C    3.3003542    0.0005282   -1.4738997  
C    2.5232803    0.0003507   -2.6090755  
C    1.1623193   -0.0001311   -2.1820104  
C    1.1711880    0.0000587   -0.7636145  
N    2.4852301   -0.0014918   -0.3662363  
C    0.0000000    0.0000000    0.0000000  
C   -1.2020386    0.0000523   -0.6806476  
O   -2.3759249    0.0003495    0.0157756  
C   -1.2314665   -0.0005103   -2.0955504  
O   -2.5054398   -0.0008029   -2.6250172  
C   -0.0764525   -0.0007263   -2.8495195  
H    2.8919941   -0.0005606   -3.6205312  
H    2.8036266    0.0088181    0.5858649  
H   -3.0835642    0.0000351   -0.6418807  
H   -2.4360060   -0.0011516   -3.5845913  
H    4.3715544    0.0004903   -1.3667153  
C    0.6503140   -0.7058432   -5.1592003  
C   -0.1496429   -0.0015598   -4.3176959  
C   -1.0769635    0.7392947   -5.1399167  
C   -0.7493517    0.4064874   -6.5394519  
N    0.3066292   -0.4735875   -6.4823320  
C   -1.4003429    0.9048547   -7.6209074  
C   -2.4966996    1.8309975   -7.3911351  
O   -3.1448418    2.3343974   -8.2993208  
C   -2.8607684    2.1977463   -5.9171082  
O   -3.7817323    2.9766691   -5.7112798  
C   -2.0864169    1.5959473   -4.8344868  
H   -1.1442248    0.6476984   -8.6393295  
H   -2.3449696    1.8549064   -3.8167369  
H    1.4621418   -1.3748312   -4.9240837  
C    1.8387600   -4.5573178   -7.2134953  
C    2.2982115   -4.3462010   -8.4928712  
C    2.0192043   -2.9852368   -8.8161853  
C    1.3836042   -2.4107676   -7.6857325  
N    1.2879306   -3.3930250   -6.7314605  
C    0.9661167   -1.0769120   -7.6493689  
C    1.1946968   -0.3089081   -8.7745792  
O    0.8074982    0.9998171   -8.7927429  
C    1.8270831   -0.8641306   -9.9123980  
O    1.9829341    0.0285067  -10.9527125  
C    2.2389650   -2.1800085   -9.9490739  
H    2.7747348   -5.0828361   -9.1168002  
H    0.8903284   -3.2769063   -5.8169058  
H    1.0570356    1.3463849   -9.6592804  
H    2.4175558   -0.4259193  -11.6808648  
H    2.7205619   -2.5773997  -10.8348641  
H    1.8591035   -5.4466818   -6.6072142  
C    2.5128556    2.1077716    2.9199648  
C    1.9592212    1.6432552    4.0696553  
C    0.8915788    0.7479214    3.6910360  
C    0.8684491    0.7287414    2.2159470  
N    1.8754542    1.5738793    1.8102719  
C    0.0000000    0.0000000    1.4700000  
C   -0.9772830   -0.8200135    2.1664417  
O   -1.8021297   -1.5120829    1.5842315  
C   -0.9711318   -0.8147624    3.7284083  
O   -1.7894187   -1.5009653    4.3257297  
C    0.0140216    0.0115358    4.4216297  
H    2.2638494    1.8988021    5.0689105  
H    0.0117648    0.0094386    5.5031631  
H    3.3327358    2.7953732    2.7900019  
H    2.1123206    1.7707734    0.8551938  
