60

C    0.0000000    0.0000000    0.0000000  
C    1.0521665   -0.0011901   -0.8862342  
C    0.4917217   -0.0011956   -2.1979130  
C   -0.9187428    0.0003148   -2.0478683  
N   -1.1833173   -0.0009411   -0.7007911  
C   -1.7951703    0.0010349   -3.1372088  
C   -1.2375840    0.0005224   -4.4010424  
O   -2.0474220    0.0015359   -5.4997576  
C    0.1673578   -0.0013566   -4.5711965  
O    0.5673521   -0.0020688   -5.8915549  
C    1.0325768   -0.0023412   -3.4969890  
H    2.0953059   -0.0030648   -0.6200563  
H   -2.0989774    0.0102371   -0.2891826  
H   -1.4634888    0.0006496   -6.2693593  
H    1.5290706   -0.0033152   -5.9180048  
C    4.2912352   -2.1142471   -1.4465410  
C    5.3462922   -1.6514996   -2.1654244  
C    4.8141503   -0.7556973   -3.1650238  
C    3.3521074   -0.7343150   -2.9681401  
N    3.0997482   -1.5787546   -1.9116716  
C    2.4861699   -0.0045381   -3.7159922  
C    3.0304419    0.8143454   -4.7863813  
O    2.3328560    1.5072095   -5.5155002  
C    4.5758841    0.8067605   -5.0130023  
O    5.0456332    1.4919960   -5.9113606  
C    5.4069277   -0.0204837   -4.1418624  
H    6.3794044   -1.9085119   -2.0129870  
H    6.4760567   -0.0200031   -4.3052233  
H    4.2838633   -2.8015795   -0.6162341  
H    2.1903304   -1.7741998   -1.5350979  
C   -4.4484711    2.1113800   -0.3461917  
C   -5.6480035    1.6479662   -0.7825913  
C   -5.3783988    0.7523418   -1.8825937  
C   -3.9129605    0.7317895   -2.0524732  
N   -3.4082523    1.5764911   -1.0908920  
C   -3.2578657    0.0024038   -2.9908504  
C   -4.0489129   -0.8169045   -3.8939084  
O   -3.5523656   -1.5094683   -4.7725987  
C   -5.6025002   -0.8101993   -3.7322731  
O   -6.2789648   -1.4957986   -4.4869983  
C   -6.1934212    0.0166873   -2.6830241  
H   -6.6117251    1.9044259   -0.3799964  
H   -7.2698069    0.0155974   -2.5775883  
H   -4.2368828    2.7988130    0.4566509  
H   -2.4341534    1.7724822   -0.9503004  
C    3.1301144    0.0010313    3.1728260  
C    2.5367765    0.0002768    1.9564670  
C    1.1089900   -0.0001027    2.2356185  
C    1.0177864    0.0004150    3.7115134  
N    2.1993570    0.0011613    4.2663826  
C   -0.2459220    0.0002880    4.3957118  
C   -1.3675327    0.0000606    3.6398520  
O   -2.6129319   -0.0000866    4.1448486  
C   -1.3083589   -0.0000910    2.1483229  
O   -2.3693264   -0.0004206    1.5241687  
C    0.0000000    0.0000000    1.4700000  
H    3.0096015    0.0001008    0.9892483  
H   -0.2829642    0.0004689    5.4753125  
H   -3.1967446   -0.0002093    3.3649027  
H    4.1849273    0.0015113    3.3971983  
