58

C    2.4782024   -2.1081877   -5.8783640  
C    1.9212517   -1.6438942   -7.0265418  
C    0.8545985   -0.7486152   -6.6450159  
C    0.8356632   -0.7292244   -5.1698698  
N    1.8439055   -1.5742005   -4.7669395  
C   -0.0307352   -0.0004646   -4.4215603  
C   -1.0100800    0.8193481   -5.1153371  
O   -1.8333384    1.5114170   -4.5308826  
C   -1.0083720    0.8138721   -6.6773144  
O   -1.8284254    1.4999046   -7.2724045  
C   -0.0251095   -0.0124249   -7.3732162  
H   -0.0304433   -0.0104842   -8.4547392  
H    3.2985200   -2.7956865   -5.7506349  
H    2.0835083   -1.7709324   -3.8125107  
C    2.7065880   -3.2248778   -8.8275805  
C    2.3337835   -1.9933446   -8.3935105  
C    2.4215041   -1.1030998   -9.5269136  
C    2.8792272   -1.9228178  -10.6650449  
N    3.0339221   -3.1989805  -10.1747715  
C    3.0862925   -1.4489873  -11.9197615  
C    2.8422563   -0.0374144  -12.1656139  
O    2.9997594    0.4848204  -13.2614082  
C    2.3573001    0.8494817  -10.9747995  
O    2.1488577    2.0393739  -11.1696554  
C    2.1696489    0.2246245   -9.6678213  
H    3.4221360   -2.0673152  -12.7406088  
H    1.8334748    0.8455770   -8.8485957  
H    2.7699446   -4.1491563   -8.2765958  
H    3.3359378   -3.9901335  -10.7132049  
C    3.2573670   -0.0002920   -1.5109380  
C    2.5379468   -0.0001709   -0.3591961  
C    1.1435043    0.0000332   -0.7338500  
C    1.1092609   -0.0000082   -2.2088477  
N    2.4227562    0.0001909   -2.6182613  
C   -0.0265532   -0.0002522   -2.9515663  
C   -1.3003035   -0.0002639   -2.2514981  
O   -2.3786784   -0.0004131   -2.8306429  
C   -1.2877725    0.0000312   -0.6895608  
O   -2.3539958    0.0003307   -0.0892036  
C    0.0000000    0.0000000    0.0000000  
H    2.9384091   -0.0000369    0.6389239  
H    4.3270394   -0.0004765   -1.6439446  
H    2.7280494   -0.0013406   -3.5742113  
C    2.4951002    2.0940188    2.9809380  
C    1.9440701    1.6314916    1.8291961  
C    0.8759964    0.7350050    2.2038498  
C    0.8497377    0.7130254    3.6788474  
N    1.8560616    1.5571714    4.0882609  
C   -0.0205033   -0.0168748    4.4215661  
C   -0.9962600   -0.8356168    3.7214979  
O   -1.8224391   -1.5286685    4.3006425  
C   -0.9864710   -0.8277881    2.1595606  
O   -1.8030528   -1.5133726    1.5592035  
C    0.0000000    0.0000000    1.4700000  
H    2.2509283    1.8888011    0.8310761  
H   -0.0229599   -0.0187323    5.5027230  
H    3.3143982    2.7817323    3.1139444  
H    2.0889452    1.7545833    5.0442112  
