62

C   -2.3384684    2.3289293   -1.4738969  
C   -1.7878354    1.7806179   -2.6090736  
C   -0.8233392    0.8204289   -2.1820096  
C   -0.8297556    0.8265529   -0.7636135  
N   -1.7595778    1.7550665   -0.3662344  
C    0.0000000    0.0000000    0.0000000  
C    0.8515323   -0.8484033   -0.6806486  
O    1.6829481   -1.6771118    0.0157736  
C    0.8727765   -0.8687728   -2.0955513  
O    1.7755135   -1.7677020   -2.6250193  
C    0.0546735   -0.0534416   -2.8495193  
H   -1.9924181    1.9724778    0.5858680  
H    2.1844879   -2.1763216   -0.6418827  
H    1.7265695   -1.7184494   -3.5845931  
H    0.0933326   -0.0910876   -3.9319087  
H   -3.0973204    3.0849809   -1.3667116  
C   -2.7047908    5.6927134   -4.5697779  
C   -2.3795324    4.7156299   -3.6576475  
C   -2.3883568    3.4729085   -4.3577660  
C   -2.7284159    3.7567414   -5.7052545  
N   -2.9157328    5.1134710   -5.7991394  
C   -2.8305100    2.7641923   -6.6846478  
C   -2.5845438    1.4614178   -6.2967598  
O   -2.6700182    0.4532470   -7.2128923  
C   -2.2442636    1.1581952   -4.9569526  
O   -2.0298676   -0.1853519   -4.7283483  
C   -2.1436289    2.1368304   -3.9901688  
H   -2.1636647    4.8784084   -2.6155835  
H   -3.1556949    5.6094960   -6.6384002  
H   -3.0894239    2.9739670   -7.7133171  
H   -2.4640237   -0.3635870   -6.7400140  
H   -1.8052285   -0.3039273   -3.8004039  
C   -2.6535007    7.8285580   -3.2008733  
C   -2.8549369    9.1612563   -3.3664447  
C   -3.1962729    9.3662009   -4.7543647  
C   -3.1770747    8.0341033   -5.3883511  
N   -2.8408071    7.1457031   -4.3930830  
C   -3.4472537    7.8018447   -6.6978408  
C   -3.7788821    8.9398262   -7.5390057  
O   -4.0376929    8.8342747   -8.7307167  
C   -3.8049010   10.3597736   -6.8887153  
O   -4.0824692   11.3254730   -7.5870281  
C   -3.4959987   10.4839323   -5.4663884  
H   -2.7735071    9.9147749   -2.6034286  
H   -3.4277979    6.8167827   -7.1430201  
H   -3.5163821   11.4705301   -5.0237424  
H   -2.3837667    7.2878453   -2.3082575  
C    0.0000000    0.0000000    1.4700000  
C    1.0541688    0.0001722    2.3260392  
C    0.5103138    0.0000454    3.6635956  
C   -0.9576371   -0.0002459    3.5155732  
N   -1.2018458    0.0001392    2.1615969  
C   -1.8348311   -0.0008317    4.5510609  
C   -1.2972847   -0.0009736    5.9014604  
O   -2.0050672   -0.0014265    6.9001319  
C    0.2542623   -0.0004184    6.0817573  
O    0.7184670   -0.0002256    7.2139121  
C    1.0974552   -0.0000873    4.8889129  
H    2.0940752    0.0005483    2.0517982  
H   -2.9081052   -0.0011668    4.4207061  
H    2.1707277    0.0000911    5.0223670  
H   -2.1128194   -0.0014912    1.7406791  
