58

C   -1.4376645    2.9479257   -1.4499647  
C   -1.1209701    2.2983171   -2.5996552  
C   -0.5100653    1.0460076   -2.2210362  
C   -0.4967420    1.0190751   -0.7459469  
N   -1.0726836    2.2008573   -0.3402715  
C    0.0000000    0.0000000    0.0000000  
C    0.5590157   -1.1467374   -0.6964417  
O    1.0308522   -2.1145712   -0.1142320  
C    0.5555338   -1.1394373   -2.2584080  
O    1.0237653   -2.0992433   -2.8557298  
C   -0.0081141    0.0162431   -2.9516297  
H   -0.0069058    0.0134090   -4.0331632  
H   -1.9067820    3.9096574   -1.3200018  
H   -1.2089282    2.4771006    0.6148067  
C   -0.8082768    6.2381431   -4.6598579  
C   -0.7684355    5.2870787   -3.6978450  
C   -1.1907428    4.0636489   -4.3622061  
C   -1.4534776    4.4699317   -5.7595206  
N   -1.2309337    5.7434628   -5.9400249  
C   -1.8978907    3.5323188   -6.7537369  
C   -2.0715508    2.2471684   -6.3695952  
O   -2.4821131    1.2668866   -7.1921083  
C   -1.8143855    1.8060886   -4.9669278  
O   -1.9934856    0.6206333   -4.6879306  
C   -1.3591784    2.7868243   -3.9654949  
H   -0.4871170    5.4015857   -2.6649734  
H   -2.0824373    3.8569043   -7.7673918  
H   -2.5098773    0.4695056   -6.6330324  
C   -0.4778548    7.6651832   -4.5362575  
C   -0.0633235    8.3322565   -3.4340970  
C    0.1160483    9.7075258   -3.8733692  
C   -0.2444545    9.6907772   -5.3073644  
N   -0.5935106    8.4963193   -5.7015955  
C   -0.1972532   10.8766551   -6.1176438  
C    0.1920084   12.0270510   -5.5223292  
O    0.2816735   13.2078997   -6.1576223  
C    0.5617567   12.0762971   -4.0769843  
O    0.9069395   13.1579474   -3.6014825  
C    0.5052711   10.8463543   -3.2670634  
H    0.1004137    7.9395811   -2.4451219  
H   -0.4659667   10.8353659   -7.1631087  
H    0.5827579   13.8344501   -5.4750278  
H    0.7808550   10.9240370   -2.2238718  
C    2.4951002    2.0940188    2.9809380  
C    1.9440701    1.6314916    1.8291961  
C    0.8759964    0.7350050    2.2038498  
C    0.8497377    0.7130254    3.6788474  
N    1.8560616    1.5571714    4.0882609  
C   -0.0205033   -0.0168748    4.4215661  
C   -0.9962600   -0.8356168    3.7214979  
O   -1.8224391   -1.5286685    4.3006425  
C   -0.9864710   -0.8277881    2.1595606  
O   -1.8030528   -1.5133726    1.5592035  
C    0.0000000    0.0000000    1.4700000  
H    2.2509283    1.8888011    0.8310761  
H   -0.0229599   -0.0187323    5.5027230  
H    3.3143982    2.7817323    3.1139444  
H    2.0889452    1.7545833    5.0442112  
