60

C    0.0000000    0.0000000    0.0000000  
C    1.0541694   -0.0001722   -0.8560390  
C    0.5103145   -0.0000453   -2.1935954  
C   -0.9576361    0.0002459   -2.0455733  
N   -1.2018454   -0.0001391   -0.6915972  
C   -1.8348300    0.0008318   -3.0810613  
C   -1.2972833    0.0009738   -4.4314609  
O   -2.0050656    0.0014267   -5.4301325  
C    0.2542637    0.0004186   -4.6117574  
O    0.7184688    0.0002259   -5.7439120  
C    1.0974565    0.0000875   -3.4189127  
H    2.0940755   -0.0005483   -0.5817978  
H   -2.1128189    0.0014912   -0.2706798  
C   -4.4922134    2.0924790   -0.2420904  
C   -3.4155267    1.6303225   -0.9285533  
C   -3.9166416    0.7353628   -1.9448043  
C   -5.3840550    0.7138752   -1.7930606  
N   -5.6687577    1.5568188   -0.7436414  
C   -6.2266201   -0.0146454   -2.5683326  
C   -5.6496871   -0.8323155   -3.6224193  
O   -6.3245414   -1.5240963   -4.3736263  
C   -4.0979606   -0.8249839   -3.8010130  
O   -3.6007568   -1.5096759   -4.6848944  
C   -3.2941062    0.0012875   -2.9038250  
H   -2.3875706    1.8869171   -0.7439488  
H   -7.3001873   -0.0161643   -2.4404196  
H   -4.5251469    2.7791514    0.5881420  
H   -6.5895632    1.7542194   -0.3969475  
C    4.3047791   -2.1086508   -1.2859233  
C    5.3774565   -1.6442174   -1.9771105  
C    4.8701590   -0.7486150   -2.9897219  
C    3.4034923   -0.7291871   -2.8306563  
N    3.1250160   -1.5744524   -1.7814343  
C    2.5562225   -0.0001551   -3.6002997  
C    3.1269063    0.8199321   -4.6559096  
O    2.4474954    1.5122567   -5.4024940  
C    4.6776945    0.8144221   -4.8425415  
O    5.1696095    1.5006843   -5.7281625  
C    5.4870241   -0.0121806   -3.9505965  
H    6.4066162   -1.8999878   -1.7981546  
H    6.5600142   -0.0102614   -4.0862889  
H    4.2768475   -2.7963891   -0.4563899  
H    2.2064273   -1.7712347   -1.4285622  
C    3.3041272   -0.0001177    3.0120429  
C    2.5845372    0.0004780    1.8395852  
C    1.2040006    0.0000008    2.1983588  
C    1.1422373   -0.0006037    3.6154372  
N    2.4348639   -0.0026109    4.0777464  
C   -0.0655181   -0.0008797    4.3197917  
C   -1.2321768   -0.0002324    3.5801400  
O   -2.4392816   -0.0001146    4.2172520  
C   -1.1911209    0.0000007    2.1655264  
O   -2.4371527    0.0002320    1.5732860  
C    0.0000000    0.0000000    1.4700000  
H    3.0031534    0.0000661    0.8477417  
H    2.7054629    0.0071099    5.0445261  
H   -0.1193549   -0.0014844    5.3997470  
H   -3.1132988    0.0000648    3.5251786  
H   -2.3200282    0.0004071    0.6183591  
H    4.3686625   -0.0004071    3.1724291  
