58

C   -1.0965426    0.0043837   -0.8010309  
C    0.0000000    0.0000000    0.0000000  
C    1.1546461   -0.0049060   -0.8669511  
C    0.6371951   -0.0029782   -2.2486280  
N   -0.7342834    0.0022926   -2.1395012  
C    1.4147621   -0.0059665   -3.3608714  
C    2.8575817   -0.0116730   -3.1854456  
O    3.6427492   -0.0147647   -4.1244896  
C    3.4275556   -0.0140544   -1.7311652  
O    4.6406438   -0.0191601   -1.5710044  
C    2.4891660   -0.0101502   -0.6116739  
H    2.8918885   -0.0116272    0.3920869  
H   -2.1388090    0.0087490   -0.5261650  
H   -1.3735722    0.0062710   -2.9130263  
C    0.8712755   -0.0037622   -4.7267106  
C   -0.4275876    0.0013791   -5.1068515  
C   -0.3927374    0.0012943   -6.5612540  
C    1.0467396   -0.0042648   -6.8995716  
N    1.7925627   -0.0073282   -5.8282518  
C    1.5084716   -0.0060512   -8.2604119  
C    0.5746167   -0.0028368   -9.2387987  
O    0.8627862   -0.0039935  -10.5514281  
C   -0.8856638    0.0024210   -8.9294217  
O   -1.6794854    0.0052640   -9.8701976  
C   -1.3340887    0.0042078   -7.5255568  
H   -1.3014174    0.0047157   -4.4779746  
H    2.5664278   -0.0099303   -8.4786392  
H   -0.0042917   -0.0009874  -10.9956356  
C   -3.6648796    2.1544439   -4.5370125  
C   -4.9264075    1.7510993   -4.8152915  
C   -4.7890572    0.8394545   -5.9406970  
C   -3.3372881    0.8081141   -6.2199248  
N   -2.6731774    1.5769374   -5.4002557  
C   -2.7831076    0.0092607   -7.2781327  
C   -3.6402373   -0.7252083   -8.0232629  
O   -3.2616212   -1.5156416   -9.0420396  
C   -5.1105550   -0.7150161   -7.7659252  
O   -5.8314579   -1.4079849   -8.4837785  
C   -5.6545817    0.1126570   -6.6746335  
H   -5.8376249    2.0368463   -4.3181929  
H   -4.0902704   -1.9051777   -9.3748383  
H   -6.7251320    0.0923962   -6.5205485  
H   -3.3401940    2.8358560   -3.7667985  
C    0.8400945    0.7047457    2.2710304  
C    0.0000000    0.0000000    1.4700000  
C   -0.8844236   -0.7423113    2.3369512  
C   -0.4878984   -0.4098547    3.7186280  
N    0.5629682    0.4714286    3.6095011  
C   -1.0836927   -0.9095027    4.8308716  
C   -2.1891196   -1.8367527    4.6554461  
O   -2.7906899   -2.3413415    5.5944904  
C   -2.6257283   -2.2031529    3.2011665  
O   -3.5549479   -2.9829990    3.0410059  
C   -1.9068976   -1.5999348    2.0816745  
H   -0.7774656   -0.6525820    5.8354244  
H   -2.2155208   -1.8586617    1.0779135  
H    1.6384792    1.3747609    1.9961646  
H    1.0518368    0.8833920    4.3830260  
