62

C    3.3003547    0.0005275   -1.4738980  
C    2.5232816    0.0003495   -2.6090742  
C    1.1623206   -0.0001320   -2.1820096  
C    1.1711889    0.0000583   -0.7636136  
N    2.4852300   -0.0014920   -0.3662353  
C    0.0000000    0.0000000    0.0000000  
C   -1.2020382    0.0000519   -0.6806479  
O   -2.3759247    0.0003494    0.0157745  
C   -1.2314650   -0.0005113   -2.0955508  
O   -2.5054383   -0.0008037   -2.6250181  
C   -0.0764510   -0.0007273   -2.8495192  
H    2.8919962   -0.0005621   -3.6205295  
H    2.8036265    0.0088181    0.5858667  
H   -3.0835641    0.0000347   -0.6418820  
H   -2.4360047   -0.0011529   -3.5845921  
C    5.6708527    0.0001559   -2.3611556  
C    4.7630506    0.0004754   -1.3275394  
C    5.5133495   -0.0009826   -0.1144235  
C    6.8855148   -0.0018732   -0.4737112  
N    6.9456606   -0.0031000   -1.8452062  
C    7.9149931   -0.0030748    0.4723126  
C    7.5526788   -0.0030760    1.8053193  
O    8.5177183   -0.0038718    2.7705708  
C    6.1889808   -0.0025710    2.1836640  
O    5.9909385   -0.0030667    3.5489927  
C    5.1728468   -0.0016587    1.2509268  
H    7.7894877    0.0066338   -2.3891194  
H    8.9627174   -0.0039020    0.2049649  
H    8.0554429   -0.0040212    3.6188428  
H    5.0439893   -0.0026485    3.7189663  
H    4.1374041   -0.0014714    1.5708277  
H    5.5098591    0.0005473   -3.4255990  
C    2.2882822   -2.1097770   -5.8897962  
C    1.6780097   -1.6459966   -7.0107556  
C    0.6303825   -0.7506088   -6.5799497  
C    0.6807213   -0.7305953   -5.1055495  
N    1.7068267   -1.5753511   -4.7500425  
C   -0.1496409   -0.0015614   -4.3176961  
C   -1.1605334    0.8179096   -4.9650744  
O   -1.9554930    1.5101851   -4.3429047  
C   -1.2321577    0.8117731   -6.5254067  
O   -2.0792923    1.4975138   -7.0816293  
C   -0.2825933   -0.0147700   -7.2663562  
H    1.9325538   -1.9020645   -8.0237955  
H   -0.3386962   -0.0132868   -8.3464369  
H    3.1137391   -2.7971813   -5.8004310  
H    1.9909868   -1.7716677   -3.8078326  
C    0.8681109    0.7263879    2.2709268  
C    0.6127770    0.5096195    3.5869401  
C   -0.4920590   -0.4175482    3.6542670  
C   -0.8620974   -0.7254003    2.2596025  
N    0.0000000    0.0000000    1.4700000  
C   -1.8641242   -1.5660088    1.8976294  
C   -2.6293522   -2.2103885    2.9520183  
O   -3.5512764   -2.9839180    2.7283916  
C   -2.2549728   -1.8987399    4.4361073  
O   -2.8923672   -2.4351063    5.3323774  
C   -1.1543735   -0.9755647    4.7012123  
H    1.1382914    0.9492124    4.4159191  
H   -2.1192137   -1.7782617    0.8686553  
H   -0.9013378   -0.7652422    5.7314848  
H    1.6172880    1.3558399    1.8188057  
