58

C    3.2573670   -0.0002919   -1.5109384  
C    2.5379470   -0.0001709   -0.3591964  
C    1.1435040    0.0000332   -0.7338499  
C    1.1092606   -0.0000081   -2.2088477  
N    2.4227557    0.0001910   -2.6182611  
C   -0.0265536   -0.0002523   -2.9515660  
C   -1.3003033   -0.0002639   -2.2514979  
O   -2.3786789   -0.0004131   -2.8306421  
C   -1.2877726    0.0000312   -0.6895605  
O   -2.3539963    0.0003307   -0.0892032  
C    0.0000000    0.0000000    0.0000000  
H    2.9384088   -0.0000368    0.6389234  
H   -0.0296296   -0.0004084   -4.0327231  
H    2.7280488   -0.0013406   -3.5742118  
C    6.5597225   -0.0008211    1.3835019  
C    7.6114516   -0.0009114    0.5244672  
C    7.0637934   -0.0009870   -0.8115365  
C    5.5962697   -0.0009038   -0.6593383  
N    5.3559138   -0.0012037    0.6953274  
C    4.7161330   -0.0005435   -1.6923262  
C    5.2498357   -0.0004420   -3.0442496  
O    4.5392143   -0.0001858   -4.0409036  
C    6.8008630   -0.0007795   -3.2289598  
O    7.2618453   -0.0010041   -4.3624308  
C    7.6474465   -0.0008760   -2.0385193  
H    8.6521344   -0.0011059    0.7957486  
H    6.5627891   -0.0007240    2.4614077  
H    4.4461413    0.0003271    1.1188351  
C   10.8611433   -2.1089385    0.0855244  
C   11.9317794   -1.6444055   -0.6087538  
C   11.4214680   -0.7489709   -1.6199979  
C    9.9552568   -0.7297499   -1.4567616  
N    9.6798948   -1.5749626   -0.4066757  
C    9.1056904   -0.0009149   -2.2240563  
C    9.6732444    0.8191633   -3.2813592  
O    8.9916078    1.5113182   -4.0260694  
C   11.2234961    0.8138703   -3.4724024  
O   11.7127854    1.5001270   -4.3594811  
C   12.0354847   -0.0125300   -2.5826898  
H   12.9614838   -1.9000046   -0.4327042  
H   13.1080841   -0.0104612   -2.7214350  
H   10.8356760   -2.7966064    0.9151954  
H    8.7623436   -1.7718516   -0.0511735  
C    0.8400945    0.7047457    2.2710304  
C    0.0000000    0.0000000    1.4700000  
C   -0.8844236   -0.7423113    2.3369512  
C   -0.4878984   -0.4098547    3.7186280  
N    0.5629682    0.4714286    3.6095011  
C   -1.0836927   -0.9095027    4.8308716  
C   -2.1891196   -1.8367527    4.6554461  
O   -2.7906899   -2.3413415    5.5944904  
C   -2.6257283   -2.2031529    3.2011665  
O   -3.5549479   -2.9829990    3.0410059  
C   -1.9068976   -1.5999348    2.0816745  
H   -0.7774656   -0.6525820    5.8354244  
H   -2.2155208   -1.8586617    1.0779135  
H    1.6384792    1.3747609    1.9961646  
H    1.0518368    0.8833920    4.3830260  
