58

C    0.8696307   -1.0761641   -7.7091951  
C    1.9087721   -1.9500607   -7.7329741  
C    2.1917965   -2.2299333   -9.1209244  
C    1.2254528   -1.4417802   -9.9094570  
N    0.4524086   -0.7650023   -8.9944357  
C    1.1657035   -1.4321195  -11.2652017  
C    2.1164670   -2.2529163  -11.9965545  
O    2.1433623   -2.3121521  -13.2188745  
C    3.1486594   -3.0959348  -11.1818749  
O    3.9538479   -3.7910214  -11.7866796  
C    3.1153208   -3.0239292   -9.7232610  
H    2.4186973   -2.3528187   -6.8760175  
H    0.4490635   -0.8466883  -11.8243150  
H    3.8334872   -3.6105123   -9.1665912  
H   -0.2978392   -0.1396334   -9.2248469  
C    0.5157023   -0.7055389   -5.2240925  
C   -0.2963293   -0.0005341   -4.3948471  
C   -1.2098552    0.7417638   -5.2310887  
C   -0.8609896    0.4090171   -6.6254926  
N    0.1928750   -0.4724045   -6.5523132  
C   -1.4945018    0.9085675   -7.7167381  
C   -2.5931303    1.8360112   -7.5036697  
O   -3.2264755    2.3405325   -8.4216202  
C   -2.9795613    2.2027198   -6.0353367  
O   -3.9026312    2.9827311   -5.8435407  
C   -2.2228515    1.5995820   -4.9410482  
H   -1.2229386    0.6514332   -8.7311565  
H   -2.4968364    1.8585229   -3.9273394  
H    1.3229470   -1.3756268   -4.9766502  
C    3.1301146   -0.0010313   -1.7028256  
C    2.5367765   -0.0002766   -0.4864669  
C    1.1089901    0.0001027   -0.7656184  
C    1.0177865   -0.0004150   -2.2415133  
N    2.1993571   -0.0011612   -2.7963824  
C   -0.2459219   -0.0002879   -2.9257116  
C   -1.3675326   -0.0000606   -2.1698520  
O   -2.6129318    0.0000865   -2.6748483  
C   -1.3083588    0.0000910   -0.6783229  
O   -2.3693264    0.0004206   -0.0541685  
C    0.0000000    0.0000000    0.0000000  
H    3.0096016   -0.0001007    0.4807518  
H   -3.1967444    0.0002093   -1.8949026  
H    4.1849275   -0.0015114   -1.9271979  
C    0.8175213    0.6860729    2.3021913  
C    0.0000000    0.0000000    1.4700000  
C   -0.8887526   -0.7456559    2.3478473  
C   -0.4549825   -0.3816753    3.7138435  
N    0.5448156    0.4573574    3.6934124  
C   -1.0945674   -0.9182058    4.8835240  
C   -2.1210866   -1.7789155    4.6970523  
O   -2.8083856   -2.3554314    5.6976972  
C   -2.5824069   -2.1655116    3.3310774  
O   -3.5227682   -2.9541547    3.2362962  
C   -1.9100805   -1.6015804    2.1470656  
H   -0.7567140   -0.6349833    5.8697035  
H   -3.4728268   -2.9124471    5.2533954  
H   -2.2742832   -1.9066565    1.1752040  
H    1.6189533    1.3585343    2.0405121  
