58

C    3.9135206   -0.7081242   -4.5250692  
C    2.8699641   -0.0020530   -4.0185824  
C    2.2916399    0.7390436   -5.1145536  
C    3.0895145    0.4044299   -6.3096355  
N    4.0568590   -0.4768157   -5.8847345  
C    2.8606213    0.9024535   -7.5511208  
C    1.7547618    1.8301066   -7.7216198  
O    1.4676781    2.3333360   -8.7998803  
C    0.8966360    2.1987798   -6.4696194  
O   -0.0368095    2.9789835   -6.6008450  
C    1.2404686    1.5971817   -5.1836520  
H    3.4577921    0.6439621   -8.4145320  
H    0.6412574    1.8574784   -4.3217267  
H    4.5900518   -1.3778175   -4.0193959  
C    5.7284576   -4.5350986   -6.0241490  
C    6.6123595   -4.3791603   -7.0432054  
C    6.5039714   -3.0099915   -7.4886996  
C    5.4771275   -2.3764969   -6.6395438  
N    5.0462819   -3.3543210   -5.7728708  
C    5.0833961   -1.0820961   -6.7454068  
C    5.7128254   -0.2579253   -7.7637854  
O    5.4269988    0.9194244   -7.9382893  
C    6.8026301   -0.9081350   -8.6744783  
O    7.3393159   -0.2241979   -9.5355579  
C    7.1426797   -2.3132095   -8.4647551  
H    7.2655985   -5.1368524   -7.4379137  
H    7.8983967   -2.7558157   -9.0993544  
H    5.5178681   -5.4133314   -5.4357202  
H    4.3457851   -3.2289027   -5.0653249  
C    3.2573670   -0.0002921   -1.5109382  
C    2.5379468   -0.0001711   -0.3591962  
C    1.1435043    0.0000330   -0.7338498  
C    1.1092608   -0.0000085   -2.2088474  
N    2.4227562    0.0001906   -2.6182610  
C   -0.0265533   -0.0002525   -2.9515663  
C   -1.3003033   -0.0002641   -2.2514979  
O   -2.3786785   -0.0004132   -2.8306425  
C   -1.2877724    0.0000310   -0.6895608  
O   -2.3539956    0.0003306   -0.0892035  
C    0.0000000    0.0000000    0.0000000  
H    2.9384091   -0.0000370    0.6389240  
H   -0.0296290   -0.0004088   -4.0327231  
H    4.3270394   -0.0004767   -1.6439445  
C    2.5128556    2.1077716    2.9199648  
C    1.9592212    1.6432552    4.0696553  
C    0.8915788    0.7479214    3.6910360  
C    0.8684491    0.7287414    2.2159470  
N    1.8754542    1.5738793    1.8102719  
C    0.0000000    0.0000000    1.4700000  
C   -0.9772830   -0.8200135    2.1664417  
O   -1.8021297   -1.5120829    1.5842315  
C   -0.9711318   -0.8147624    3.7284083  
O   -1.7894187   -1.5009653    4.3257297  
C    0.0140216    0.0115358    4.4216297  
H    2.2638494    1.8988021    5.0689105  
H    0.0117648    0.0094386    5.5031631  
H    3.3327358    2.7953732    2.7900019  
H    2.1123206    1.7707734    0.8551938  
