62

C    1.9074108   -2.1157071   -5.2171227  
C    1.7366759   -1.6153236   -6.4871358  
C    0.6103634   -0.7412451   -6.4423316  
C    0.1310749   -0.7480684   -5.1073554  
N    0.9400192   -1.5942807   -4.3903116  
C   -0.9736295    0.0040468   -4.6965766  
C   -1.6058296    0.7773685   -5.6507644  
O   -2.6892488    1.5315503   -5.3037408  
C   -1.1427630    0.7971182   -6.9879240  
O   -1.8787350    1.6162806   -7.8189838  
C   -0.0531714    0.0551810   -7.3939361  
H    2.3479773   -1.8521280   -7.3410840  
H    0.8493706   -1.7919003   -3.4101532  
H   -2.9736266    1.9867696   -6.1069657  
H   -1.5003145    1.5722389   -8.7024219  
H    0.2783215    0.0903622   -8.4251261  
C    1.1188643    0.0008216   -0.8003809  
C    0.0000000    0.0000000    0.0000000  
C   -1.1323859    0.0008902   -0.8673534  
C   -0.6382663    0.0019683   -2.1969282  
N    0.7324018    0.0038479   -2.1202245  
C   -1.4770913    0.0027324   -3.3154811  
C   -2.8395474    0.0020957   -3.0876860  
O   -3.7039199    0.0024440   -4.1440352  
C   -3.3517864    0.0013942   -1.7684335  
O   -4.7300497    0.0012384   -1.7073125  
C   -2.5248543    0.0009134   -0.6644818  
H    1.3576316   -0.0056173   -2.9057049  
H   -4.5940034    0.0021845   -3.7685132  
H   -4.9934602    0.0007278   -0.7819917  
H   -2.9462578    0.0005613    0.3339657  
H    2.1619898    0.0009348   -0.5342072  
C    3.9095360   -3.6370654   -5.4093921  
C    2.9102474   -3.0561023   -4.6966657  
C    3.0246894   -3.5387791   -3.3406561  
C    4.1808714   -4.4551160   -3.3216641  
N    4.6726572   -4.4711724   -4.6064904  
C    4.6186177   -5.1179624   -2.2213377  
C    3.9031578   -4.9155278   -0.9724693  
O    4.2195646   -5.4671555    0.0734249  
C    2.6756088   -3.9496495   -0.9694969  
O    2.0652397   -3.7715796    0.0759698  
C    2.2994957   -3.2920071   -2.2184553  
H    5.4690089   -5.7855611   -2.2288646  
H    1.4485016   -2.6246080   -2.2078911  
H    4.1525529   -3.5262073   -6.4536830  
H    5.4652167   -5.0048759   -4.9131782  
C    0.8175213    0.6860729    2.3021913  
C    0.0000000    0.0000000    1.4700000  
C   -0.8887526   -0.7456559    2.3478473  
C   -0.4549825   -0.3816753    3.7138435  
N    0.5448156    0.4573574    3.6934124  
C   -1.0945674   -0.9182058    4.8835240  
C   -2.1210866   -1.7789155    4.6970523  
O   -2.8083856   -2.3554314    5.6976972  
C   -2.5824069   -2.1655116    3.3310774  
O   -3.5227682   -2.9541547    3.2362962  
C   -1.9100805   -1.6015804    2.1470656  
H   -0.7567140   -0.6349833    5.8697035  
H   -3.4728268   -2.9124471    5.2533954  
H   -2.2742832   -1.9066565    1.1752040  
H    1.6189533    1.3585343    2.0405121  
