58

C    9.6957672   -4.3564499   -5.4598510  
C   10.0275356   -5.0024387   -4.3123733  
C    9.0641207   -4.6061989   -3.3125427  
C    8.1372167   -3.6697193   -3.9763554  
N    8.5751977   -3.5606640   -5.2760356  
C    7.0826286   -3.0706321   -3.3675509  
C    6.8447407   -3.3678545   -1.9648380  
O    5.9211816   -2.8786758   -1.3276219  
C    7.8139565   -4.3566298   -1.2418246  
O    7.6238502   -4.6142627   -0.0608311  
C    8.9154712   -4.9396671   -2.0037880  
H   10.8530642   -5.6791402   -4.1812588  
H    9.5819092   -5.6234935   -1.4958877  
H   10.1757333   -4.3946168   -6.4242494  
H    8.1456550   -2.9922703   -5.9827667  
C    6.1745028   -2.1408797   -4.0544039  
C    6.2180773   -1.7334911   -5.3442551  
C    5.0926408   -0.8229047   -5.4882170  
C    4.4611847   -0.7965389   -4.1513732  
N    5.0910258   -1.5671308   -3.3066974  
C    3.2973506   -0.0000934   -3.8752374  
C    2.7877443    0.7368259   -4.8884434  
O    1.7057650    1.5254560   -4.7725804  
C    3.4025812    0.7316581   -6.2486307  
O    2.8855803    1.4266387   -7.1232350  
C    4.5959740   -0.0936230   -6.5067952  
H    6.9265059   -2.0159437   -6.1041411  
H    1.5889228    1.9175682   -5.6567459  
H    5.0113651   -0.0697219   -7.5053484  
C    3.3321174    0.0004714   -1.3379332  
C    2.6974186    0.0000115   -2.5332308  
C    1.2800441   -0.0002119   -2.2052838  
C    1.2395035    0.0000643   -0.7271293  
N    2.4394063    0.0005458   -0.2131034  
C    0.0000000    0.0000000    0.0000000  
C   -1.1468701    0.0000634   -0.7169542  
O   -2.3742201    0.0000072   -0.1695492  
C   -1.1388767    0.0001606   -2.2096354  
O   -2.2206229    0.0000903   -2.7970413  
C    0.1454526    0.0001815   -2.9324239  
H   -2.9844344    0.0001023   -0.9290168  
H    0.1083580    0.0003680   -4.0135594  
H    4.3940040    0.0007617   -1.1498630  
C    0.0000000    0.0000000    1.4700000  
C    1.0662921    0.0000102    2.3034270  
C    0.4961870   -0.0000064    3.6418889  
C   -0.9663858    0.0000850    3.4240247  
N   -1.2632773    0.0000084    2.1528658  
C   -1.8985362    0.0000517    4.5177257  
C   -1.3925775   -0.0004564    5.7720543  
O   -2.1456383   -0.0005410    6.8851312  
C    0.0786232   -0.0009323    6.0245000  
O    0.4683759   -0.0012588    7.1921102  
C    1.0143166   -0.0008442    4.8859032  
H    2.1107198   -0.0000632    2.0421868  
H   -2.9622183    0.0003270    4.3293377  
H   -1.5042274   -0.0009692    7.6184419  
H    2.0724152   -0.0013148    5.1109744  
