60

C   -3.3041146    0.0089503   -1.5420439  
C   -2.5845262    0.0075711   -0.3695859  
C   -1.2039958    0.0033051   -0.7283595  
C   -1.1422343    0.0025310   -2.1454376  
N   -2.4348613    0.0040714   -2.6077473  
C    0.0655165   -0.0010598   -2.8497917  
C    1.2321722   -0.0036143   -2.1101395  
O    2.4392729   -0.0068094   -2.7472517  
C    1.1911166   -0.0032683   -0.6955262  
O    2.4371436   -0.0064567   -0.1032859  
C    0.0000000    0.0000000    0.0000000  
H   -3.0031416    0.0083081    0.6222574  
H   -2.7054323    0.0145347   -3.5745267  
H    0.1193513   -0.0018121   -3.9297470  
H    3.1132883   -0.0084797   -2.0551783  
H    2.3200204   -0.0059602    0.8516413  
C   -5.7131579    0.0154458   -0.7960725  
C   -4.7577049    0.0125445   -1.7610471  
C   -5.4429580    0.0133815   -3.0319770  
C   -6.8863020    0.0170637   -2.7261420  
N   -6.9827184    0.0177640   -1.3537016  
C   -7.8702859    0.0192349   -3.6607408  
C   -7.4818654    0.0176271   -5.0613348  
O   -8.2934521    0.0192952   -5.9776457  
C   -5.9589045    0.0134785   -5.4082907  
O   -5.6198050    0.0117878   -6.5839910  
C   -4.9917123    0.0117008   -4.3135825  
H   -8.9231768    0.0220580   -3.4151327  
H   -3.9391578    0.0090333   -4.5622712  
H   -5.5966382    0.0158683    0.2755208  
C   -8.2426771    0.0234236   -0.5964877  
C   -8.4333843    0.0261465    0.7480189  
C   -9.8599708    0.0315538    0.9708599  
C  -10.4892599    0.0317303   -0.3636014  
N   -9.4545405    0.0270751   -1.2703669  
C  -11.8286470    0.0357512   -0.5820717  
C  -12.7091971    0.0404285    0.5742775  
O  -13.9297634    0.0443209    0.4820494  
C  -12.0645093    0.0405811    1.9970156  
O  -12.7957769    0.0448047    2.9780811  
C  -10.6077645    0.0357237    2.1052864  
H   -7.6626575    0.0247317    1.4980803  
H  -12.2697771    0.0356729   -1.5691451  
H  -10.1692922    0.0356572    3.0939553  
H   -9.5630256    0.0244680   -2.2679999  
C    2.4951002    2.0940188    2.9809380  
C    1.9440701    1.6314916    1.8291961  
C    0.8759964    0.7350050    2.2038498  
C    0.8497377    0.7130254    3.6788474  
N    1.8560616    1.5571714    4.0882609  
C   -0.0205033   -0.0168748    4.4215661  
C   -0.9962600   -0.8356168    3.7214979  
O   -1.8224391   -1.5286685    4.3006425  
C   -0.9864710   -0.8277881    2.1595606  
O   -1.8030528   -1.5133726    1.5592035  
C    0.0000000    0.0000000    1.4700000  
H    2.2509283    1.8888011    0.8310761  
H   -0.0229599   -0.0187323    5.5027230  
H    3.3143982    2.7817323    3.1139444  
H    2.0889452    1.7545833    5.0442112  
