64

C   -4.5382365    2.1274889   -0.3187875  
C   -3.4269604    1.6643335   -0.9843852  
C   -3.8900485    0.7769750   -2.0006252  
C   -5.3047950    0.7381440   -1.9062261  
N   -5.6653104    1.5678664   -0.8736537  
C   -6.0984770   -0.0376825   -2.7564914  
C   -5.4522273   -0.7877422   -3.7197930  
O   -6.1789762   -1.5629116   -4.5765088  
C   -4.0415022   -0.7625026   -3.8294924  
O   -3.5480069   -1.5637590   -4.8383503  
C   -3.2578655    0.0024282   -2.9908505  
H   -2.4078388    1.9321496   -0.7637973  
H   -6.6070985    1.7501463   -0.5773607  
H   -7.1771659   -0.0717352   -2.6896158  
H   -5.5421674   -1.9966438   -5.1592758  
H   -2.5888323   -1.4892410   -4.8442647  
C   -4.6443825    3.0616790    0.8112218  
C   -3.6612474    3.7267575    1.5066239  
C   -4.3137637    4.5065602    2.5069883  
C   -5.7066455    4.2747066    2.3726360  
N   -5.8727835    3.3942095    1.3325688  
C   -6.6575531    4.8823367    3.1980752  
C   -6.1938879    5.7394034    4.1771709  
O   -7.0791777    6.3591564    5.0109476  
C   -4.8079793    5.9837887    4.3266678  
O   -4.5052577    6.8618082    5.3468554  
C   -3.8693369    5.3849030    3.5125340  
H   -2.6039280    3.6591317    1.3155845  
H   -6.7536813    3.0362035    1.0103382  
H   -7.7205646    4.7099074    3.1007222  
H   -6.5536275    6.9049512    5.6102544  
H   -3.5500646    6.9718547    5.3800118  
H   -2.8145155    5.5915803    3.6507906  
C    0.0000000    0.0000000    0.0000000  
C    1.0521666   -0.0011982   -0.8862343  
C    0.4917215   -0.0011996   -2.1979132  
C   -0.9187429    0.0003215   -2.0478682  
N   -1.1833171   -0.0009323   -0.7007913  
C   -1.7951703    0.0010483   -3.1372089  
C   -1.2375841    0.0005313   -4.4010422  
O   -2.0474218    0.0015510   -5.4997578  
C    0.1673576   -0.0013585   -4.5711963  
O    0.5673520   -0.0020735   -5.8915554  
C    1.0325768   -0.0023493   -3.4969892  
H    2.0953056   -0.0030808   -0.6200564  
H   -2.0989778    0.0102529   -0.2891822  
H   -1.4634888    0.0006601   -6.2693595  
H    1.5290707   -0.0033271   -5.9180047  
H    2.1042146   -0.0039770   -3.6584456  
C    0.0000000    0.0000000    1.4700000  
C    1.0541688    0.0001722    2.3260392  
C    0.5103138    0.0000454    3.6635956  
C   -0.9576371   -0.0002459    3.5155732  
N   -1.2018458    0.0001392    2.1615969  
C   -1.8348311   -0.0008317    4.5510609  
C   -1.2972847   -0.0009736    5.9014604  
O   -2.0050672   -0.0014265    6.9001319  
C    0.2542623   -0.0004184    6.0817573  
O    0.7184670   -0.0002256    7.2139121  
C    1.0974552   -0.0000873    4.8889129  
H    2.0940752    0.0005483    2.0517982  
H   -2.9081052   -0.0011668    4.4207061  
H    2.1707277    0.0000911    5.0223670  
H   -2.1128194   -0.0014912    1.7406791  
