58

C    2.4782020   -2.1081877   -5.8783644  
C    1.9212515   -1.6438944   -7.0265418  
C    0.8545983   -0.7486153   -6.6450159  
C    0.8356633   -0.7292246   -5.1698703  
N    1.8439054   -1.5742006   -4.7669400  
C   -0.0307352   -0.0004646   -4.4215603  
C   -1.0100802    0.8193482   -5.1153371  
O   -1.8333384    1.5114170   -4.5308821  
C   -1.0083722    0.8138721   -6.6773144  
O   -1.8284257    1.4999046   -7.2724040  
C   -0.0251097   -0.0124253   -7.3732162  
H    2.2230616   -1.8995541   -8.0266228  
H    3.2985202   -2.7956869   -5.7506359  
H    2.0835083   -1.7709324   -3.8125110  
C    0.5327409   -3.2137176  -10.3626914  
C    0.4120234   -2.5075574   -9.2090707  
C    0.1651502   -1.1341437   -9.5800473  
C    0.1518129   -1.0977945  -11.0549351  
N    0.3809809   -2.3900449  -11.4678033  
C   -0.0518341    0.0216041  -11.7946499  
C   -0.2723944    1.2742405  -11.0912376  
O   -0.4650401    2.3368184  -11.6675323  
C   -0.2621968    1.2591538   -9.5293551  
O   -0.4464469    2.3077320   -8.9262006  
C   -0.0323596   -0.0097875   -8.8431965  
H    0.4875032   -2.9035447   -8.2120203  
H   -0.0578609    0.0265447  -12.8757841  
H    0.7200155   -4.2665095  -10.4985126  
H    0.4284474   -2.6891330  -12.4245373  
C    3.2573670   -0.0002920   -1.5109380  
C    2.5379468   -0.0001709   -0.3591961  
C    1.1435043    0.0000332   -0.7338500  
C    1.1092609   -0.0000082   -2.2088477  
N    2.4227562    0.0001909   -2.6182613  
C   -0.0265532   -0.0002522   -2.9515663  
C   -1.3003035   -0.0002639   -2.2514981  
O   -2.3786784   -0.0004131   -2.8306429  
C   -1.2877725    0.0000312   -0.6895608  
O   -2.3539958    0.0003307   -0.0892036  
C    0.0000000    0.0000000    0.0000000  
H    2.9384091   -0.0000369    0.6389239  
H    4.3270394   -0.0004765   -1.6439446  
H    2.7280494   -0.0013406   -3.5742113  
C    2.4951002    2.0940188    2.9809380  
C    1.9440701    1.6314916    1.8291961  
C    0.8759964    0.7350050    2.2038498  
C    0.8497377    0.7130254    3.6788474  
N    1.8560616    1.5571714    4.0882609  
C   -0.0205033   -0.0168748    4.4215661  
C   -0.9962600   -0.8356168    3.7214979  
O   -1.8224391   -1.5286685    4.3006425  
C   -0.9864710   -0.8277881    2.1595606  
O   -1.8030528   -1.5133726    1.5592035  
C    0.0000000    0.0000000    1.4700000  
H    2.2509283    1.8888011    0.8310761  
H   -0.0229599   -0.0187323    5.5027230  
H    3.3143982    2.7817323    3.1139444  
H    2.0889452    1.7545833    5.0442112  
