60

C   -3.3003562   -0.0019863   -1.4738947  
C   -2.5232848   -0.0014650   -2.6090718  
C   -1.1623235   -0.0003819   -2.1820087  
C   -1.1711899   -0.0005760   -0.7636127  
N   -2.4852317    0.0003935   -0.3662329  
C    0.0000000    0.0000000    0.0000000  
C    1.2020371    0.0004793   -0.6806495  
O    2.3759233    0.0007007    0.0157714  
C    1.2314617    0.0010554   -2.0955526  
O    2.5054344    0.0019110   -2.6250211  
C    0.0764466    0.0007609   -2.8495197  
H   -2.8920006   -0.0007164   -3.6205269  
H   -2.8036222   -0.0100573    0.5858694  
H    3.0835619    0.0013281   -0.6418857  
H    2.4359992    0.0022293   -3.5845950  
H    0.1304040    0.0013996   -3.9319089  
C   -6.5908010   -0.0033253   -4.4182797  
C   -5.3731532   -0.0027736   -3.8171071  
C   -5.6071082   -0.0027888   -2.3922911  
C   -7.0713668   -0.0034283   -2.2113599  
N   -7.6095243   -0.0033309   -3.4775655  
C   -7.6973079   -0.0040281   -1.0072411  
C   -6.8738974   -0.0038186    0.1904780  
O   -7.3427959   -0.0042545    1.3211567  
C   -5.3209694   -0.0028912    0.0224952  
O   -4.6174375   -0.0024009    1.0236459  
C   -4.7630518   -0.0025808   -1.3275345  
H   -4.4198650   -0.0022162   -4.3149569  
H   -8.7727866   -0.0046216   -0.8965353  
H   -6.8296483   -0.0035115   -5.4693944  
C   -9.6550036   -0.7123440   -4.7711341  
C   -9.0474131   -0.0061189   -3.7831288  
C  -10.0806521    0.7345062   -3.0984924  
C  -11.3491025    0.3994480   -3.7734440  
N  -11.0222760   -0.4815785   -4.7783651  
C  -12.5618269    0.8969582   -3.4220359  
C  -12.6217437    1.8244884   -2.3046135  
O  -13.6662618    2.3272678   -1.9115547  
C  -11.2906714    2.1936261   -1.5753739  
O  -11.3286176    2.9737320   -0.6334317  
C  -10.0450890    1.5925653   -2.0455884  
H  -13.4803024    0.6381468   -3.9302969  
H   -9.1278893    1.8531812   -1.5351487  
H   -9.2189350   -1.3817999   -5.4947107  
H  -11.6765164   -0.8949858   -5.4172014  
C    0.8681109    0.7263879    2.2709268  
C    0.6127770    0.5096195    3.5869401  
C   -0.4920590   -0.4175482    3.6542670  
C   -0.8620974   -0.7254003    2.2596025  
N    0.0000000    0.0000000    1.4700000  
C   -1.8641242   -1.5660088    1.8976294  
C   -2.6293522   -2.2103885    2.9520183  
O   -3.5512764   -2.9839180    2.7283916  
C   -2.2549728   -1.8987399    4.4361073  
O   -2.8923672   -2.4351063    5.3323774  
C   -1.1543735   -0.9755647    4.7012123  
H    1.1382914    0.9492124    4.4159191  
H   -2.1192137   -1.7782617    0.8686553  
H   -0.9013378   -0.7652422    5.7314848  
H    1.6172880    1.3558399    1.8188057  
