58

C    1.0965513    0.0001360   -0.8010302  
C    0.0000000    0.0000000    0.0000000  
C   -1.1546567    0.0001472   -0.8669508  
C   -0.6372019    0.0003523   -2.2486279  
N    0.7342867    0.0007340   -2.1395008  
C   -1.4147743    0.0001357   -3.3608712  
C   -2.8576055   -0.0001041   -3.1854457  
O   -3.6427785   -0.0002487   -4.1244905  
C   -3.4275843   -0.0000721   -1.7311660  
O   -4.6406831    0.0000340   -1.5710055  
C   -2.4891869   -0.0001089   -0.6116742  
H   -1.0150452    0.0001620   -4.3654240  
H   -2.8919123   -0.0002917    0.3920869  
H    2.1388269    0.0000662   -0.5261641  
C    4.5298619   -2.1105787   -2.7870397  
C    4.8358777   -1.6476827   -4.0264577  
C    3.7723833   -0.7519985   -4.4157717  
C    2.8148499   -0.7308470   -3.2935095  
N    3.3319992   -1.5752941   -2.3383367  
C    1.6707639   -0.0012341   -3.2725969  
C    1.3617417    0.8177038   -4.4329339  
O    0.3555479    1.5104316   -4.5104131  
C    2.3615447    0.8103621   -5.6329947  
O    2.1118346    1.4956453   -6.6154877  
C    3.5619265   -0.0167196   -5.5388083  
H    4.2491892   -0.0160708   -6.3739090  
H    5.0785342   -2.7978859   -2.1637764  
H    2.9059922   -1.7708749   -1.4510297  
C    6.5888222   -3.2311820   -4.9094766  
C    6.0266938   -1.9987463   -4.8136113  
C    6.8205291   -1.1094289   -5.6283353  
C    7.8989328   -1.9306748   -6.2109100  
N    7.7021285   -3.2067467   -5.7357277  
C    8.8613976   -1.4580483   -7.0427697  
C    8.8334239   -0.0462520   -7.3871306  
O    9.6562279    0.4749691   -8.1284973  
C    7.7005051    0.8422520   -6.7814415  
O    7.6669035    2.0323452   -7.0639467  
C    6.7192843    0.2186036   -5.8970662  
H    9.6435208   -2.0774868   -7.4592897  
H    5.9379487    0.8406663   -5.4820033  
H    6.2835682   -4.1551806   -4.4458642  
H    8.2773308   -3.9987601   -5.9568723  
C    2.4951002    2.0940188    2.9809380  
C    1.9440701    1.6314916    1.8291961  
C    0.8759964    0.7350050    2.2038498  
C    0.8497377    0.7130254    3.6788474  
N    1.8560616    1.5571714    4.0882609  
C   -0.0205033   -0.0168748    4.4215661  
C   -0.9962600   -0.8356168    3.7214979  
O   -1.8224391   -1.5286685    4.3006425  
C   -0.9864710   -0.8277881    2.1595606  
O   -1.8030528   -1.5133726    1.5592035  
C    0.0000000    0.0000000    1.4700000  
H    2.2509283    1.8888011    0.8310761  
H   -0.0229599   -0.0187323    5.5027230  
H    3.3143982    2.7817323    3.1139444  
H    2.0889452    1.7545833    5.0442112  
