58

C   -5.5640054    0.7016334    1.1102205  
C   -6.4453444   -0.0017740    0.3535602  
C   -7.2850086   -0.7428357    1.2649479  
C   -6.8172704   -0.4111050    2.6243467  
N   -5.7721020    0.4686079    2.4611958  
C   -7.3556759   -0.9099604    3.7658229  
C   -8.4700732   -1.8355310    3.6476128  
O   -9.0231852   -2.3393029    4.6164173  
C   -8.9816360   -2.2011389    2.2177733  
O   -9.9190511   -2.9795722    2.1057244  
C   -8.3205757   -1.5988974    1.0627165  
H   -6.9976748   -0.6535941    4.7532541  
H   -8.6809316   -1.8570666    0.0761995  
H   -4.7798468    1.3704731    0.7945656  
H   -5.2433806    0.8797636    3.2084921  
C   -3.3460096   -0.0004265   -2.7913646  
C   -4.0050883   -0.0007136   -1.6040609  
C   -5.4169930   -0.0010574   -1.9063180  
C   -5.5272434   -0.0009755   -3.3775878  
N   -4.2366049   -0.0001893   -3.8541817  
C   -6.6998413   -0.0016249   -4.0607553  
C   -7.9358013   -0.0022343   -3.2959434  
O   -9.0426027   -0.0027802   -3.8187159  
C   -7.8427528   -0.0020796   -1.7367297  
O   -8.8766027   -0.0022816   -1.0821960  
C   -6.5211391   -0.0016368   -1.1144846  
H   -3.5536952   -0.0005051   -0.6279167  
H   -6.7586581   -0.0016816   -5.1403161  
H   -3.9810064   -0.0015040   -4.8246018  
C    0.0000000    0.0000000    0.0000000  
C    1.0662919   -0.0000103   -0.8334269  
C    0.4961869    0.0000064   -2.1718889  
C   -0.9663859   -0.0000850   -1.9540246  
N   -1.2632774   -0.0000084   -0.6828657  
C   -1.8985363   -0.0000518   -3.0477257  
C   -1.3925778    0.0004564   -4.3020545  
O   -2.1456384    0.0005409   -5.4151311  
C    0.0786230    0.0009323   -4.5544998  
O    0.4683758    0.0012588   -5.7221098  
C    1.0143164    0.0008442   -3.4159030  
H    2.1107195    0.0000633   -0.5721867  
H   -1.5042275    0.0009691   -6.1484418  
H    2.0724152    0.0013148   -3.6409744  
C    3.2573670    0.0002920    2.9809380  
C    2.5379467    0.0001709    1.8291961  
C    1.1435042   -0.0000331    2.2038498  
C    1.1092607    0.0000083    3.6788474  
N    2.4227561   -0.0001909    4.0882609  
C   -0.0265533    0.0002524    4.4215661  
C   -1.3003036    0.0002640    3.7214979  
O   -2.3786784    0.0004133    4.3006425  
C   -1.2877726   -0.0000311    2.1595606  
O   -2.3539958   -0.0003306    1.5592035  
C    0.0000000    0.0000000    1.4700000  
H    2.9384090    0.0000368    0.8310761  
H   -0.0296291    0.0004086    5.5027230  
H    4.3270393    0.0004765    3.1139444  
H    2.7280493    0.0013407    5.0442112  
