58

C   -0.9538468    0.5409270   -0.8010306  
C    0.0000000    0.0000000    0.0000000  
C    1.0042464   -0.5698419   -0.8669517  
C    0.5540638   -0.3147048   -2.2486285  
N   -0.6390446    0.3616635   -2.1395014  
C    1.2305028   -0.6981749   -3.3608718  
C    2.4855946   -1.4098677   -3.1854466  
O    3.1686088   -1.7971507   -4.1244909  
C    2.9813457   -1.6911263   -1.7311670  
O    4.0364461   -2.2897682   -1.5710060  
C    2.1651465   -1.2280841   -0.6116749  
H    0.8828056   -0.5009694   -4.3654247  
H    2.5155269   -1.4266321    0.3920864  
H   -1.8603832    1.0552520   -0.5261648  
C   -3.0107563    4.0225972   -3.0543723  
C   -2.2213000    3.1343974   -2.4067308  
C   -2.0948745    2.0091930   -3.3202028  
C   -2.8933297    2.3975555   -4.5026693  
N   -3.4325527    3.5768464   -4.3526669  
C   -3.0231926    1.5396555   -5.6481953  
C   -2.3841207    0.3481177   -5.6141516  
O   -2.4184263   -0.5507714   -6.6125818  
C   -1.5704073   -0.0722371   -4.4354516  
O   -1.0162563   -1.1707410   -4.4732213  
C   -1.4526204    0.8254384   -3.2725976  
H   -1.7792643    3.2309067   -1.4298141  
H   -3.6132583    1.8488659   -6.4985606  
H   -1.8718692   -1.2929260   -6.2969313  
C   -2.2081186    6.1010751    0.6903841  
C   -2.8926376    7.2570663    0.5269938  
C   -3.5004264    7.1500690   -0.7904448  
C   -3.0664662    5.8295709   -1.2949723  
N   -2.3087753    5.2100061   -0.4312398  
C   -3.4627064    5.3410151   -2.5870219  
C   -4.2567082    6.1353545   -3.3406268  
O   -4.7021333    5.8063826   -4.5651329  
C   -4.7117128    7.4730180   -2.8591850  
O   -5.4332099    8.1426306   -3.5982936  
C   -4.2916866    7.9517843   -1.5301679  
H   -2.9750319    8.0806307    1.2154909  
H   -5.2408623    6.5680203   -4.8459025  
H   -4.6427821    8.9262526   -1.2181197  
H   -1.6195064    5.7921477    1.5395444  
C    0.8400945    0.7047457    2.2710304  
C    0.0000000    0.0000000    1.4700000  
C   -0.8844236   -0.7423113    2.3369512  
C   -0.4878984   -0.4098547    3.7186280  
N    0.5629682    0.4714286    3.6095011  
C   -1.0836927   -0.9095027    4.8308716  
C   -2.1891196   -1.8367527    4.6554461  
O   -2.7906899   -2.3413415    5.5944904  
C   -2.6257283   -2.2031529    3.2011665  
O   -3.5549479   -2.9829990    3.0410059  
C   -1.9068976   -1.5999348    2.0816745  
H   -0.7774656   -0.6525820    5.8354244  
H   -2.2155208   -1.8586617    1.0779135  
H    1.6384792    1.3747609    1.9961646  
H    1.0518368    0.8833920    4.3830260  
