64

C    2.3136486   -2.1180443   -5.9171369  
C    1.6624056   -1.6181592   -7.0209780  
C    0.6419642   -0.7441444   -6.5420234  
C    0.7194927   -0.7504911   -5.1257342  
N    1.7437760   -1.5963708   -4.7793978  
C   -0.1387079    0.0017019   -4.3179684  
C   -1.0923525    0.7746131   -4.9514888  
O   -1.9557351    1.5288505   -4.2107386  
C   -1.1856783    0.7938844   -6.3634860  
O   -2.1870608    1.6126761   -6.8432319  
C   -0.3395499    0.0518701   -7.1609864  
H    1.8935978   -1.8552464   -8.0453476  
H    2.0414320   -1.7936218   -3.8410623  
H   -2.5301602    1.9837419   -4.8403212  
H   -2.1819309    1.5683236   -7.8042785  
H    3.1386341   -2.8065411   -5.8513307  
C   -0.0393302   -3.1030008  -10.3147641  
C   -0.0597250   -2.4326061   -9.1136723  
C   -0.3272733   -1.0623919   -9.4061298  
C   -0.4622269   -0.9559863  -10.8141043  
N   -0.2797035   -2.2128792  -11.3351822  
C   -0.7308655    0.2552565  -11.4587072  
C   -0.8660273    1.3795114  -10.6675307  
O   -1.1290109    2.5878852  -11.2451856  
C   -0.7344721    1.2936284   -9.2610682  
O   -0.8958161    2.5008033   -8.6129634  
C   -0.4691887    0.0990878   -8.6244976  
H    0.0998253   -2.8763593   -8.1458819  
H   -0.3281703   -2.4498231  -12.3096009  
H   -0.8347311    0.3430327  -12.5314184  
H   -1.1835591    3.2289346  -10.5245301  
H   -0.7917192    2.3548356   -7.6677327  
H    0.1290798   -4.1454238  -10.5244115  
C    3.3041273    0.0001178   -1.5420428  
C    2.5845373   -0.0004780   -0.3695851  
C    1.2040007   -0.0000007   -0.7283589  
C    1.1422374    0.0006038   -2.1454372  
N    2.4348641    0.0026111   -2.6077464  
C   -0.0655179    0.0008799   -2.8497918  
C   -1.2321766    0.0002325   -2.1101402  
O   -2.4392814    0.0001148   -2.7472522  
C   -1.1911209   -0.0000007   -0.6955266  
O   -2.4371528   -0.0002320   -0.1032862  
C    0.0000000    0.0000000    0.0000000  
H    3.0031533   -0.0000660    0.6222584  
H    2.7054631   -0.0071097   -3.5745261  
H   -3.1132988   -0.0000648   -2.0551787  
H   -2.3200282   -0.0004072    0.8516409  
H    4.3686625    0.0004073   -1.7024290  
C    0.0000000    0.0000000    1.4700000  
C    1.0541688    0.0001722    2.3260392  
C    0.5103138    0.0000454    3.6635956  
C   -0.9576371   -0.0002459    3.5155732  
N   -1.2018458    0.0001392    2.1615969  
C   -1.8348311   -0.0008317    4.5510609  
C   -1.2972847   -0.0009736    5.9014604  
O   -2.0050672   -0.0014265    6.9001319  
C    0.2542623   -0.0004184    6.0817573  
O    0.7184670   -0.0002256    7.2139121  
C    1.0974552   -0.0000873    4.8889129  
H    2.0940752    0.0005483    2.0517982  
H   -2.9081052   -0.0011668    4.4207061  
H    2.1707277    0.0000911    5.0223670  
H   -2.1128194   -0.0014912    1.7406791  
