58

C   -3.9876870    0.7052799   -1.9724713  
C   -3.2941075    0.0012873   -2.9038235  
C   -4.2617029   -0.7397012   -3.6781169  
C   -5.5853418   -0.4072893   -3.1175164  
N   -5.3499115    0.4727077   -2.0864644  
C   -6.7615312   -0.9058824   -3.5754335  
C   -6.7210839   -1.8318689   -4.6950083  
O   -7.7260361   -2.3354498   -5.1795478  
C   -5.3302199   -2.1981995   -5.3041929  
O   -5.2836144   -2.9769874   -6.2468366  
C   -4.1319546   -1.5961851   -4.7248920  
H   -7.7217181   -0.6490153   -3.1500279  
H   -3.1728430   -1.8548551   -5.1525826  
H   -3.6182638    1.3742582   -1.2122844  
H   -6.0586655    0.8843280   -1.5074273  
C    0.0000000    0.0000000    0.0000000  
C    1.0541688   -0.0001722   -0.8560392  
C    0.5103135   -0.0000454   -2.1935954  
C   -0.9576375    0.0002459   -2.0455728  
N   -1.2018462   -0.0001392   -0.6915966  
C   -1.8348315    0.0008316   -3.0810604  
C   -1.2972851    0.0009737   -4.4314603  
O   -2.0050681    0.0014265   -5.4301316  
C    0.2542617    0.0004185   -4.6117570  
O    0.7184664    0.0002257   -5.7439119  
C    1.0974549    0.0000874   -3.4189129  
H    2.0940751   -0.0005482   -0.5817983  
H   -2.1128195    0.0014911   -0.2706785  
C    4.1985324   -2.1423511   -1.2324151  
C    5.3247408   -1.7348299   -1.8626221  
C    4.8654764   -0.8236667   -2.8996164  
C    3.3948127   -0.7971465   -2.7478603  
N    2.9980292   -1.5681528   -1.7721035  
C    2.5562209   -0.0001551   -3.6003007  
C    3.1594320    0.7371387   -4.5604406  
O    2.5003391    1.5262929   -5.4258150  
C    4.6414680    0.7318277   -4.7384896  
O    5.1222585    1.4271702   -5.6332299  
C    5.4799807   -0.0940162   -3.8514702  
H    6.3415662   -2.0175441   -1.6499854  
H    3.1964039    1.9185689   -5.9832791  
H    6.5493672   -0.0702021   -4.0129507  
H    4.1121692   -2.8248220   -0.4019044  
C    1.0672568    0.0000697    2.3021913  
C    0.0000000    0.0000000    1.4700000  
C   -1.1601224    0.0000736    2.3478473  
C   -0.5938729    0.0000769    3.7138435  
N    0.7113367    0.0001554    3.6934124  
C   -1.4286986    0.0001879    4.8835240  
C   -2.7683114    0.0006799    4.6970523  
O   -3.6653903    0.0008304    5.6976972  
C   -3.3702025    0.0010610    3.3310774  
O   -4.5974910    0.0013779    3.2362962  
C   -2.4926826    0.0008943    2.1470656  
H   -0.9878360   -0.0000190    5.8697035  
H   -4.5324246    0.0012261    5.2533954  
H   -2.9677772    0.0012974    1.1752040  
H    2.1134392    0.0000545    2.0405121  
