58

C   -0.0323591   -0.0097878   -8.8431965  
C    0.7716672   -0.6849939   -9.7044234  
C    0.3481129   -0.3334273  -11.0392789  
C   -0.7766255    0.6087233  -10.8840168  
N   -0.9574597    0.7627419   -9.5288543  
C   -1.4540069    1.1740507  -11.9151641  
C   -1.0483738    0.8315627  -13.2681980  
O   -1.5957506    1.2879868  -14.2633634  
C    0.1401391   -0.1643877  -13.4561447  
O    0.4903939   -0.4604503  -14.5905735  
C    0.7923873   -0.7079790  -12.2674758  
H    1.5701999   -1.3532299   -9.4353172  
H   -2.2761581    1.8629466  -11.7795165  
H    1.6146222   -1.3967478  -12.4062231  
H   -1.6528909    1.3479382   -9.1034510  
C    2.4782024   -2.1081880   -5.8783640  
C    1.9212515   -1.6438944   -7.0265418  
C    0.8545986   -0.7486155   -6.6450159  
C    0.8356633   -0.7292246   -5.1698698  
N    1.8439056   -1.5742007   -4.7669390  
C   -0.0307352   -0.0004646   -4.4215603  
C   -1.0100799    0.8193479   -5.1153371  
O   -1.8333384    1.5114170   -4.5308826  
C   -1.0083719    0.8138718   -6.6773144  
O   -1.8284253    1.4999043   -7.2724040  
C   -0.0251095   -0.0124255   -7.3732162  
H    2.2230620   -1.8995544   -8.0266228  
H    3.2985202   -2.7956869   -5.7506349  
H    2.0835085   -1.7709326   -3.8125105  
C    3.2573670   -0.0002920   -1.5109380  
C    2.5379468   -0.0001709   -0.3591961  
C    1.1435043    0.0000332   -0.7338500  
C    1.1092609   -0.0000082   -2.2088477  
N    2.4227562    0.0001909   -2.6182613  
C   -0.0265532   -0.0002522   -2.9515663  
C   -1.3003035   -0.0002639   -2.2514981  
O   -2.3786784   -0.0004131   -2.8306429  
C   -1.2877725    0.0000312   -0.6895608  
O   -2.3539958    0.0003307   -0.0892036  
C    0.0000000    0.0000000    0.0000000  
H    2.9384091   -0.0000369    0.6389239  
H    4.3270394   -0.0004765   -1.6439446  
H    2.7280494   -0.0013406   -3.5742113  
C    0.8175213    0.6860729    2.3021913  
C    0.0000000    0.0000000    1.4700000  
C   -0.8887526   -0.7456559    2.3478473  
C   -0.4549825   -0.3816753    3.7138435  
N    0.5448156    0.4573574    3.6934124  
C   -1.0945674   -0.9182058    4.8835240  
C   -2.1210866   -1.7789155    4.6970523  
O   -2.8083856   -2.3554314    5.6976972  
C   -2.5824069   -2.1655116    3.3310774  
O   -3.5227682   -2.9541547    3.2362962  
C   -1.9100805   -1.6015804    2.1470656  
H   -0.7567140   -0.6349833    5.8697035  
H   -3.4728268   -2.9124471    5.2533954  
H   -2.2742832   -1.9066565    1.1752040  
H    1.6189533    1.3585343    2.0405121  
