62

C    0.0000000    0.0000000    0.0000000  
C    1.0521663   -0.0011902   -0.8862345  
C    0.4917215   -0.0011956   -2.1979133  
C   -0.9187430    0.0003149   -2.0478683  
N   -1.1833172   -0.0009411   -0.7007910  
C   -1.7951704    0.0010351   -3.1372088  
C   -1.2375840    0.0005226   -4.4010423  
O   -2.0474221    0.0015361   -5.4997580  
C    0.1673576   -0.0013565   -4.5711965  
O    0.5673516   -0.0020685   -5.8915550  
C    1.0325767   -0.0023411   -3.4969892  
H    2.0953056   -0.0030649   -0.6200563  
H   -2.0989778    0.0102372   -0.2891821  
H   -1.4634890    0.0006499   -6.2693592  
H    1.5290706   -0.0033151   -5.9180044  
C   -4.4707106    2.1246523   -0.3281852  
C   -5.6599901    1.6263872   -0.8075739  
C   -5.3396940    0.7516100   -1.8877478  
C   -3.9276529    0.7558436   -2.0220871  
N   -3.4313381    1.6012525   -1.0610603  
C   -3.2578654    0.0024039   -2.9908502  
C   -4.0275271   -0.7696041   -3.8392616  
O   -3.4247832   -1.5249880   -4.8031639  
C   -5.4376975   -0.7867694   -3.7211790  
O   -6.0624813   -1.6048901   -4.6396928  
C   -6.0991477   -0.0435244   -2.7658798  
H   -6.6381349    1.8650159   -0.4264133  
H   -2.4588395    1.7971149   -0.9065735  
H   -4.1335869   -1.9789647   -5.2772599  
H   -7.0119725   -1.5591008   -4.4914531  
H   -7.1803458   -0.0767266   -2.6996340  
H   -4.2817180    2.8130885    0.4776041  
C    2.4861696   -0.0045381   -3.7159924  
C    3.4897067   -0.0059405   -2.8011226  
C    4.7313099   -0.0078381   -3.5381797  
C    4.3662414   -0.0073941   -4.9676956  
N    2.9909940   -0.0057670   -5.0074607  
C    5.2594866   -0.0083968   -5.9893690  
C    6.6748990   -0.0102480   -5.6590064  
O    7.5569779   -0.0113207   -6.5076742  
C    7.0843353   -0.0110003   -4.1516358  
O    8.2730115   -0.0128635   -3.8612819  
C    6.0304246   -0.0095093   -3.1401409  
H    3.3734529   -0.0058581   -1.7319645  
H    4.9706890   -0.0079170   -7.0312449  
H    6.3222875   -0.0098370   -2.0987282  
H    2.4390579   -0.0035501   -5.8455590  
C    3.2573670    0.0002920    2.9809380  
C    2.5379467    0.0001709    1.8291961  
C    1.1435042   -0.0000331    2.2038498  
C    1.1092607    0.0000083    3.6788474  
N    2.4227561   -0.0001909    4.0882609  
C   -0.0265533    0.0002524    4.4215661  
C   -1.3003036    0.0002640    3.7214979  
O   -2.3786784    0.0004133    4.3006425  
C   -1.2877726   -0.0000311    2.1595606  
O   -2.3539958   -0.0003306    1.5592035  
C    0.0000000    0.0000000    1.4700000  
H    2.9384090    0.0000368    0.8310761  
H   -0.0296291    0.0004086    5.5027230  
H    4.3270393    0.0004765    3.1139444  
H    2.7280493    0.0013407    5.0442112  
