62

C   -3.3003336   -0.0116859   -1.4738995  
C   -2.5232652   -0.0088807   -2.6090753  
C   -1.1623132   -0.0037977   -2.1820103  
C   -1.1711820   -0.0040180   -0.7636147  
N   -2.4852208   -0.0069105   -0.3662363  
C    0.0000000    0.0000000    0.0000000  
C    1.2020317    0.0040121   -0.6806479  
O    2.3759123    0.0076835    0.0157751  
C    1.2314569    0.0046749   -2.0955507  
O    2.5054224    0.0092746   -2.6250177  
C    0.0764494    0.0009858   -2.8495196  
H   -2.8919801   -0.0092157   -3.6205311  
H   -2.8035809   -0.0182971    0.5858655  
H    3.0835471    0.0103907   -0.6418812  
H    2.4359883    0.0093889   -3.5845917  
H    0.1304050    0.0017832   -3.9319086  
C   -6.6263522   -0.0256428   -4.4617188  
C   -5.3880822   -0.0214541   -3.8624378  
C   -5.6076268   -0.0204797   -2.4530411  
C   -7.0115092   -0.0245167   -2.2504960  
N   -7.6002195   -0.0256321   -3.4906722  
C   -7.5921172   -0.0251055   -0.9786146  
C   -6.7399904   -0.0218614    0.1086050  
O   -7.2537533   -0.0226210    1.3731449  
C   -5.3365001   -0.0174359   -0.0730905  
O   -4.6231504   -0.0141690    1.1077841  
C   -4.7630214   -0.0165792   -1.3275413  
H   -4.4428513   -0.0182533   -4.3777255  
H   -8.5890976   -0.0389025   -3.6636619  
H   -8.6613421   -0.0280300   -0.8175220  
H   -6.4980170   -0.0196709    1.9749078  
H   -3.6846338   -0.0113089    0.8961664  
C   -4.0899128   -0.0237521   -8.0048767  
C   -4.9998621   -0.0269713   -9.0066564  
C   -6.2925275   -0.0290449   -8.3391888  
C   -5.9671692   -0.0267087   -6.8967187  
N   -4.6775480   -0.0235218   -6.6945867  
C   -6.9889867   -0.0277576   -5.8862858  
C   -8.2772756   -0.0306044   -6.2981574  
O   -9.3316515   -0.0318838   -5.4648932  
C   -8.6377594   -0.0326415   -7.7466771  
O   -9.8309783   -0.0353289   -8.0490690  
C   -7.5714304   -0.0315564   -8.7639611  
H   -4.8165244   -0.0277422  -10.0675335  
H  -10.1103589   -0.0338807   -6.0503531  
H   -7.8740846   -0.0329859   -9.8025308  
H   -3.0144523   -0.0214515   -8.0845795  
C    2.5128556    2.1077716    2.9199648  
C    1.9592212    1.6432552    4.0696553  
C    0.8915788    0.7479214    3.6910360  
C    0.8684491    0.7287414    2.2159470  
N    1.8754542    1.5738793    1.8102719  
C    0.0000000    0.0000000    1.4700000  
C   -0.9772830   -0.8200135    2.1664417  
O   -1.8021297   -1.5120829    1.5842315  
C   -0.9711318   -0.8147624    3.7284083  
O   -1.7894187   -1.5009653    4.3257297  
C    0.0140216    0.0115358    4.4216297  
H    2.2638494    1.8988021    5.0689105  
H    0.0117648    0.0094386    5.5031631  
H    3.3327358    2.7953732    2.7900019  
H    2.1123206    1.7707734    0.8551938  
