60

C    0.0000000    0.0000000    0.0000000  
C    1.0521670   -0.0011903   -0.8862341  
C    0.4917223   -0.0011957   -2.1979133  
C   -0.9187419    0.0003148   -2.0478687  
N   -1.1833165   -0.0009412   -0.7007917  
C   -1.7951689    0.0010351   -3.1372100  
C   -1.2375821    0.0005225   -4.4010430  
O   -2.0474197    0.0015361   -5.4997589  
C    0.1673595   -0.0013567   -4.5711966  
O    0.5673540   -0.0020687   -5.8915551  
C    1.0325779   -0.0023413   -3.4969890  
H    2.0953065   -0.0030650   -0.6200556  
H   -2.0989773    0.0102372   -0.2891831  
H   -1.4634867    0.0006498   -6.2693597  
H    1.5290733   -0.0033154   -5.9180042  
H    2.1042160   -0.0039610   -3.6584451  
C   -3.2578643    0.0024039   -2.9908521  
C   -4.0046933    0.0033126   -1.8566910  
C   -5.3897511    0.0044627   -2.2646723  
C   -5.3886182    0.0041181   -3.7400671  
N   -4.0656842    0.0032564   -4.1178685  
C   -6.5062972    0.0045472   -4.5098061  
C   -7.7964663    0.0056318   -3.8404804  
O   -8.8606446    0.0061497   -4.4453152  
C   -7.8213898    0.0062655   -2.2786917  
O   -8.9017009    0.0074859   -1.7040725  
C   -6.5505216    0.0054372   -1.5584518  
H   -3.6282780    0.0033734   -0.8492560  
H   -6.4834491    0.0041525   -5.5907257  
H   -3.7375590    0.0012866   -5.0662233  
C   -4.1260578    2.0982770    1.4810265  
C   -4.6496574    1.6359004    0.3164982  
C   -5.7270735    0.7402861    0.6656180  
C   -5.7887079    0.7186543    2.1395663  
N   -4.7918629    1.5621482    2.5728187  
C   -6.6770498   -0.0104378    2.8613547  
C   -7.6363484   -0.8286151    2.1382594  
O   -8.4766909   -1.5209277    2.6975696  
C   -7.5891051   -0.8211414    0.5770043  
O   -8.3915660   -1.5062565   -0.0426195  
C   -6.5857685    0.0057646   -0.0888745  
H   -4.3187640    1.8927610   -0.6740298  
H   -6.7054301   -0.0120528    3.9421425  
H   -3.3096737    2.7854152    1.6334985  
H   -4.5818210    1.7596011    3.5340376  
C    3.2573670    0.0002920    2.9809380  
C    2.5379467    0.0001709    1.8291961  
C    1.1435042   -0.0000331    2.2038498  
C    1.1092607    0.0000083    3.6788474  
N    2.4227561   -0.0001909    4.0882609  
C   -0.0265533    0.0002524    4.4215661  
C   -1.3003036    0.0002640    3.7214979  
O   -2.3786784    0.0004133    4.3006425  
C   -1.2877726   -0.0000311    2.1595606  
O   -2.3539958   -0.0003306    1.5592035  
C    0.0000000    0.0000000    1.4700000  
H    2.9384090    0.0000368    0.8310761  
H   -0.0296291    0.0004086    5.5027230  
H    4.3270393    0.0004765    3.1139444  
H    2.7280493    0.0013407    5.0442112  
