58

C    2.9287797    0.0029130   -7.1524616  
C    3.5452905    0.0039892   -5.9425074  
C    4.9670360    0.0047589   -6.1944476  
C    5.1294505    0.0040669   -7.6608763  
N    3.8565463    0.0025566   -8.1829899  
C    6.3255632    0.0048780   -8.3019834  
C    7.5335911    0.0063175   -7.4937729  
O    8.6582536    0.0070702   -7.9769229  
C    7.3852440    0.0068189   -5.9388462  
O    8.3952053    0.0077220   -5.2480209  
C    6.0423730    0.0061283   -5.3639144  
H    3.0595262    0.0040355   -4.9830039  
H    6.4226705    0.0044782   -9.3787749  
H    5.9482968    0.0066871   -4.2864760  
H    3.6355614    0.0033388   -9.1618731  
C   -0.8287671    0.0000935   -4.7555305  
C    0.4848185    0.0005138   -5.0812187  
C    0.5106016    0.0006421   -6.5358097  
C   -0.9135382    0.0001376   -6.9338163  
N   -1.7033612   -0.0001047   -5.8945040  
C   -1.3181683    0.0001438   -8.3127148  
C   -0.3443510    0.0010208   -9.2513378  
O   -0.5775769    0.0011273  -10.5748347  
C    1.1017794    0.0019184   -8.8813813  
O    1.9341176    0.0025677   -9.7882625  
C    1.4913205    0.0018497   -7.4600497  
H    1.3316906    0.0008024   -4.4164760  
H   -2.3661196   -0.0004377   -8.5748361  
H    0.3072628    0.0018589  -10.9825260  
C    1.0672566   -0.0000698   -0.8321912  
C    0.0000000    0.0000000    0.0000000  
C   -1.1601226   -0.0000736   -0.8778472  
C   -0.5938732   -0.0000770   -2.2438435  
N    0.7113365   -0.0001555   -2.2234123  
C   -1.4286989   -0.0001880   -3.4135239  
C   -2.7683117   -0.0006800   -3.2270522  
O   -3.6653907   -0.0008306   -4.2276967  
C   -3.3702026   -0.0010611   -1.8610771  
O   -4.5974909   -0.0013781   -1.7662957  
C   -2.4926826   -0.0008944   -0.6770655  
H   -4.5324249   -0.0012263   -3.7833950  
H   -2.9677773   -0.0012975    0.2947963  
H    2.1134390   -0.0000546   -0.5705121  
C    2.3971438    2.0127888    3.1728260  
C    1.9431056    1.6308205    1.9564670  
C    0.8496017    0.7127664    2.2356185  
C    0.7794028    0.6545384    3.7115134  
N    1.6840587    1.4146091    4.2663826  
C   -0.1885723   -0.1578550    4.3957118  
C   -1.0476298   -0.8789867    3.6398520  
O   -2.0015663   -1.6796266    4.1448486  
C   -1.0022026   -0.8410666    2.1483229  
O   -1.8147390   -1.5232959    1.5241687  
C    0.0000000    0.0000000    1.4700000  
H    2.3054237    1.9346118    0.9892483  
H   -0.2170646   -0.1815267    5.4753125  
H   -2.4487139   -2.0549881    3.3649027  
H    3.2048689    2.6911772    3.3971983  
