58

C   -1.0965411   -0.0047682   -0.8010304  
C    0.0000000    0.0000000    0.0000000  
C    1.1546467    0.0047310   -0.8669507  
C    0.6371974    0.0023400   -2.2486280  
N   -0.7342774   -0.0038359   -2.1395010  
C    1.4147618    0.0058416   -3.3608711  
C    2.8575794    0.0121770   -3.1854457  
O    3.6427446    0.0156386   -4.1244900  
C    3.4275535    0.0145528   -1.7311659  
O    4.6406411    0.0195718   -1.5710053  
C    2.4891633    0.0106250   -0.6116745  
H    1.0150363    0.0041267   -4.3654243  
H    2.8918856    0.0125091    0.3920872  
H   -2.1388077   -0.0091019   -0.5261643  
C   -1.6707544   -0.0058239   -3.2725972  
C   -3.0236022   -0.0105688   -3.2357226  
C   -3.4368403   -0.0104559   -4.6306178  
C   -2.1706870   -0.0050937   -5.3944315  
N   -1.1320373   -0.0024410   -4.6037422  
C   -2.1489311   -0.0034348   -6.8313065  
C   -3.3380071   -0.0073608   -7.4758348  
O   -3.4666386   -0.0063886   -8.8135546  
C   -4.6328403   -0.0131836   -6.7331811  
O   -5.6771004   -0.0164153   -7.3848963  
C   -4.6287263   -0.0147391   -5.2594430  
H   -3.6622287   -0.0138423   -2.3689921  
H   -1.2090241    0.0007142   -7.3637227  
H   -4.4282033   -0.0099908   -8.9701840  
C   -5.9452385    2.1178643   -1.6948538  
C   -7.2283299    1.7049338   -1.5734271  
C   -7.4364339    0.7943069   -2.6887528  
C   -6.1402581    0.7739846   -3.4001599  
N   -5.2622080    1.5478693   -2.8221296  
C   -5.9318556   -0.0206841   -4.5792090  
C   -6.9709733   -0.7616786   -5.0269774  
O   -6.9176140   -1.5492593   -6.1145936  
C   -8.2913669   -0.7626458   -4.3307589  
O   -9.1927662   -1.4611048   -4.7942835  
C   -8.4801611    0.0609205   -3.1232737  
H   -7.9450319    1.9837724   -0.8199931  
H   -7.8055672   -1.9450953   -6.1778857  
H   -9.4515663    0.0325336   -2.6480930  
H   -5.4047661    2.8017592   -1.0599125  
C    0.8681109    0.7263879    2.2709268  
C    0.6127770    0.5096195    3.5869401  
C   -0.4920590   -0.4175482    3.6542670  
C   -0.8620974   -0.7254003    2.2596025  
N    0.0000000    0.0000000    1.4700000  
C   -1.8641242   -1.5660088    1.8976294  
C   -2.6293522   -2.2103885    2.9520183  
O   -3.5512764   -2.9839180    2.7283916  
C   -2.2549728   -1.8987399    4.4361073  
O   -2.8923672   -2.4351063    5.3323774  
C   -1.1543735   -0.9755647    4.7012123  
H    1.1382914    0.9492124    4.4159191  
H   -2.1192137   -1.7782617    0.8686553  
H   -0.9013378   -0.7652422    5.7314848  
H    1.6172880    1.3558399    1.8188057  
