58

C   -1.0965489    0.0022444   -0.8010316  
C    0.0000000    0.0000000    0.0000000  
C    1.1546538   -0.0026532   -0.8669508  
C    0.6372003   -0.0017350   -2.2486280  
N   -0.7342859    0.0008601   -2.1395018  
C    1.4147721   -0.0032061   -3.3608712  
C    2.8576001   -0.0060978   -3.1854449  
O    3.6427720   -0.0076576   -4.1244888  
C    3.4275768   -0.0073672   -1.7311654  
O    4.6406725   -0.0101061   -1.5710036  
C    2.4891815   -0.0052939   -0.6116730  
H    2.8919055   -0.0059852    0.3920872  
H   -2.1388220    0.0045762   -0.5261662  
H   -1.3735808    0.0035913   -2.9130273  
C    0.8712826   -0.0020623   -4.7267106  
C   -0.4275879    0.0005450   -5.1068522  
C   -0.3927372    0.0005281   -6.5612544  
C    1.0467481   -0.0022225   -6.8995719  
N    1.7925756   -0.0038308   -5.8282514  
C    1.5084831   -0.0031080   -8.2604121  
C    0.5746238   -0.0017155   -9.2387988  
O    0.8627955   -0.0023100  -10.5514290  
C   -0.8856642    0.0006934   -8.9294227  
O   -1.6794896    0.0019877   -9.8701987  
C   -1.3340921    0.0016052   -7.5255575  
H   -1.3014231    0.0021767   -4.4779752  
H   -0.0042864   -0.0009955  -10.9956357  
H   -2.4004290    0.0032431   -7.3434791  
C    3.9271988   -0.6932272   -7.9247450  
C    2.9481723   -0.0055778   -8.5573784  
C    3.6296347    0.7387970   -9.6052406  
C    5.0544790    0.3724267   -9.4563242  
N    5.2350285   -0.4667896   -8.4729079  
C    6.0717400    0.9071315  -10.3190849  
C    5.6831933    1.7683783  -11.2868756  
O    6.5253326    2.3433629  -12.1622245  
C    4.2528421    2.1573701  -11.4627817  
O    3.9713785    2.9463775  -12.3647051  
C    3.2281134    1.5952815  -10.5650560  
H    7.1053585    0.6221784  -10.1873879  
H    5.9569046    2.9012701  -12.7232786  
H    2.2032311    1.9020699  -10.7254539  
H    3.8316821   -1.3654237   -7.0868892  
C    0.8400945    0.7047457    2.2710304  
C    0.0000000    0.0000000    1.4700000  
C   -0.8844236   -0.7423113    2.3369512  
C   -0.4878984   -0.4098547    3.7186280  
N    0.5629682    0.4714286    3.6095011  
C   -1.0836927   -0.9095027    4.8308716  
C   -2.1891196   -1.8367527    4.6554461  
O   -2.7906899   -2.3413415    5.5944904  
C   -2.6257283   -2.2031529    3.2011665  
O   -3.5549479   -2.9829990    3.0410059  
C   -1.9068976   -1.5999348    2.0816745  
H   -0.7774656   -0.6525820    5.8354244  
H   -2.2155208   -1.8586617    1.0779135  
H    1.6384792    1.3747609    1.9961646  
H    1.0518368    0.8833920    4.3830260  
