58

C    2.3337833   -1.9933445   -8.3935105  
C    3.3261293   -2.8255616   -8.8018471  
C    3.3134965   -2.8191374  -10.2456751  
C    2.2246583   -1.9084070  -10.6479097  
N    1.6701794   -1.4412147   -9.4786475  
C    1.8896885   -1.6310568  -11.9334353  
C    2.6523245   -2.2724986  -12.9914886  
O    2.4278245   -2.0875160  -14.1804710  
C    3.8097018   -3.2409505  -12.5885194  
O    4.4585414   -3.7870344  -13.4705962  
C    4.0764132   -3.4604238  -11.1691710  
H    3.9909719   -3.3807388   -8.1643715  
H    1.0874660   -0.9598333  -12.2069459  
H    4.8796049   -4.1322630  -10.8985440  
H    0.9030593   -0.7967025   -9.4222720  
C    2.4782024   -2.1081877   -5.8783644  
C    1.9212515   -1.6438940   -7.0265418  
C    0.8545982   -0.7486150   -6.6450159  
C    0.8356633   -0.7292245   -5.1698703  
N    1.8439055   -1.5742005   -4.7669395  
C   -0.0307352   -0.0004646   -4.4215603  
C   -1.0100802    0.8193482   -5.1153371  
O   -1.8333384    1.5114170   -4.5308821  
C   -1.0083721    0.8138723   -6.6773144  
O   -1.8284256    1.4999048   -7.2724045  
C   -0.0251096   -0.0124249   -7.3732162  
H   -0.0304435   -0.0104841   -8.4547392  
H    3.2985196   -2.7956862   -5.7506359  
H    2.0835083   -1.7709324   -3.8125107  
C    3.2573670   -0.0002920   -1.5109380  
C    2.5379468   -0.0001709   -0.3591961  
C    1.1435043    0.0000332   -0.7338500  
C    1.1092609   -0.0000082   -2.2088477  
N    2.4227562    0.0001909   -2.6182613  
C   -0.0265532   -0.0002522   -2.9515663  
C   -1.3003035   -0.0002639   -2.2514981  
O   -2.3786784   -0.0004131   -2.8306429  
C   -1.2877725    0.0000312   -0.6895608  
O   -2.3539958    0.0003307   -0.0892036  
C    0.0000000    0.0000000    0.0000000  
H    2.9384091   -0.0000369    0.6389239  
H    4.3270394   -0.0004765   -1.6439446  
H    2.7280494   -0.0013406   -3.5742113  
C    0.8175213    0.6860729    2.3021913  
C    0.0000000    0.0000000    1.4700000  
C   -0.8887526   -0.7456559    2.3478473  
C   -0.4549825   -0.3816753    3.7138435  
N    0.5448156    0.4573574    3.6934124  
C   -1.0945674   -0.9182058    4.8835240  
C   -2.1210866   -1.7789155    4.6970523  
O   -2.8083856   -2.3554314    5.6976972  
C   -2.5824069   -2.1655116    3.3310774  
O   -3.5227682   -2.9541547    3.2362962  
C   -1.9100805   -1.6015804    2.1470656  
H   -0.7567140   -0.6349833    5.8697035  
H   -3.4728268   -2.9124471    5.2533954  
H   -2.2742832   -1.9066565    1.1752040  
H    1.6189533    1.3585343    2.0405121  
