64

C    4.1066126   -0.7198887   -4.4477716  
C    3.0267438   -0.0008951   -3.9901699  
C    2.5093613    0.7266866   -5.1026176  
C    3.3209996    0.4088812   -6.2216217  
N    4.2823368   -0.4703597   -5.7887433  
C    3.1008514    0.9475210   -7.4929164  
C    2.0418866    1.8226954   -7.6372801  
O    1.7817969    2.3774849   -8.8569415  
C    1.2209707    2.1524235   -6.5326559  
O    0.2080049    3.0379818   -6.8376634  
C    1.4377317    1.6216302   -5.2781441  
H    3.7159028    0.7094368   -8.3497888  
H    1.0124322    2.9495427   -8.7382250  
H   -0.2987945    3.2076335   -6.0376782  
H    0.7922748    1.8929862   -4.4509630  
H    4.7662577   -1.3898546   -3.9233937  
C    5.9782605   -4.5528128   -5.9164116  
C    6.8778528   -4.3376440   -6.9346964  
C    6.7373849   -2.9753331   -7.3334165  
C    5.7287481   -2.4042561   -6.5158285  
N    5.2877079   -3.3897375   -5.6679325  
C    5.3267034   -1.0701850   -6.6315998  
C    5.9545175   -0.2984741   -7.5899789  
O    5.6007798    1.0106303   -7.7453138  
C    6.9628803   -0.8502766   -8.4155307  
O    7.4916785    0.0458334   -9.3214571  
C    7.3598222   -2.1663639   -8.3020570  
H    7.5515781   -5.0725097   -7.3409728  
H    4.5802345   -3.2764586   -4.9646328  
H    6.1526918    1.3599930   -8.4570744  
H    8.1648397   -0.4064282   -9.8390654  
H    8.1348572   -2.5610839   -8.9485839  
H    5.7735713   -5.4442912   -5.3486727  
C    3.3003547    0.0005277   -1.4738986  
C    2.5232816    0.0003497   -2.6090746  
C    1.1623203   -0.0001319   -2.1820102  
C    1.1711884    0.0000584   -0.7636141  
N    2.4852301   -0.0014919   -0.3662359  
C    0.0000000    0.0000000    0.0000000  
C   -1.2020383    0.0000520   -0.6806479  
O   -2.3759248    0.0003493    0.0157745  
C   -1.2314655   -0.0005115   -2.0955511  
O   -2.5054388   -0.0008040   -2.6250184  
C   -0.0764513   -0.0007274   -2.8495195  
H    2.8036266    0.0088183    0.5858662  
H   -3.0835639    0.0000346   -0.6418822  
H   -2.4360043   -0.0011529   -3.5845924  
H   -0.1304091   -0.0013423   -3.9319089  
H    4.3715553    0.0004897   -1.3667133  
C    0.8400945    0.7047457    2.2710304  
C    0.0000000    0.0000000    1.4700000  
C   -0.8844236   -0.7423113    2.3369512  
C   -0.4878984   -0.4098547    3.7186280  
N    0.5629682    0.4714286    3.6095011  
C   -1.0836927   -0.9095027    4.8308716  
C   -2.1891196   -1.8367527    4.6554461  
O   -2.7906899   -2.3413415    5.5944904  
C   -2.6257283   -2.2031529    3.2011665  
O   -3.5549479   -2.9829990    3.0410059  
C   -1.9068976   -1.5999348    2.0816745  
H   -0.7774656   -0.6525820    5.8354244  
H   -2.2155208   -1.8586617    1.0779135  
H    1.6384792    1.3747609    1.9961646  
H    1.0518368    0.8833920    4.3830260  
