58

C   -4.7390831   -0.0017692   -1.2727316  
C   -5.7159767   -0.0026886   -2.2159989  
C   -6.9782040   -0.0029322   -1.5148440  
C   -6.6542730   -0.0020439   -0.0754491  
N   -5.2807301   -0.0017650    0.0037314  
C   -7.5764452   -0.0015790    0.9201930  
C   -8.9818047   -0.0022063    0.5493835  
O   -9.8878550   -0.0019202    1.3724109  
C   -9.3478536   -0.0034026   -0.9691062  
O  -10.5277173   -0.0042452   -1.2934223  
C   -8.2653734   -0.0035336   -1.9499675  
H   -5.5691159   -0.0033265   -3.2813835  
H   -8.5272566   -0.0041592   -2.9993196  
H   -4.7530489    0.0003755    0.8573095  
C   -3.2798069   -0.0011447   -1.4499674  
C   -2.5571117   -0.0009924   -2.5996573  
C   -1.1637412   -0.0003531   -2.2210371  
C   -1.1336957   -0.0001732   -0.7459479  
N   -2.4483507   -0.0002745   -0.3402739  
C    0.0000000    0.0000000    0.0000000  
C    1.2757377    0.0002363   -0.6964406  
O    2.3524595    0.0004651   -0.1142296  
C    1.2676511    0.0003036   -2.2584073  
O    2.3355789    0.0008085   -2.8557276  
C   -0.0181539   -0.0001788   -2.9516295  
H   -2.9547325   -0.0011111   -3.5989132  
H   -0.0150757   -0.0003342   -4.0331633  
H   -2.7563623   -0.0017523    0.6148041  
C   -7.2245590   -0.0005172    2.3474543  
C   -5.9961216    0.0003606    2.9262598  
C   -6.2039823    0.0011549    4.3551154  
C   -7.6646877    0.0006352    4.5627927  
N   -8.2259097    0.0000221    3.3066400  
C   -8.2685054    0.0007247    5.7781563  
C   -7.4233312    0.0016027    6.9606175  
O   -7.8714747    0.0018126    8.0996818  
C   -5.8737338    0.0024165    6.7642649  
O   -5.1520122    0.0034655    7.7523831  
C   -5.3405972    0.0019558    5.4042588  
H   -5.0520965    0.0006247    2.4110604  
H   -9.3417790    0.0002066    5.9085107  
H   -4.2665824    0.0023195    5.2769146  
H   -9.2111561   -0.0019878    3.1160284  
C    0.8400945    0.7047457    2.2710304  
C    0.0000000    0.0000000    1.4700000  
C   -0.8844236   -0.7423113    2.3369512  
C   -0.4878984   -0.4098547    3.7186280  
N    0.5629682    0.4714286    3.6095011  
C   -1.0836927   -0.9095027    4.8308716  
C   -2.1891196   -1.8367527    4.6554461  
O   -2.7906899   -2.3413415    5.5944904  
C   -2.6257283   -2.2031529    3.2011665  
O   -3.5549479   -2.9829990    3.0410059  
C   -1.9068976   -1.5999348    2.0816745  
H   -0.7774656   -0.6525820    5.8354244  
H   -2.2155208   -1.8586617    1.0779135  
H    1.6384792    1.3747609    1.9961646  
H    1.0518368    0.8833920    4.3830260  
