58

C    1.0965517    0.0001359   -0.8010306  
C    0.0000000    0.0000000    0.0000000  
C   -1.1546565    0.0001471   -0.8669509  
C   -0.6372015    0.0003522   -2.2486283  
N    0.7342872    0.0007341   -2.1395011  
C   -1.4147740    0.0001356   -3.3608713  
C   -2.8576051   -0.0001043   -3.1854460  
O   -3.6427776   -0.0002489   -4.1244906  
C   -3.4275843   -0.0000725   -1.7311663  
O   -4.6406828    0.0000334   -1.5710056  
C   -2.4891865   -0.0001091   -0.6116745  
H   -1.0150447    0.0001622   -4.3654243  
H   -2.8919123   -0.0002920    0.3920865  
H    2.1388273    0.0000664   -0.5261645  
C    4.5298623   -2.1105781   -2.7870401  
C    4.8358779   -1.6476822   -4.0264580  
C    3.7723838   -0.7519980   -4.4157720  
C    2.8148500   -0.7308466   -3.2935094  
N    3.3319992   -1.5752937   -2.3383368  
C    1.6707642   -0.0012340   -3.2725973  
C    1.3617420    0.8177040   -4.4329339  
O    0.3555482    1.5104318   -4.5104134  
C    2.3615449    0.8103626   -5.6329946  
O    2.1118346    1.4956459   -6.6154876  
C    3.5619268   -0.0167192   -5.5388084  
H    5.7070853   -1.9045221   -4.6023435  
H    5.0785345   -2.7978854   -2.1637768  
H    2.9059925   -1.7708746   -1.4510301  
C    5.8594727   -3.2447043   -7.4321476  
C    6.4927141   -2.5323363   -8.3994181  
C    6.0642045   -1.1604910   -8.2606533  
C    5.1226811   -1.1318172   -7.1250908  
N    5.0418136   -2.4267073   -6.6672597  
C    4.4960380   -0.0158372   -6.6738574  
C    4.7668058    1.2408778   -7.3520076  
O    4.2518304    2.3008390   -7.0209732  
C    5.7603933    1.2338388   -8.5572202  
O    5.9959252    2.2857976   -9.1361585  
C    6.3742285   -0.0319152   -8.9508267  
H    7.1812669   -2.9232909   -9.1271975  
H    7.0611929   -0.0282091   -9.7861651  
H    5.9211738   -4.2984781   -7.2138736  
H    4.4774649   -2.7303512   -5.8950167  
C    0.8400945    0.7047457    2.2710304  
C    0.0000000    0.0000000    1.4700000  
C   -0.8844236   -0.7423113    2.3369512  
C   -0.4878984   -0.4098547    3.7186280  
N    0.5629682    0.4714286    3.6095011  
C   -1.0836927   -0.9095027    4.8308716  
C   -2.1891196   -1.8367527    4.6554461  
O   -2.7906899   -2.3413415    5.5944904  
C   -2.6257283   -2.2031529    3.2011665  
O   -3.5549479   -2.9829990    3.0410059  
C   -1.9068976   -1.5999348    2.0816745  
H   -0.7774656   -0.6525820    5.8354244  
H   -2.2155208   -1.8586617    1.0779135  
H    1.6384792    1.3747609    1.9961646  
H    1.0518368    0.8833920    4.3830260  
