62

C    3.3003550    0.0005276   -1.4738975  
C    2.5232820    0.0003499   -2.6090737  
C    1.1623204   -0.0001317   -2.1820092  
C    1.1711886    0.0000584   -0.7636135  
N    2.4852302   -0.0014919   -0.3662348  
C    0.0000000    0.0000000    0.0000000  
C   -1.2020384    0.0000521   -0.6806477  
O   -2.3759248    0.0003495    0.0157741  
C   -1.2314652   -0.0005110   -2.0955506  
O   -2.5054382   -0.0008034   -2.6250183  
C   -0.0764511   -0.0007269   -2.8495189  
H    2.8036264    0.0088181    0.5858673  
H   -3.0835638    0.0000349   -0.6418814  
H   -2.4360037   -0.0011524   -3.5845926  
H   -0.1304085   -0.0013419   -3.9319083  
H    4.3715551    0.0004897   -1.3667120  
C    5.9080451   -2.1212785   -4.5066903  
C    5.7372501   -1.6233274   -5.7776507  
C    4.6108303   -0.7493040   -5.7345060  
C    4.1315415   -0.7536525   -4.3995192  
N    4.9405890   -1.5984030   -3.6808702  
C    3.0267444   -0.0008948   -3.9901686  
C    2.3944499    0.7705369   -4.9458224  
O    1.3109375    1.5252433   -4.6002322  
C    2.8575152    0.7878059   -6.2830173  
O    2.1214428    1.6052997   -7.1156311  
C    3.9471981    0.0452335   -6.6876202  
H    6.3485808   -1.8616767   -6.6311481  
H    4.8499642   -1.7941733   -2.7003387  
H    1.0265043    1.9789025   -5.4043193  
H    2.4998696    1.5596278   -7.9989837  
H    6.6425533   -2.8091590   -4.1242283  
C    4.8349290   -0.9641339   -8.8214229  
C    4.3968374    0.0903546   -8.0864368  
C    4.4589841    1.2532708   -8.9400180  
C    4.9728496    0.7864972  -10.2418829  
N    5.1811528   -0.5664464  -10.1038874  
C    5.1760363    1.5857964  -11.3196309  
C    4.8682750    3.0002377  -11.1885818  
O    5.0172141    3.8017129  -12.1016837  
C    4.3231814    3.5165126   -9.8188593  
O    4.0608360    4.7054071   -9.6965273  
C    4.1458392    2.5586812   -8.7302997  
H    5.5536665    1.2232682  -12.2656111  
H    3.7677776    2.9241551   -7.7851960  
H    4.9341861   -1.9982704   -8.5340227  
H    5.5289892   -1.1720638  -10.8245006  
C    0.8681109    0.7263879    2.2709268  
C    0.6127770    0.5096195    3.5869401  
C   -0.4920590   -0.4175482    3.6542670  
C   -0.8620974   -0.7254003    2.2596025  
N    0.0000000    0.0000000    1.4700000  
C   -1.8641242   -1.5660088    1.8976294  
C   -2.6293522   -2.2103885    2.9520183  
O   -3.5512764   -2.9839180    2.7283916  
C   -2.2549728   -1.8987399    4.4361073  
O   -2.8923672   -2.4351063    5.3323774  
C   -1.1543735   -0.9755647    4.7012123  
H    1.1382914    0.9492124    4.4159191  
H   -2.1192137   -1.7782617    0.8686553  
H   -0.9013378   -0.7652422    5.7314848  
H    1.6172880    1.3558399    1.8188057  
