58

C   -0.6668589    0.5611807   -9.1463363  
C    0.3248699   -0.2716546   -9.5549115  
C    0.3125286   -0.2644656  -10.9987384  
C   -0.7754659    0.6473870  -11.4007123  
N   -1.3297846    1.1144330  -10.2313158  
C   -1.1099482    0.9256892  -12.6861591  
C   -0.3476403    0.2841610  -13.7443957  
O   -0.5717493    0.4699523  -14.9333266  
C    0.8088449   -0.6854711  -13.3417037  
O    1.4574018   -1.2316385  -14.2239383  
C    1.0750909   -0.9059092  -11.9224184  
H    0.9891204   -0.8277216   -8.9175947  
H   -1.9115534    1.5977277  -12.9594776  
H    1.8776652   -1.5785626  -11.6519828  
H   -2.0963757    1.7595589  -10.1747566  
C    0.8518586   -0.7041561   -5.2251424  
C    0.0139741    0.0003876   -4.4216236  
C   -0.8729884    0.7427327   -5.2859483  
C   -0.4803614    0.4105161   -6.6687954  
N    0.5709018   -0.4706747   -6.5627862  
C   -1.0793689    0.9102631   -7.7792674  
C   -2.1843875    1.8373739   -7.6005638  
O   -2.7886785    2.3420361   -8.5378202  
C   -2.6168944    2.2035194   -6.1449952  
O   -3.5457346    2.9832465   -5.9820787  
C   -1.8948201    1.6002141   -5.0276394  
H   -2.2006129    1.8587644   -4.0229673  
H    1.6510907   -1.3741286   -4.9526460  
H    1.0576099   -0.8824762   -7.3377577  
C    3.2798085    0.0005853   -1.4499648  
C    2.5571144    0.0005562   -2.5996554  
C    1.1637436    0.0001546   -2.2210360  
C    1.1336965   -0.0000201   -0.7459470  
N    2.4483513   -0.0001430   -0.3402717  
C    0.0000000    0.0000000    0.0000000  
C   -1.2757367   -0.0000188   -0.6964414  
O   -2.3524597   -0.0000640   -0.1142313  
C   -1.2676494   -0.0000875   -2.2584081  
O   -2.3355762   -0.0004102   -2.8557294  
C    0.0181562    0.0001757   -2.9516296  
H    2.9547357    0.0006072   -3.5989105  
H    4.3498550    0.0008609   -1.3200021  
H    2.7563627    0.0012824    0.6148063  
C    0.0000000    0.0000000    1.4700000  
C    1.0662921    0.0000102    2.3034270  
C    0.4961870   -0.0000064    3.6418889  
C   -0.9663858    0.0000850    3.4240247  
N   -1.2632773    0.0000084    2.1528658  
C   -1.8985362    0.0000517    4.5177257  
C   -1.3925775   -0.0004564    5.7720543  
O   -2.1456383   -0.0005410    6.8851312  
C    0.0786232   -0.0009323    6.0245000  
O    0.4683759   -0.0012588    7.1921102  
C    1.0143166   -0.0008442    4.8859032  
H    2.1107198   -0.0000632    2.0421868  
H   -2.9622183    0.0003270    4.3293377  
H   -1.5042274   -0.0009692    7.6184419  
H    2.0724152   -0.0013148    5.1109744  
