58

C    9.8689266    0.7280858   -0.9425854  
C   11.2017425    0.5116289   -1.0868873  
C   11.5923119   -0.4152134   -0.0509083  
C   10.3690101   -0.7232145    0.7142438  
N    9.3599991    0.0017983    0.1233597  
C   10.3190369   -1.5636048    1.7786454  
C   11.5524410   -2.2075759    2.1988252  
O   11.6110008   -2.9808851    3.1458549  
C   12.8599046   -1.8957636    1.4031386  
O   13.9044822   -2.4317863    1.7478085  
C   12.7882159   -0.9728521    0.2731178  
H   11.8386357    0.9512236   -1.8337051  
H    9.4112005   -1.7759723    2.3260415  
H   13.6978985   -0.7624138   -0.2726987  
H    9.2157150    1.3572434   -1.5251361  
C    5.6938820    0.0016101   -2.2318647  
C    4.7390840    0.0009613   -1.2727298  
C    5.4706527    0.0008610   -0.0152296  
C    6.8949560    0.0014077   -0.4126515  
N    7.0320415    0.0019290   -1.7108028  
C    7.9554493    0.0015310    0.5571111  
C    7.6088229    0.0015156    1.8644688  
O    8.4940071    0.0016138    2.8756501  
C    6.1802431    0.0013411    2.2972750  
O    5.9381808    0.0012125    3.5041826  
C    5.1106706    0.0011730    1.2834017  
H    7.9484094    0.0015982    3.6827902  
H    4.0886168    0.0011646    1.6378545  
H    5.5602487    0.0018873   -3.3019653  
C    3.2798077    0.0005856   -1.4499661  
C    2.5571132    0.0005565   -2.5996564  
C    1.1637425    0.0001547   -2.2210366  
C    1.1336959   -0.0000200   -0.7459475  
N    2.4483509   -0.0001429   -0.3402730  
C    0.0000000    0.0000000    0.0000000  
C   -1.2757370   -0.0000187   -0.6964411  
O   -2.3524597   -0.0000640   -0.1142306  
C   -1.2676502   -0.0000874   -2.2584078  
O   -2.3355774   -0.0004102   -2.8557287  
C    0.0181551    0.0001758   -2.9516297  
H    2.9547342    0.0006074   -3.5989118  
H    0.0150776    0.0003317   -4.0331632  
H    2.7563626    0.0012823    0.6148051  
C    0.8175213    0.6860729    2.3021913  
C    0.0000000    0.0000000    1.4700000  
C   -0.8887526   -0.7456559    2.3478473  
C   -0.4549825   -0.3816753    3.7138435  
N    0.5448156    0.4573574    3.6934124  
C   -1.0945674   -0.9182058    4.8835240  
C   -2.1210866   -1.7789155    4.6970523  
O   -2.8083856   -2.3554314    5.6976972  
C   -2.5824069   -2.1655116    3.3310774  
O   -3.5227682   -2.9541547    3.2362962  
C   -1.9100805   -1.6015804    2.1470656  
H   -0.7567140   -0.6349833    5.8697035  
H   -3.4728268   -2.9124471    5.2533954  
H   -2.2742832   -1.9066565    1.1752040  
H    1.6189533    1.3585343    2.0405121  
