60

C    0.0000000    0.0000000    0.0000000  
C    1.0521670   -0.0011919   -0.8862342  
C    0.4917223   -0.0011964   -2.1979131  
C   -0.9187421    0.0003160   -2.0478687  
N   -1.1833164   -0.0009395   -0.7007918  
C   -1.7951689    0.0010375   -3.1372099  
C   -1.2375821    0.0005241   -4.4010433  
O   -2.0474197    0.0015388   -5.4997590  
C    0.1673600   -0.0013571   -4.5711965  
O    0.5673544   -0.0020698   -5.8915553  
C    1.0325779   -0.0023428   -3.4969889  
H    2.0953060   -0.0030681   -0.6200556  
H   -2.0989773    0.0102402   -0.2891833  
H   -1.4634865    0.0006518   -6.2693599  
H    1.5290736   -0.0033179   -5.9180045  
H    2.1042161   -0.0039640   -3.6584449  
C   -4.5107076    2.0951330   -0.3556552  
C   -3.4200295    1.6321287   -1.0190736  
C   -3.9000899    0.7371487   -2.0454207  
C   -5.3703952    0.7165734   -1.9247152  
N   -5.6767082    1.5600108   -0.8817983  
C   -6.1968221   -0.0116911   -2.7174027  
C   -5.5982295   -0.8300289   -3.7588177  
O   -6.2574702   -1.5216451   -4.5239124  
C   -4.0430709   -0.8236675   -3.9045812  
O   -3.5277081   -1.5089273   -4.7775535  
C   -3.2578642    0.0024087   -2.9908519  
H   -2.3960516    1.8881747   -0.8128629  
H   -7.2728535   -0.0125376   -2.6122056  
H   -4.5607691    2.7820827    0.4734911  
C   -7.4948254    3.0955821   -0.0015506  
C   -8.7941537    3.0330873    0.3882127  
C   -9.2144761    1.6603968    0.2336639  
C   -8.0451239    0.9230043   -0.2817558  
N   -7.0358069    1.8501255   -0.4026493  
C   -8.0352315   -0.4052244   -0.5599932  
C   -9.2579465   -1.1587767   -0.3371442  
O   -9.3499936   -2.3593251   -0.5574001  
C  -10.5085795   -0.3981725    0.2080189  
O  -11.5437191   -1.0220033    0.3992789  
C  -10.3969553    1.0344760    0.4705271  
H   -9.3901860    3.8548478    0.7432730  
H   -7.1666725   -0.9269087   -0.9372998  
H  -11.2673674    1.5536818    0.8480613  
H   -6.8340530    3.9467438   -0.0297212  
C    1.0965515   -0.0001358    2.2710304  
C    0.0000000    0.0000000    1.4700000  
C   -1.1546562   -0.0001469    2.3369512  
C   -0.6372014   -0.0003519    3.7186280  
N    0.7342871   -0.0007337    3.6095011  
C   -1.4147739   -0.0001353    4.8308716  
C   -2.8576048    0.0001048    4.6554461  
O   -3.6427778    0.0002493    5.5944904  
C   -3.4275839    0.0000726    3.2011665  
O   -4.6406829   -0.0000333    3.0410059  
C   -2.4891866    0.0001091    2.0816745  
H   -1.0150448   -0.0001615    5.8354244  
H   -2.8919121    0.0002919    1.0779135  
H    2.1388271   -0.0000662    1.9961646  
H    1.3735872    0.0006099    4.3830260  
