58

C    0.3445018   -0.0471761   -8.8023151  
C    1.3636817   -0.7039578   -9.4138581  
C    1.3345275   -0.3230912  -10.8063116  
C    0.2067505    0.6161741  -10.9569445  
N   -0.3521935    0.7407188   -9.7059617  
C   -0.1531907    1.2042911  -12.1258187  
C    0.6217473    0.8911306  -13.3149106  
O    0.3768535    1.3695015  -14.4146767  
C    1.8202524   -0.1012502  -13.1786364  
O    2.4797763   -0.3727281  -14.1729151  
C    2.1112574   -0.6710552  -11.8654381  
H    2.0566843   -1.3784184   -8.9432599  
H   -0.9838534    1.8905947  -12.2146839  
H    2.9428799   -1.3571643  -11.7795178  
H   -1.1430270    1.3169468   -9.4832717  
C    1.7744463   -2.1336760   -5.1326807  
C    1.6746907   -1.7240763   -6.4187040  
C    0.5405885   -0.8130121   -6.4352720  
C    0.0614875   -0.7888182   -5.0365367  
N    0.7809200   -1.5609931   -4.2683222  
C   -1.0641734    0.0073898   -4.6315339  
C   -1.6828407    0.7461571   -5.5806432  
O   -2.7449527    1.5348085   -5.3440237  
C   -1.2228402    0.7432051   -7.0006960  
O   -1.8334830    1.4397968   -7.8113106  
C   -0.0658191   -0.0818757   -7.3911694  
H    2.2942506   -2.0053653   -7.2530286  
H   -2.9590926    1.9284667   -6.2090847  
H    2.4922211   -2.8167589   -4.7070391  
C    1.1319248    0.0015675   -0.8009270  
C    0.7969916    0.0034959   -2.1169404  
C   -0.6453336    0.0035703   -2.1842672  
C   -1.1266831    0.0015415   -0.7896027  
N    0.0000000    0.0000000    0.0000000  
C   -2.4346129    0.0013924   -0.4276297  
C   -3.4350110    0.0031352   -1.4820184  
O   -4.6384610    0.0030897   -1.2583919  
C   -2.9478958    0.0050460   -2.9661075  
O   -3.7809377    0.0062160   -3.8623775  
C   -1.5113821    0.0053068   -3.2312125  
H    1.4821240    0.0045436   -2.9459192  
H   -2.7664565    0.0000185    0.6013447  
H    2.1104318    0.0009428   -0.3488058  
C    2.5528530    2.1414826    2.8079335  
C    2.0663498    1.7338582    4.0032312  
C    0.9804344    0.8229586    3.6752840  
C    0.9495562    0.7966882    2.1971295  
N    1.8690446    1.5676019    1.6831036  
C    0.0000000    0.0000000    1.4700000  
C   -0.8785127   -0.7372425    2.1869543  
O   -1.8187535   -1.5261249    1.6395491  
C   -0.8723269   -0.7321790    3.6796354  
O   -1.7010379   -1.4274584    4.2670412  
C    0.1115397    0.0933559    4.4024240  
H    2.4028853    2.0163452    4.9860947  
H   -2.2861435   -1.9184361    2.3990168  
H    0.0832434    0.0693689    5.4835595  
H    3.3664920    2.8238276    2.6198634  
