60

C   -3.3041035    0.0127939   -1.5420414  
C   -2.5845161    0.0105776   -0.3695841  
C   -1.2039919    0.0047056   -0.7283581  
C   -1.1422324    0.0038597   -2.1454365  
N   -2.4348569    0.0069038   -2.6077451  
C    0.0655126   -0.0011360   -2.8497915  
C    1.2321660   -0.0050477   -2.1101403  
O    2.4392609   -0.0096470   -2.7472527  
C    1.1911105   -0.0046539   -0.6955270  
O    2.4371339   -0.0092919   -0.1032872  
C    0.0000000    0.0000000    0.0000000  
H   -3.0031302    0.0118016    0.6222597  
H   -2.7054161    0.0176819   -3.5745247  
H    0.1193466   -0.0019510   -3.9297471  
H    3.1132746   -0.0121014   -2.0551798  
H    2.3200124   -0.0086591    0.8516402  
C   -5.7131368    0.0220918   -0.7960682  
C   -4.7576885    0.0180790   -1.7610437  
C   -5.4429414    0.0197132   -3.0319735  
C   -6.8862794    0.0250745   -2.7261369  
N   -6.9826945    0.0258870   -1.3536963  
C   -7.8702614    0.0283904   -3.6607351  
C   -7.4818437    0.0263306   -5.0613289  
O   -8.2934285    0.0289429   -5.9776394  
C   -5.9588894    0.0204104   -5.4082866  
O   -5.6197921    0.0183253   -6.5839859  
C   -4.9916985    0.0175077   -4.3135786  
H   -3.9391481    0.0136157   -4.5622683  
H   -5.5966160    0.0223789    0.2755248  
H   -7.8428185    0.0307512   -0.8367725  
C  -10.0168026    2.1792376   -0.5376415  
C  -11.2928877    1.7763073   -0.7397176  
C  -11.2236183    0.8646683   -1.8713606  
C   -9.7912343    0.8328776   -2.2372141  
N   -9.0788819    1.6014532   -1.4588604  
C   -9.3018172    0.0338941   -3.3267938  
C  -10.2023565   -0.7002689   -4.0191581  
O   -9.8858184   -1.4907779   -5.0588404  
C  -11.6545767   -0.6896196   -3.6740420  
O  -12.4174841   -1.3823270   -4.3473539  
C  -12.1318637    0.1381788   -2.5520473  
H  -12.1725365    2.0623228   -0.1888212  
H  -10.7330720   -1.8800353   -5.3413172  
H  -13.1912423    0.1182523   -2.3339914  
H   -9.6462598    2.8605124    0.2117153  
C    0.8681109    0.7263879    2.2709268  
C    0.6127770    0.5096195    3.5869401  
C   -0.4920590   -0.4175482    3.6542670  
C   -0.8620974   -0.7254003    2.2596025  
N    0.0000000    0.0000000    1.4700000  
C   -1.8641242   -1.5660088    1.8976294  
C   -2.6293522   -2.2103885    2.9520183  
O   -3.5512764   -2.9839180    2.7283916  
C   -2.2549728   -1.8987399    4.4361073  
O   -2.8923672   -2.4351063    5.3323774  
C   -1.1543735   -0.9755647    4.7012123  
H    1.1382914    0.9492124    4.4159191  
H   -2.1192137   -1.7782617    0.8686553  
H   -0.9013378   -0.7652422    5.7314848  
H    1.6172880    1.3558399    1.8188057  
