58

C    7.2190982   -3.3930979   -1.7544320  
C    8.5736296   -3.4221421   -1.6623682  
C    9.0420694   -2.0812097   -1.9217900  
C    7.8407978   -1.2626938   -2.1743197  
N    6.7688485   -2.1173124   -2.0583827  
C    7.8603083    0.0641219   -2.4587201  
C    9.1505650    0.7304299   -2.5204251  
O    9.2733538    1.9225947   -2.7693575  
C   10.4359032   -0.1169797   -2.2565962  
O   11.5278332    0.4330142   -2.3061393  
C   10.2875684   -1.5394993   -1.9594651  
H    9.1759161   -4.2845442   -1.4384762  
H    6.9674879    0.6461029   -2.6405985  
H   11.1824098   -2.1191363   -1.7778032  
H    6.5119263   -4.1964080   -1.6260161  
C    4.2926942   -2.1403414   -1.5040813  
C    5.3604709   -1.7320208   -2.2284477  
C    4.8134481   -0.8208702   -3.2219621  
C    3.3612071   -0.7952319   -2.9446112  
N    3.0500070   -1.5667026   -1.9386405  
C    2.4521483    0.0014840   -3.7217481  
C    2.9703730    0.7393569   -4.7298756  
O    2.2390463    1.5283419   -5.5352977  
C    4.4316781    0.7349405   -5.0343914  
O    4.8335658    1.4307755   -5.9668722  
C    5.3436396   -0.0906365   -4.2228046  
H    2.8845126    1.9211527   -6.1502982  
H    6.3952201   -0.0661688   -4.4754097  
H    4.2782626   -2.8230632   -0.6694219  
C    0.0000000    0.0000000    0.0000000  
C    1.0662923   -0.0000101   -0.8334270  
C    0.4961873    0.0000065   -2.1718887  
C   -0.9663854   -0.0000848   -1.9540250  
N   -1.2632773   -0.0000083   -0.6828660  
C   -1.8985359   -0.0000514   -3.0477261  
C   -1.3925770    0.0004566   -4.3020547  
O   -2.1456378    0.0005414   -5.4151314  
C    0.0786240    0.0009326   -4.5545000  
O    0.4683767    0.0012591   -5.7221100  
C    1.0143171    0.0008444   -3.4159031  
H    2.1107200    0.0000633   -0.5721865  
H   -2.9622181   -0.0003268   -2.8593381  
H   -1.5042265    0.0009697   -6.1484419  
C    0.0000000    0.0000000    1.4700000  
C    1.0541688    0.0001722    2.3260392  
C    0.5103138    0.0000454    3.6635956  
C   -0.9576371   -0.0002459    3.5155732  
N   -1.2018458    0.0001392    2.1615969  
C   -1.8348311   -0.0008317    4.5510609  
C   -1.2972847   -0.0009736    5.9014604  
O   -2.0050672   -0.0014265    6.9001319  
C    0.2542623   -0.0004184    6.0817573  
O    0.7184670   -0.0002256    7.2139121  
C    1.0974552   -0.0000873    4.8889129  
H    2.0940752    0.0005483    2.0517982  
H   -2.9081052   -0.0011668    4.4207061  
H    2.1707277    0.0000911    5.0223670  
H   -2.1128194   -0.0014912    1.7406791  
