64

C    1.1188644    0.0008218   -0.8003806  
C    0.0000000    0.0000000    0.0000000  
C   -1.1323862    0.0008904   -0.8673524  
C   -0.6382659    0.0019684   -2.1969279  
N    0.7324023    0.0038479   -2.1202238  
C   -1.4770905    0.0027325   -3.3154809  
C   -2.8395470    0.0020959   -3.0876862  
O   -3.7039190    0.0024444   -4.1440355  
C   -3.3517864    0.0013947   -1.7684336  
O   -4.7300490    0.0012388   -1.7073134  
C   -2.5248545    0.0009136   -0.6644822  
H   -1.1067562    0.0036994   -4.3313813  
H   -4.5940024    0.0021851   -3.7685137  
H   -4.9934600    0.0007285   -0.7819922  
H   -2.9462579    0.0005615    0.3339652  
H    2.1619896    0.0009344   -0.5342063  
C    4.5426431   -2.1280495   -2.8244665  
C    4.7840755   -1.6433690   -4.0890858  
C    3.7027657   -0.7718641   -4.4144291  
C    2.8248675   -0.7640009   -3.3003562  
N    3.3636316   -1.5993789   -2.3535224  
C    1.6478441   -0.0100105   -3.2702994  
C    1.3518132    0.7501211   -4.3850829  
O    0.2151967    1.5054730   -4.4087629  
C    2.2150350    0.7551134   -5.5065284  
O    1.7815991    1.5622767   -6.5380153  
C    3.3762265    0.0113170   -5.5369816  
H    5.6343323   -1.8887260   -4.7021579  
H    2.9665967   -1.7854951   -1.4503582  
H    0.2007708    1.9502737   -5.2662066  
H    2.4205842    1.5086851   -7.2552535  
H    4.0176576    0.0350468   -6.4101832  
C    6.5096297   -3.6499311   -2.3825664  
C    6.9529855   -4.4713424   -1.3720290  
C    5.9977145   -4.3853862   -0.3162505  
C    4.9847726   -3.4890622   -0.7434250  
N    5.3275166   -3.0594331   -2.0014244  
C    3.8784964   -3.1653514    0.0478731  
C    3.7930698   -3.7574919    1.2929634  
O    2.7335058   -3.4768278    2.1063306  
C    4.7938884   -4.6541054    1.7371073  
O    4.5659121   -5.1602835    3.0001016  
C    5.8856712   -4.9737049    0.9571119  
H    7.8546293   -5.0592208   -1.3927871  
H    3.1031413   -2.4828532   -0.2718493  
H    2.8676468   -3.9873461    2.9154306  
H    5.2872880   -5.7563001    3.2236744  
H    6.6363802   -5.6637171    1.3242597  
H    6.9438373   -3.4374486   -3.3444782  
C    0.8400945    0.7047457    2.2710304  
C    0.0000000    0.0000000    1.4700000  
C   -0.8844236   -0.7423113    2.3369512  
C   -0.4878984   -0.4098547    3.7186280  
N    0.5629682    0.4714286    3.6095011  
C   -1.0836927   -0.9095027    4.8308716  
C   -2.1891196   -1.8367527    4.6554461  
O   -2.7906899   -2.3413415    5.5944904  
C   -2.6257283   -2.2031529    3.2011665  
O   -3.5549479   -2.9829990    3.0410059  
C   -1.9068976   -1.5999348    2.0816745  
H   -0.7774656   -0.6525820    5.8354244  
H   -2.2155208   -1.8586617    1.0779135  
H    1.6384792    1.3747609    1.9961646  
H    1.0518368    0.8833920    4.3830260  
