58

C    0.0000000    0.0000000    0.0000000  
C    1.0541693   -0.0001722   -0.8560387  
C    0.5103150   -0.0000453   -2.1935956  
C   -0.9576359    0.0002463   -2.0455738  
N   -1.2018452   -0.0001387   -0.6915977  
C   -1.8348290    0.0008322   -3.0810622  
C   -1.2972821    0.0009744   -4.4314615  
O   -2.0050638    0.0014275   -5.4301331  
C    0.2542652    0.0004188   -4.6117576  
O    0.7184705    0.0002260   -5.7439120  
C    1.0974570    0.0000875   -3.4189127  
H    2.0940754   -0.0005486   -0.5817977  
H    2.1707302   -0.0000913   -3.5523661  
H   -2.1128189    0.0014918   -0.2706805  
C   -4.6945328    2.0112733   -0.3161638  
C   -3.5419717    1.6295587   -0.9140565  
C   -3.9513650    0.7131112   -1.9671571  
C   -5.4249846    0.6554386   -1.8589750  
N   -5.8663720    1.4144239   -0.8929997  
C   -6.2212849   -0.1553971   -2.7384849  
C   -5.5748568   -0.8755691   -3.6833755  
O   -6.1915649   -1.6747263   -4.5705397  
C   -4.0887134   -0.8381747   -3.8180605  
O   -3.5674030   -1.5194682   -4.7008375  
C   -3.2941055    0.0012883   -2.9038262  
H   -2.5379802    1.9325465   -0.6705906  
H   -5.4713988   -2.0497083   -5.1089655  
H   -4.8195600    2.6886083    0.5136308  
C   -9.1426585    3.0098843   -1.8841401  
C  -10.2836223    2.2737376   -1.9032322  
C   -9.9003783    0.9104604   -2.1850739  
C   -8.4320831    0.9127280   -2.3296232  
N   -8.0343969    2.2155303   -2.1361259  
C   -7.6843928   -0.1871001   -2.5998861  
C   -8.3716760   -1.4578410   -2.7592429  
O   -7.7872245   -2.5051091   -3.0040834  
C   -9.9263638   -1.4835548   -2.6106138  
O  -10.5159812   -2.5475549   -2.7429626  
C  -10.6222510   -0.2329163   -2.3182171  
H  -11.2800260    2.6435618   -1.7388388  
H  -11.6986845   -0.2592975   -2.2166347  
H   -9.0182229    4.0658999   -1.7073992  
H   -7.0850821    2.5390582   -2.1704549  
C    1.1319247   -0.0015655    2.2709268  
C    0.7969915   -0.0034943    3.5869401  
C   -0.6453339   -0.0035710    3.6542670  
C   -1.1266833   -0.0015433    2.2596025  
N    0.0000000    0.0000000    1.4700000  
C   -2.4346130   -0.0013964    1.8976294  
C   -3.4350110   -0.0031408    2.9520183  
O   -4.6384611   -0.0030974    2.7283916  
C   -2.9478959   -0.0050506    4.4361073  
O   -3.7809380   -0.0062218    5.3323774  
C   -1.5113823   -0.0053090    4.7012123  
H    1.4821238   -0.0045407    4.4159191  
H   -2.7664565   -0.0000232    0.8686553  
H   -1.1823530   -0.0068408    5.7314848  
H    2.1104316   -0.0009391    1.8188057  
