58

C    3.2573675   -0.0002918   -1.5109378  
C    2.5379470   -0.0001710   -0.3591959  
C    1.1435044    0.0000332   -0.7338498  
C    1.1092611   -0.0000081   -2.2088473  
N    2.4227565    0.0001908   -2.6182606  
C   -0.0265530   -0.0002522   -2.9515656  
C   -1.3003034   -0.0002640   -2.2514978  
O   -2.3786783   -0.0004131   -2.8306423  
C   -1.2877725    0.0000312   -0.6895603  
O   -2.3539955    0.0003305   -0.0892033  
C    0.0000000    0.0000000    0.0000000  
H    2.9384087   -0.0000368    0.6389241  
H    4.3270399   -0.0004764   -1.6439436  
H    2.7280496   -0.0013406   -3.5742107  
C    2.3639623   -2.0106296   -6.1309148  
C    1.9129296   -1.6290290   -4.9133234  
C    0.8175378   -0.7123244   -5.1894918  
C    0.7430710   -0.6543937   -6.6651889  
N    1.6470539   -1.4134614   -7.2225230  
C   -0.2278184    0.1567421   -7.3467457  
C   -1.0855847    0.8769544   -6.5885464  
O   -2.0419117    1.6763793   -7.0909404  
C   -1.0358692    0.8393042   -5.0971472  
O   -1.8474427    1.5206510   -4.4707802  
C   -0.0307349   -0.0004645   -4.4215600  
H    2.2783611   -1.9322471   -3.9470961  
H   -2.4872876    2.0513183   -6.3097782  
H    3.1718573   -2.6880832   -6.3574887  
C   -0.1092321   -0.8437723   -9.6756998  
C   -0.2708088    0.1886962   -8.8157697  
C   -0.4987200    1.3497229   -9.6622756  
C   -0.4399959    0.8220323  -11.0423765  
N   -0.2120265   -0.4631985  -11.0565600  
C   -0.6197917    1.6691929  -12.1891455  
C   -0.8482669    2.9836909  -11.9672706  
O   -1.0340064    3.8884487  -12.9434645  
C   -0.9135811    3.5463984  -10.5862371  
O   -1.1249916    4.7523547  -10.4589736  
C   -0.7258715    2.6569102   -9.4262800  
H   -0.5716030    1.2567063  -13.1863628  
H   -1.1724937    4.7321801  -12.4764621  
H   -0.7806372    3.1033696   -8.4424583  
H    0.0807462   -1.8792596   -9.4419307  
C    2.4951002    2.0940188    2.9809380  
C    1.9440701    1.6314916    1.8291961  
C    0.8759964    0.7350050    2.2038498  
C    0.8497377    0.7130254    3.6788474  
N    1.8560616    1.5571714    4.0882609  
C   -0.0205033   -0.0168748    4.4215661  
C   -0.9962600   -0.8356168    3.7214979  
O   -1.8224391   -1.5286685    4.3006425  
C   -0.9864710   -0.8277881    2.1595606  
O   -1.8030528   -1.5133726    1.5592035  
C    0.0000000    0.0000000    1.4700000  
H    2.2509283    1.8888011    0.8310761  
H   -0.0229599   -0.0187323    5.5027230  
H    3.3143982    2.7817323    3.1139444  
H    2.0889452    1.7545833    5.0442112  
