58

C   -3.2573655    0.0009228   -1.5109407  
C   -2.5379463    0.0006624   -0.3591981  
C   -1.1435039    0.0001883   -0.7338508  
C   -1.1092587    0.0002232   -2.2088482  
N   -2.4227537    0.0002783   -2.6182629  
C    0.0265557    0.0002474   -2.9515659  
C    1.3003056    0.0000124   -2.2514965  
O    2.3786810   -0.0000472   -2.8306398  
C    1.2877724   -0.0002804   -0.6895594  
O    2.3539962   -0.0007864   -0.0892010  
C    0.0000000    0.0000000    0.0000000  
H   -2.9384092    0.0006057    0.6389212  
H    0.0296328    0.0004030   -4.0327229  
H   -2.7280457    0.0018691   -3.5742135  
C   -4.7161311    0.0014568   -1.6923295  
C   -5.6747628    0.0019952   -0.7370262  
C   -6.9326485    0.0023443   -1.4679324  
C   -6.5359766    0.0020474   -2.8924446  
N   -5.2378981    0.0014463   -3.0302140  
C   -7.5062977    0.0022144   -3.9524273  
C   -8.8134731    0.0022690   -3.6051117  
O   -9.8251208    0.0024295   -4.4897642  
C   -9.2455270    0.0021957   -2.1763044  
O  -10.4523068    0.0023758   -1.9336060  
C   -8.2310900    0.0020679   -1.1072659  
H   -5.5443950    0.0020476    0.3316557  
H  -10.6319735    0.0024033   -3.9437410  
H   -8.5850041    0.0019027   -0.0850261  
C   -6.0345761   -0.7026468   -5.8752405  
C   -7.0732868    0.0021900   -5.3572054  
C   -7.6630264    0.7445687   -6.4462031  
C   -6.8771323    0.4120525   -7.6497779  
N   -5.9051179   -0.4693262   -7.2359542  
C   -7.1188165    0.9117371   -8.8881673  
C   -8.2267847    1.8390923   -9.0461350  
O   -8.5250069    2.3437212  -10.1207117  
C   -9.0723683    2.2055571   -7.7849857  
O  -10.0074643    2.9854919   -7.9056381  
C   -8.7152505    1.6022911   -6.5034284  
H   -6.5302942    0.6547714   -9.7579487  
H   -9.3058296    1.8610632   -5.6351096  
H   -5.3526431   -1.3727311   -5.3774013  
H   -5.2101245   -0.8813477   -7.8311597  
C    2.4951002    2.0940188    2.9809380  
C    1.9440701    1.6314916    1.8291961  
C    0.8759964    0.7350050    2.2038498  
C    0.8497377    0.7130254    3.6788474  
N    1.8560616    1.5571714    4.0882609  
C   -0.0205033   -0.0168748    4.4215661  
C   -0.9962600   -0.8356168    3.7214979  
O   -1.8224391   -1.5286685    4.3006425  
C   -0.9864710   -0.8277881    2.1595606  
O   -1.8030528   -1.5133726    1.5592035  
C    0.0000000    0.0000000    1.4700000  
H    2.2509283    1.8888011    0.8310761  
H   -0.0229599   -0.0187323    5.5027230  
H    3.3143982    2.7817323    3.1139444  
H    2.0889452    1.7545833    5.0442112  
