64

C   -3.3003122   -0.0165560   -1.4739002  
C   -2.5232480   -0.0126041   -2.6090757  
C   -1.1623054   -0.0055129   -2.1820104  
C   -1.1711743   -0.0057463   -0.7636144  
N   -2.4852076   -0.0105778   -0.3662369  
C    0.0000000    0.0000000    0.0000000  
C    1.2020255    0.0057859   -0.6806470  
O    2.3758985    0.0111895    0.0157760  
C    1.2314490    0.0064920   -2.0955499  
O    2.5054065    0.0129717   -2.6250164  
C    0.0764491    0.0010986   -2.8495191  
H   -2.8919620   -0.0134832   -3.6205313  
H   -2.8035507   -0.0224341    0.5858653  
H    3.0835282    0.0149409   -0.6418800  
H    2.4359729    0.0129836   -3.5845905  
H    0.1304035    0.0019756   -3.9319084  
C   -6.5581266   -0.0348230   -4.4647512  
C   -7.6102847   -0.0393463   -3.5785178  
C   -7.0498508   -0.0358524   -2.2668388  
C   -5.6394028   -0.0288706   -2.4168833  
N   -5.3748187   -0.0303751   -3.7639581  
C   -4.7629912   -0.0236076   -1.3275425  
C   -5.3205775   -0.0251189   -0.0637101  
O   -4.5107559   -0.0198188    1.0350052  
C   -6.7255014   -0.0324280    0.1064437  
O   -7.1254968   -0.0334565    1.4268025  
C   -7.5907042   -0.0378959   -0.9677632  
H   -4.4592075   -0.0159485   -4.1755765  
H   -5.0946849   -0.0222863    1.8046062  
H   -8.0872029   -0.0385070    1.4532517  
H   -8.6623283   -0.0436268   -0.8063069  
H   -6.5581208   -0.0358635   -5.5413006  
C   -9.5832385   -0.7671364   -4.9778795  
C  -10.9358092   -0.5224132   -5.0338118  
C  -11.2370223    0.3935388   -3.9826682  
C  -10.0183313    0.6745589   -3.3135292  
N   -9.0346193   -0.0479290   -3.9419708  
C   -9.9383759    1.5430104   -2.2207403  
C  -11.1099752    2.1388591   -1.7958907  
O  -11.0888070    2.9956674   -0.7336075  
C  -12.3358090    1.8707984   -2.4503312  
O  -13.4132782    2.5407741   -1.9085411  
C  -12.4154757    1.0139491   -3.5282869  
H  -11.6212478   -0.9521589   -5.7440840  
H   -9.0126579    1.7612552   -1.7063295  
H  -11.9985716    3.2943147   -0.6055294  
H  -14.2008277    2.3044781   -2.4080743  
H  -13.3686647    0.8279246   -4.0092277  
H   -8.9666871   -1.3989150   -5.5940614  
C    0.8681109    0.7263879    2.2709268  
C    0.6127770    0.5096195    3.5869401  
C   -0.4920590   -0.4175482    3.6542670  
C   -0.8620974   -0.7254003    2.2596025  
N    0.0000000    0.0000000    1.4700000  
C   -1.8641242   -1.5660088    1.8976294  
C   -2.6293522   -2.2103885    2.9520183  
O   -3.5512764   -2.9839180    2.7283916  
C   -2.2549728   -1.8987399    4.4361073  
O   -2.8923672   -2.4351063    5.3323774  
C   -1.1543735   -0.9755647    4.7012123  
H    1.1382914    0.9492124    4.4159191  
H   -2.1192137   -1.7782617    0.8686553  
H   -0.9013378   -0.7652422    5.7314848  
H    1.6172880    1.3558399    1.8188057  
