58

C    3.5307159   -0.7221708   -6.1352751  
C    4.8709091   -0.5046642   -6.1097991  
C    5.1674321    0.4216284   -7.1769880  
C    3.8809056    0.7281628   -7.8309577  
N    2.9287796    0.0029119   -7.1524612  
C    3.7361663    1.5676717   -8.8873565  
C    4.9269915    2.2121742   -9.4156460  
O    4.9008104    2.9847712  -10.3647022  
C    6.3000564    1.9019116   -8.7387157  
O    7.3095714    2.4383933   -9.1749794  
C    6.3294900    0.9798486   -7.6061139  
H    5.5718100   -0.9432180   -5.4220336  
H    2.7832337    1.7789669   -9.3523122  
H    7.2841215    0.7704825   -7.1428981  
H    2.9321774   -1.3513236   -5.4966766  
C   -0.8287671    0.0000935   -4.7555305  
C    0.4848184    0.0005134   -5.0812188  
C    0.5106014    0.0006415   -6.5358093  
C   -0.9135384    0.0001370   -6.9338159  
N   -1.7033612   -0.0001050   -5.8945040  
C   -1.3181679    0.0001429   -8.3127146  
C   -0.3443510    0.0010199   -9.2513378  
O   -0.5775765    0.0011265  -10.5748356  
C    1.1017796    0.0019175   -8.8813812  
O    1.9341176    0.0025664   -9.7882625  
C    1.4913207    0.0018489   -7.4600497  
H    1.3316906    0.0008020   -4.4164760  
H   -2.3661194   -0.0004384   -8.5748366  
H    0.3072628    0.0018575  -10.9825260  
C    1.0672566   -0.0000698   -0.8321912  
C    0.0000000    0.0000000    0.0000000  
C   -1.1601226   -0.0000736   -0.8778472  
C   -0.5938732   -0.0000770   -2.2438435  
N    0.7113365   -0.0001555   -2.2234123  
C   -1.4286989   -0.0001880   -3.4135239  
C   -2.7683117   -0.0006800   -3.2270522  
O   -3.6653907   -0.0008306   -4.2276967  
C   -3.3702026   -0.0010611   -1.8610771  
O   -4.5974909   -0.0013781   -1.7662957  
C   -2.4926826   -0.0008944   -0.6770655  
H   -4.5324249   -0.0012263   -3.7833950  
H   -2.9677773   -0.0012975    0.2947963  
H    2.1134390   -0.0000546   -0.5705121  
C    2.5128556    2.1077716    2.9199648  
C    1.9592212    1.6432552    4.0696553  
C    0.8915788    0.7479214    3.6910360  
C    0.8684491    0.7287414    2.2159470  
N    1.8754542    1.5738793    1.8102719  
C    0.0000000    0.0000000    1.4700000  
C   -0.9772830   -0.8200135    2.1664417  
O   -1.8021297   -1.5120829    1.5842315  
C   -0.9711318   -0.8147624    3.7284083  
O   -1.7894187   -1.5009653    4.3257297  
C    0.0140216    0.0115358    4.4216297  
H    2.2638494    1.8988021    5.0689105  
H    0.0117648    0.0094386    5.5031631  
H    3.3327358    2.7953732    2.7900019  
H    2.1123206    1.7707734    0.8551938  
