62

C    1.1243408    0.0100056   -0.7919008  
C    0.7474067    0.0234632   -2.1148548  
C   -0.6787390    0.0234407   -2.1414700  
C   -1.1201747    0.0098459   -0.7935548  
N    0.0000000    0.0000000    0.0000000  
C   -2.4730819    0.0063413   -0.4408237  
C   -3.3971961    0.0170574   -1.4675059  
O   -4.7313524    0.0145692   -1.1793460  
C   -2.9763661    0.0303149   -2.8186318  
O   -4.0166491    0.0394637   -3.7247618  
C   -1.6418573    0.0335064   -3.1673481  
H   -2.8160162   -0.0041448    0.5845969  
H   -5.1938829    0.0230244   -2.0274372  
H   -3.6464693    0.0481856   -4.6127338  
H   -1.3497485    0.0435706   -4.2109230  
H    2.1062463    0.0053069   -0.3505414  
C    4.6035529   -2.0932529   -2.9144229  
C    3.4418015   -1.6363687   -2.3364458  
C    2.8380886   -0.7400636   -3.2674499  
C    3.6839049   -0.6895631   -4.4049781  
N    4.7475347   -1.5212494   -4.1567713  
C    3.3988640    0.0972320   -5.5250200  
C    2.2386904    0.8464661   -5.4963344  
O    1.9119637    1.6320618   -6.5636212  
C    1.3821852    0.8096665   -4.3703401  
O    0.2664555    1.6116303   -4.4942146  
C    1.6628938    0.0339099   -3.2649306  
H    3.0751949   -1.9140038   -1.3630436  
H    5.5069137   -1.6969031   -4.7895987  
H    1.0769086    2.0631860   -6.3398370  
H   -0.2581469    1.5289153   -3.6919962  
H    5.3415862   -2.7807890   -2.5381780  
C    4.9258928   -0.9269980   -7.2735912  
C    5.6537119   -0.5445167   -8.3543606  
C    5.4638109    0.8786142   -8.5075644  
C    4.5592337    1.2968880   -7.4196405  
N    4.2697642    0.1556561   -6.7078213  
C    4.1362353    2.5705624   -7.2183186  
C    4.6028613    3.5979825   -8.1343988  
O    4.2785577    4.7742785   -8.0371564  
C    5.5612434    3.1775647   -9.2939492  
O    5.9604089    4.0337872  -10.0716446  
C    5.9474317    1.7734265   -9.4084306  
H    6.2548487   -1.1861300   -8.9736986  
H    3.4726535    2.8562430   -6.4139833  
H    6.6114597    1.4905955  -10.2139103  
H    4.8134745   -1.9087337   -6.8429565  
C    0.8681109    0.7263879    2.2709268  
C    0.6127770    0.5096195    3.5869401  
C   -0.4920590   -0.4175482    3.6542670  
C   -0.8620974   -0.7254003    2.2596025  
N    0.0000000    0.0000000    1.4700000  
C   -1.8641242   -1.5660088    1.8976294  
C   -2.6293522   -2.2103885    2.9520183  
O   -3.5512764   -2.9839180    2.7283916  
C   -2.2549728   -1.8987399    4.4361073  
O   -2.8923672   -2.4351063    5.3323774  
C   -1.1543735   -0.9755647    4.7012123  
H    1.1382914    0.9492124    4.4159191  
H   -2.1192137   -1.7782617    0.8686553  
H   -0.9013378   -0.7652422    5.7314848  
H    1.6172880    1.3558399    1.8188057  
