62

C   -3.3041217    0.0051088   -1.5420451  
C   -2.5845325    0.0045662   -0.3695870  
C   -1.2039985    0.0019052   -0.7283598  
C   -1.1422349    0.0012031   -2.1454380  
N   -2.4348624    0.0012406   -2.6077480  
C    0.0655197   -0.0009835   -2.8497916  
C    1.2321764   -0.0021816   -2.1101391  
O    2.4392806   -0.0039733   -2.7472503  
C    1.1911205   -0.0018834   -0.6955255  
O    2.4371509   -0.0036231   -0.1032844  
C    0.0000000    0.0000000    0.0000000  
H   -3.0031496    0.0048165    0.6222562  
H   -2.7054453    0.0113894   -3.5745279  
H    0.1193554   -0.0016733   -3.9297471  
H    3.1132970   -0.0048599   -2.0551764  
H    2.3200262   -0.0032628    0.8516425  
C   -4.7577148    0.0070129   -1.7610490  
C   -5.7406963    0.0099224   -0.8308242  
C   -6.9792855    0.0106665   -1.5939733  
C   -6.5459583    0.0079798   -3.0077640  
N   -5.2447563    0.0057500   -3.1119615  
C   -7.4885808    0.0077724   -4.0924525  
C   -8.8042887    0.0097526   -3.7790131  
O   -9.7927519    0.0098246   -4.6894975  
C   -9.2730965    0.0121144   -2.3618418  
O  -10.4857415    0.0139654   -2.1503922  
C   -8.2866077    0.0123244   -1.2669615  
H   -5.6379708    0.0112929    0.2408672  
H  -10.6134361    0.0114409   -4.1644952  
H   -8.6668032    0.0139510   -0.2542038  
C   -7.0194360    0.0053448   -5.4855776  
C   -5.7394556    0.0019024   -5.9896672  
C   -5.8519751    0.0001508   -7.4116152  
C   -7.2365635    0.0029663   -7.7195660  
N   -7.9172175    0.0041333   -6.5273720  
C   -7.7194974    0.0025444   -9.0316491  
C   -6.7877240   -0.0004733  -10.0514360  
O   -7.2045587   -0.0006672  -11.3511520  
C   -5.4019517   -0.0036863   -9.7643051  
O   -4.6014890   -0.0068787  -10.8879569  
C   -4.9248102   -0.0035454   -8.4701407  
H   -4.8358204   -0.0003145   -5.4044914  
H   -8.9163432    0.0166777   -6.4295344  
H   -8.7735130    0.0045355   -9.2730012  
H   -6.4055484   -0.0032621  -11.8941448  
H   -3.6816241   -0.0088898  -10.6060911  
H   -3.8576880   -0.0062350   -8.2811410  
C    0.8400945    0.7047457    2.2710304  
C    0.0000000    0.0000000    1.4700000  
C   -0.8844236   -0.7423113    2.3369512  
C   -0.4878984   -0.4098547    3.7186280  
N    0.5629682    0.4714286    3.6095011  
C   -1.0836927   -0.9095027    4.8308716  
C   -2.1891196   -1.8367527    4.6554461  
O   -2.7906899   -2.3413415    5.5944904  
C   -2.6257283   -2.2031529    3.2011665  
O   -3.5549479   -2.9829990    3.0410059  
C   -1.9068976   -1.5999348    2.0816745  
H   -0.7774656   -0.6525820    5.8354244  
H   -2.2155208   -1.8586617    1.0779135  
H    1.6384792    1.3747609    1.9961646  
H    1.0518368    0.8833920    4.3830260  
