62

C   -3.3003284   -0.0132753   -1.4738976  
C   -2.5232619   -0.0100960   -2.6090741  
C   -1.1623133   -0.0043576   -2.1820095  
C   -1.1711796   -0.0045821   -0.7636135  
N   -2.4852176   -0.0081074   -0.3662350  
C    0.0000000    0.0000000    0.0000000  
C    1.2020289    0.0045909   -0.6806481  
O    2.3759077    0.0088277    0.0157742  
C    1.2314530    0.0052677   -2.0955513  
O    2.5054160    0.0104809   -2.6250183  
C    0.0764466    0.0010224   -2.8495191  
H   -2.8919774   -0.0106086   -3.6205293  
H   -2.8035713   -0.0196472    0.5858673  
H    3.0835406    0.0118757   -0.6418825  
H    2.4359807    0.0105618   -3.5845921  
H    0.1304027    0.0018456   -3.9319086  
C   -5.6708102   -0.0220601   -2.3611548  
C   -4.7630138   -0.0188731   -1.3275388  
C   -5.5133116   -0.0203130   -0.1144228  
C   -6.8854705   -0.0247226   -0.4737104  
N   -6.9456207   -0.0237281   -1.8452054  
C   -7.9149459   -0.0274972    0.4723137  
C   -7.5526339   -0.0260965    1.8053202  
O   -8.5176702   -0.0290281    2.7705720  
C   -6.1889440   -0.0213342    2.1836645  
O   -5.9909051   -0.0200734    3.5489934  
C   -5.1728145   -0.0183216    1.2509277  
H   -7.7894045   -0.0367212   -2.3891184  
H   -8.0553978   -0.0270931    3.6188440  
H   -5.0439614   -0.0168339    3.7189671  
H   -4.1373787   -0.0145095    1.5708280  
H   -5.5098161   -0.0218296   -3.4255986  
C   -9.3392994   -0.0318745    0.1088600  
C   -9.9081159   -0.0340924   -1.1242327  
C  -11.3386047   -0.0382081   -0.9279702  
C  -11.5581268   -0.0381770    0.5310021  
N  -10.3065732   -0.0346469    1.1023960  
C  -12.7783452   -0.0410935    1.1249396  
C  -13.9539060   -0.0447160    0.2702001  
O  -15.0965642   -0.0475748    0.7090886  
C  -13.7449863   -0.0450672   -1.2777526  
O  -14.7272120   -0.0484096   -2.0074673  
C  -12.3807044   -0.0414437   -1.7998387  
H   -9.3852753   -0.0331553   -2.0640468  
H  -12.9174030   -0.0408827    2.1971209  
H  -12.2446516   -0.0415070   -2.8727851  
H  -10.1239656   -0.0321982    2.0891565  
C    0.8681109    0.7263879    2.2709268  
C    0.6127770    0.5096195    3.5869401  
C   -0.4920590   -0.4175482    3.6542670  
C   -0.8620974   -0.7254003    2.2596025  
N    0.0000000    0.0000000    1.4700000  
C   -1.8641242   -1.5660088    1.8976294  
C   -2.6293522   -2.2103885    2.9520183  
O   -3.5512764   -2.9839180    2.7283916  
C   -2.2549728   -1.8987399    4.4361073  
O   -2.8923672   -2.4351063    5.3323774  
C   -1.1543735   -0.9755647    4.7012123  
H    1.1382914    0.9492124    4.4159191  
H   -2.1192137   -1.7782617    0.8686553  
H   -0.9013378   -0.7652422    5.7314848  
H    1.6172880    1.3558399    1.8188057  
