58

C   -3.2798029    0.0063919   -1.4499639  
C   -2.5571108    0.0048836   -2.5996547  
C   -1.1637416    0.0023210   -2.2210357  
C   -1.1336939    0.0024319   -0.7459466  
N   -2.4483458    0.0053516   -0.3402715  
C    0.0000000    0.0000000    0.0000000  
C    1.2757346   -0.0026954   -0.6964421  
O    2.3524543   -0.0049407   -0.1142321  
C    1.2676459   -0.0026095   -2.2584085  
O    2.3355707   -0.0045586   -2.8557302  
C   -0.0181573   -0.0001372   -2.9516295  
H   -2.9547309    0.0056785   -3.5989099  
H   -0.0150808   -0.0002997   -4.0331627  
H   -2.7563593    0.0045817    0.6148069  
C   -5.6938737    0.0108177   -2.2318610  
C   -4.7390768    0.0091207   -1.2727267  
C   -5.4706431    0.0104355   -0.0152260  
C   -6.8949440    0.0130857   -0.4126470  
N   -7.0320304    0.0132408   -1.7107983  
C   -7.9554355    0.0149724    0.5571164  
C   -7.6088093    0.0138557    1.8644737  
O   -8.4939924    0.0153761    2.8756557  
C   -6.1802327    0.0108136    2.2972787  
O   -5.9381702    0.0100655    3.5041863  
C   -5.1106619    0.0089649    1.2834049  
H   -7.9483958    0.0139753    3.6827956  
H   -4.0886110    0.0066589    1.6378569  
H   -5.5602417    0.0105648   -3.3019615  
C   -9.8788540   -0.6855590   -0.9158817  
C   -9.3599822    0.0178700    0.1233660  
C  -10.4478300    0.7621663    0.7128109  
C  -11.6516421    0.4323094   -0.0738423  
N  -11.2390381   -0.4495171   -1.0459686  
C  -12.8891749    0.9343358    0.1673779  
C  -13.0459036    1.8615851    1.2756109  
O  -14.1196439    2.3682126    1.5734565  
C  -11.7844831    2.2252549    2.1219950  
O  -11.9040956    3.0050755    3.0573204  
C  -10.5039257    1.6196058    1.7653261  
H  -13.7591489    0.6792996   -0.4216990  
H   -9.6354114    1.8764505    2.3564593  
H   -9.3819725   -1.3563653   -1.5978037  
H  -11.8346859   -0.8601083   -1.7414297  
C    2.4951002    2.0940188    2.9809380  
C    1.9440701    1.6314916    1.8291961  
C    0.8759964    0.7350050    2.2038498  
C    0.8497377    0.7130254    3.6788474  
N    1.8560616    1.5571714    4.0882609  
C   -0.0205033   -0.0168748    4.4215661  
C   -0.9962600   -0.8356168    3.7214979  
O   -1.8224391   -1.5286685    4.3006425  
C   -0.9864710   -0.8277881    2.1595606  
O   -1.8030528   -1.5133726    1.5592035  
C    0.0000000    0.0000000    1.4700000  
H    2.2509283    1.8888011    0.8310761  
H   -0.0229599   -0.0187323    5.5027230  
H    3.3143982    2.7817323    3.1139444  
H    2.0889452    1.7545833    5.0442112  
