58

C    6.6174604   -0.0017047    1.3537077  
C    5.3857487   -0.0012517    0.7819026  
C    5.5854744   -0.0008503   -0.6481130  
C    7.0449748   -0.0011376   -0.8640996  
N    7.6133356   -0.0012547    0.3888392  
C    7.6418654   -0.0012958   -2.0828799  
C    6.7899755   -0.0009488   -3.2605124  
O    7.2316300   -0.0009950   -4.4021091  
C    5.2415210   -0.0003889   -3.0553448  
O    4.5141870    0.0002132   -4.0393394  
C    4.7161325   -0.0005435   -1.6923264  
H    4.4446705   -0.0010218    1.3024658  
H    8.7143807   -0.0016363   -2.2193396  
H    6.8814402   -0.0021124    2.3987941  
C   10.0163799   -2.1141508    3.3962278  
C   11.2492237   -1.6516365    3.0641872  
C   11.0754531   -0.7556305    1.9453428  
C    9.6299467   -0.7338744    1.6506777  
N    9.0441316   -1.5783143    2.5653539  
C    9.0581380   -0.0038216    0.6598388  
C    9.9242119    0.8149858   -0.1720284  
O    9.5052323    1.5080802   -1.0898393  
C   11.4582619    0.8070071    0.1219697  
O   12.1973749    1.4921753   -0.5719447  
C   11.9565669   -0.0205117    1.2177598  
H   12.1747532   -1.9089313    3.5477255  
H   13.0199810   -0.0203031    1.4149273  
H    9.7363186   -2.8015338    4.1778671  
H    8.0614202   -1.7735432    2.6220225  
C    3.2573665   -0.0002920   -1.5109385  
C    2.5379463   -0.0001709   -0.3591964  
C    1.1435038    0.0000331   -0.7338500  
C    1.1092599   -0.0000083   -2.2088477  
N    2.4227553    0.0001909   -2.6182613  
C   -0.0265539   -0.0002524   -2.9515660  
C   -1.3003040   -0.0002640   -2.2514977  
O   -2.3786790   -0.0004133   -2.8306421  
C   -1.2877727    0.0000311   -0.6895603  
O   -2.3539959    0.0003306   -0.0892030  
C    0.0000000    0.0000000    0.0000000  
H    2.9384091   -0.0000367    0.6389234  
H   -0.0296303   -0.0004086   -4.0327229  
H    2.7280482   -0.0013407   -3.5742119  
C    0.8400945    0.7047457    2.2710304  
C    0.0000000    0.0000000    1.4700000  
C   -0.8844236   -0.7423113    2.3369512  
C   -0.4878984   -0.4098547    3.7186280  
N    0.5629682    0.4714286    3.6095011  
C   -1.0836927   -0.9095027    4.8308716  
C   -2.1891196   -1.8367527    4.6554461  
O   -2.7906899   -2.3413415    5.5944904  
C   -2.6257283   -2.2031529    3.2011665  
O   -3.5549479   -2.9829990    3.0410059  
C   -1.9068976   -1.5999348    2.0816745  
H   -0.7774656   -0.6525820    5.8354244  
H   -2.2155208   -1.8586617    1.0779135  
H    1.6384792    1.3747609    1.9961646  
H    1.0518368    0.8833920    4.3830260  
