62

C    3.3003556    0.0005278   -1.4738969  
C    2.5232829    0.0003498   -2.6090736  
C    1.1623214   -0.0001319   -2.1820097  
C    1.1711891    0.0000583   -0.7636137  
N    2.4852304   -0.0014917   -0.3662349  
C    0.0000000    0.0000000    0.0000000  
C   -1.2020379    0.0000520   -0.6806491  
O   -2.3759246    0.0003493    0.0157727  
C   -1.2314644   -0.0005114   -2.0955516  
O   -2.5054374   -0.0008038   -2.6250197  
C   -0.0764500   -0.0007274   -2.8495198  
H    2.8036263    0.0088183    0.5858680  
H   -3.0835634    0.0000347   -0.6418833  
H   -2.4360026   -0.0011530   -3.5845937  
H   -0.1304071   -0.0013423   -3.9319090  
H    4.3715559    0.0004896   -1.3667114  
C    4.1182210   -0.7098244   -4.4345216  
C    4.3063944   -0.4605392   -5.7742659  
C    3.2826566    0.4475819   -6.1766054  
C    2.4931742    0.7193450   -5.0299630  
N    3.0267457   -0.0008949   -3.9901686  
C    1.3904705    1.5784645   -5.0572791  
C    1.0792543    2.1743282   -6.2640387  
O    0.0128541    3.0222361   -6.3468391  
C    1.8547116    1.9154236   -7.4192236  
O    1.4171383    2.5841561   -8.5437986  
C    2.9425287    1.0677818   -7.3930715  
H    5.0850042   -0.8823008   -6.3865374  
H    0.7846369    1.7896267   -4.1868896  
H   -0.0265938    3.3225737   -7.2641756  
H    1.9945726    2.3544006   -9.2782281  
H    4.6753602   -1.3383448   -3.7610850  
C    4.7833174   -2.5740389   -9.0798042  
C    4.1150437   -1.6881446   -8.2970689  
C    4.2029225   -0.4019707   -8.9473523  
C    4.9827411   -0.6126860  -10.1819677  
N    5.3047522   -1.9501297  -10.2030069  
C    5.2861242    0.3625344  -11.0756159  
C    4.8132267    1.7096355  -10.8031815  
O    5.0344787    2.6563839  -11.5468321  
C    3.9857661    1.9557613   -9.5014378  
O    3.5825638    3.0858169   -9.2613065  
C    3.7224577    0.8247963   -8.6151878  
H    3.6174880   -1.9102758   -7.3698632  
H    5.8593707    0.1867662  -11.9752855  
H    4.9389323   -3.6301553   -8.9304983  
H    5.8349700   -2.4035828  -10.9243234  
C    2.4951002    2.0940188    2.9809380  
C    1.9440701    1.6314916    1.8291961  
C    0.8759964    0.7350050    2.2038498  
C    0.8497377    0.7130254    3.6788474  
N    1.8560616    1.5571714    4.0882609  
C   -0.0205033   -0.0168748    4.4215661  
C   -0.9962600   -0.8356168    3.7214979  
O   -1.8224391   -1.5286685    4.3006425  
C   -0.9864710   -0.8277881    2.1595606  
O   -1.8030528   -1.5133726    1.5592035  
C    0.0000000    0.0000000    1.4700000  
H    2.2509283    1.8888011    0.8310761  
H   -0.0229599   -0.0187323    5.5027230  
H    3.3143982    2.7817323    3.1139444  
H    2.0889452    1.7545833    5.0442112  
