60

C    3.3003547    0.0005277   -1.4738976  
C    2.5232818    0.0003497   -2.6090741  
C    1.1623205   -0.0001319   -2.1820095  
C    1.1711886    0.0000584   -0.7636136  
N    2.4852303   -0.0014921   -0.3662351  
C    0.0000000    0.0000000    0.0000000  
C   -1.2020383    0.0000520   -0.6806481  
O   -2.3759245    0.0003494    0.0157732  
C   -1.2314652   -0.0005114   -2.0955510  
O   -2.5054381   -0.0008038   -2.6250186  
C   -0.0764511   -0.0007273   -2.8495193  
H    2.8036264    0.0088183    0.5858669  
H   -3.0835640    0.0000346   -0.6418817  
H   -2.4360037   -0.0011529   -3.5845927  
H   -0.1304086   -0.0013423   -3.9319085  
H    4.3715551    0.0004897   -1.3667123  
C    4.1171240   -0.7271063   -4.4445137  
C    4.3278184   -0.5117039   -5.7686301  
C    3.3122727    0.4143186   -6.2113315  
C    2.4867578    0.7229873   -5.0280991  
N    3.0267443   -0.0008952   -3.9901693  
C    1.4208267    1.5629154   -5.0321547  
C    1.0625890    2.2056486   -6.2855879  
O    0.1193413    2.9784593   -6.3921131  
C    1.9228120    1.8931118   -7.5513456  
O    1.6305913    2.4280914   -8.6123193  
C    3.0482302    0.9707961   -7.4224269  
H    5.1057476   -0.9514812   -6.3669915  
H    0.8286153    1.7757885   -4.1530188  
H    4.6665438   -1.3554376   -3.7624376  
C    3.8511299    0.6840838   -8.6199447  
C    4.9263226   -0.1308239   -8.7270172  
C    5.3259028   -0.0430836  -10.1231323  
C    4.3564478    0.8941260  -10.7300747  
N    3.4895734    1.3237498   -9.8537515  
C    4.4118432    1.2511134  -12.1209659  
C    5.3914378    0.6973156  -12.8713225  
O    5.5615779    0.9409977  -14.1819376  
C    6.3850299   -0.2516228  -12.2878396  
O    7.2495834   -0.7175526  -13.0299161  
C    6.3071401   -0.6020633  -10.8584871  
H    5.3909568   -0.7187850   -7.9540406  
H    3.6903091    1.9383958  -12.5380288  
H    6.3353079    0.4058908  -14.4352262  
H    7.0455809   -1.2929346  -10.4742584  
C    2.4951002    2.0940188    2.9809380  
C    1.9440701    1.6314916    1.8291961  
C    0.8759964    0.7350050    2.2038498  
C    0.8497377    0.7130254    3.6788474  
N    1.8560616    1.5571714    4.0882609  
C   -0.0205033   -0.0168748    4.4215661  
C   -0.9962600   -0.8356168    3.7214979  
O   -1.8224391   -1.5286685    4.3006425  
C   -0.9864710   -0.8277881    2.1595606  
O   -1.8030528   -1.5133726    1.5592035  
C    0.0000000    0.0000000    1.4700000  
H    2.2509283    1.8888011    0.8310761  
H   -0.0229599   -0.0187323    5.5027230  
H    3.3143982    2.7817323    3.1139444  
H    2.0889452    1.7545833    5.0442112  
