58

C    0.3445018   -0.0471761   -8.8023151  
C    1.3636817   -0.7039578   -9.4138581  
C    1.3345275   -0.3230912  -10.8063116  
C    0.2067505    0.6161741  -10.9569445  
N   -0.3521935    0.7407188   -9.7059617  
C   -0.1531907    1.2042911  -12.1258187  
C    0.6217473    0.8911306  -13.3149106  
O    0.3768535    1.3695015  -14.4146767  
C    1.8202524   -0.1012502  -13.1786364  
O    2.4797763   -0.3727281  -14.1729151  
C    2.1112574   -0.6710552  -11.8654381  
H    2.0566843   -1.3784184   -8.9432599  
H   -0.9838534    1.8905947  -12.2146839  
H    2.9428799   -1.3571643  -11.7795178  
H   -1.1430270    1.3169468   -9.4832717  
C    1.7744463   -2.1336760   -5.1326807  
C    1.6746907   -1.7240763   -6.4187040  
C    0.5405885   -0.8130121   -6.4352720  
C    0.0614875   -0.7888182   -5.0365367  
N    0.7809200   -1.5609931   -4.2683222  
C   -1.0641734    0.0073898   -4.6315339  
C   -1.6828407    0.7461571   -5.5806432  
O   -2.7449527    1.5348085   -5.3440237  
C   -1.2228402    0.7432051   -7.0006960  
O   -1.8334830    1.4397968   -7.8113106  
C   -0.0658191   -0.0818757   -7.3911694  
H    2.2942506   -2.0053653   -7.2530286  
H   -2.9590926    1.9284667   -6.2090847  
H    2.4922211   -2.8167589   -4.7070391  
C    1.1319248    0.0015675   -0.8009270  
C    0.7969916    0.0034959   -2.1169404  
C   -0.6453336    0.0035703   -2.1842672  
C   -1.1266831    0.0015415   -0.7896027  
N    0.0000000    0.0000000    0.0000000  
C   -2.4346129    0.0013924   -0.4276297  
C   -3.4350110    0.0031352   -1.4820184  
O   -4.6384610    0.0030897   -1.2583919  
C   -2.9478958    0.0050460   -2.9661075  
O   -3.7809377    0.0062160   -3.8623775  
C   -1.5113821    0.0053068   -3.2312125  
H    1.4821240    0.0045436   -2.9459192  
H   -2.7664565    0.0000185    0.6013447  
H    2.1104318    0.0009428   -0.3488058  
C    0.8681109    0.7263879    2.2709268  
C    0.6127770    0.5096195    3.5869401  
C   -0.4920590   -0.4175482    3.6542670  
C   -0.8620974   -0.7254003    2.2596025  
N    0.0000000    0.0000000    1.4700000  
C   -1.8641242   -1.5660088    1.8976294  
C   -2.6293522   -2.2103885    2.9520183  
O   -3.5512764   -2.9839180    2.7283916  
C   -2.2549728   -1.8987399    4.4361073  
O   -2.8923672   -2.4351063    5.3323774  
C   -1.1543735   -0.9755647    4.7012123  
H    1.1382914    0.9492124    4.4159191  
H   -2.1192137   -1.7782617    0.8686553  
H   -0.9013378   -0.7652422    5.7314848  
H    1.6172880    1.3558399    1.8188057  
