58

C   -3.2941079    0.0012875   -2.9038234  
C   -4.0168013    0.0014139   -1.7541324  
C   -5.4101729    0.0018622   -2.1327515  
C   -5.4402200    0.0019584   -3.6078406  
N   -4.1255655    0.0019957   -4.0135161  
C   -6.5739167    0.0019524   -4.3537873  
C   -7.8496529    0.0020704   -3.6573456  
O   -8.9263771    0.0021360   -4.2395554  
C   -7.8415656    0.0022236   -2.0953789  
O   -8.9094933    0.0026303   -1.4980570  
C   -6.5557599    0.0019361   -1.4021574  
H   -3.6191807    0.0013981   -0.7548775  
H   -6.5739171    0.0018936   -5.4349490  
H   -6.5588367    0.0018391   -0.3206244  
H   -3.8175543    0.0005037   -4.9685941  
C    0.0000000    0.0000000    0.0000000  
C    1.0541686   -0.0001722   -0.8560393  
C    0.5103131   -0.0000453   -2.1935957  
C   -0.9576377    0.0002459   -2.0455727  
N   -1.2018463   -0.0001391   -0.6915965  
C   -1.8348318    0.0008318   -3.0810604  
C   -1.2972856    0.0009738   -4.4314602  
O   -2.0050684    0.0014267   -5.4301314  
C    0.2542612    0.0004186   -4.6117571  
O    0.7184659    0.0002259   -5.7439120  
C    1.0974545    0.0000875   -3.4189131  
H    2.0940750   -0.0005483   -0.5817985  
H   -2.1128195    0.0014912   -0.2706785  
C    4.3047784   -2.1086508   -1.2859256  
C    5.3774554   -1.6442174   -1.9771133  
C    4.8701574   -0.7486150   -2.9897243  
C    3.4034907   -0.7291871   -2.8306583  
N    3.1250150   -1.5744524   -1.7814359  
C    2.5562205   -0.0001551   -3.6003010  
C    3.1269037    0.8199321   -4.6559110  
O    2.4474923    1.5122567   -5.4024954  
C    4.6776918    0.8144221   -4.8425437  
O    5.1696062    1.5006843   -5.7281650  
C    5.4870218   -0.0121806   -3.9505994  
H    6.4066152   -1.8999879   -1.7981581  
H    6.5600119   -0.0102614   -4.0862925  
H    4.2768473   -2.7963891   -0.4563921  
H    2.2064265   -1.7712347   -1.4285632  
C    1.0672568    0.0000697    2.3021913  
C    0.0000000    0.0000000    1.4700000  
C   -1.1601224    0.0000736    2.3478473  
C   -0.5938729    0.0000769    3.7138435  
N    0.7113367    0.0001554    3.6934124  
C   -1.4286986    0.0001879    4.8835240  
C   -2.7683114    0.0006799    4.6970523  
O   -3.6653903    0.0008304    5.6976972  
C   -3.3702025    0.0010610    3.3310774  
O   -4.5974910    0.0013779    3.2362962  
C   -2.4926826    0.0008943    2.1470656  
H   -0.9878360   -0.0000190    5.8697035  
H   -4.5324246    0.0012261    5.2533954  
H   -2.9677772    0.0012974    1.1752040  
H    2.1134392    0.0000545    2.0405121  
