60

C    1.1188648    0.0008224   -0.8003808  
C    0.0000000    0.0000000    0.0000000  
C   -1.1323856    0.0008899   -0.8673532  
C   -0.6382652    0.0019680   -2.1969285  
N    0.7324026    0.0038481   -2.1202240  
C   -1.4770902    0.0027317   -3.3154818  
C   -2.8395465    0.0020943   -3.0876868  
O   -3.7039183    0.0024421   -4.1440356  
C   -3.3517865    0.0013928   -1.7684340  
O   -4.7300494    0.0012365   -1.7073132  
C   -2.5248539    0.0009123   -0.6644827  
H   -1.1067556    0.0036988   -4.3313817  
H   -4.5940018    0.0021826   -3.7685147  
H   -4.9934600    0.0007259   -0.7819928  
H   -2.9462579    0.0005602    0.3339648  
H    2.1619897    0.0009357   -0.5342064  
C    4.5412320   -2.0990433   -2.8732831  
C    3.3927961   -1.6299051   -2.3209426  
C    2.7903289   -0.7451819   -3.2900315  
C    3.6883355   -0.7373099   -4.4606351  
N    4.7307599   -1.5775599   -4.1440598  
C    3.4698875   -0.0211181   -5.5924718  
C    2.2703767    0.7967037   -5.6623070  
O    1.9845423    1.4779284   -6.6382848  
C    1.3053409    0.8036751   -4.4341124  
O    0.2924819    1.4886261   -4.4812232  
C    1.6478447   -0.0100098   -3.2702996  
H    3.0113381   -1.8754402   -1.3458448  
H    5.2651738   -2.7816968   -2.4588164  
H    5.5083129   -1.7821891   -4.7445478  
C    5.0460133   -1.0884669   -7.2704819  
C    4.3827122   -0.0324764   -6.7446536  
C    4.7684261    1.1015998   -7.5702411  
C    5.6944405    0.5341909   -8.5737992  
N    5.8609657   -0.7492176   -8.4031492  
C    6.3060254    1.3461063   -9.5895964  
C    6.0058546    2.6648427   -9.6025019  
O    6.5038924    3.5392772  -10.4932110  
C    5.0746610    3.2672320   -8.6034186  
O    4.8469899    4.4748308   -8.6747720  
C    4.4600837    2.4134514   -7.5712944  
H    6.9791254    0.9049765  -10.3101868  
H    6.1086006    4.3952860  -10.2479645  
H    3.7910218    2.8880990   -6.8661033  
H    5.0272254   -2.1152653   -6.9413831  
C    2.4951002    2.0940188    2.9809380  
C    1.9440701    1.6314916    1.8291961  
C    0.8759964    0.7350050    2.2038498  
C    0.8497377    0.7130254    3.6788474  
N    1.8560616    1.5571714    4.0882609  
C   -0.0205033   -0.0168748    4.4215661  
C   -0.9962600   -0.8356168    3.7214979  
O   -1.8224391   -1.5286685    4.3006425  
C   -0.9864710   -0.8277881    2.1595606  
O   -1.8030528   -1.5133726    1.5592035  
C    0.0000000    0.0000000    1.4700000  
H    2.2509283    1.8888011    0.8310761  
H   -0.0229599   -0.0187323    5.5027230  
H    3.3143982    2.7817323    3.1139444  
H    2.0889452    1.7545833    5.0442112  
