58

C   -1.1319149    0.0048922   -0.8009265  
C   -0.7969980    0.0010528   -2.1169402  
C    0.6453036   -0.0072524   -2.1842663  
C    1.1266564   -0.0079710   -0.7896022  
N    0.0000000    0.0000000    0.0000000  
C    2.4345657   -0.0152858   -0.4276284  
C    3.4349378   -0.0227374   -1.4820167  
O    4.6383679   -0.0295596   -1.2583896  
C    2.9478200   -0.0218680   -2.9661066  
O    3.7808417   -0.0277916   -3.8623762  
C    1.5113287   -0.0139311   -3.2312116  
H    2.7664110   -0.0158058    0.6013457  
H    1.1822961   -0.0135856   -4.2614844  
H   -2.1104023    0.0111010   -0.3488058  
C   -1.7334685    0.0049652   -3.2500367  
C   -3.0863065    0.0119124   -3.2131616  
C   -3.4995424    0.0129351   -4.6080581  
C   -2.2333967    0.0059740   -5.3718714  
N   -1.1947553    0.0012003   -4.5811826  
C   -2.2116413    0.0047262   -6.8087469  
C   -3.4007139    0.0097956   -7.4532752  
O   -3.5293448    0.0093407   -8.7909945  
C   -4.6955420    0.0165024   -6.7106204  
O   -5.7397973    0.0210083   -7.3623342  
C   -4.6914271    0.0177012   -5.2368814  
H   -3.7249293    0.0157659   -2.3464311  
H   -1.2717387   -0.0002073   -7.3411643  
H   -4.4909070    0.0137028   -8.9476239  
C   -6.3126928    0.7314306   -3.4418623  
C   -5.9945529    0.0242389   -4.5566459  
C   -7.1757302   -0.7130413   -4.9388426  
C   -8.2155555   -0.3749668   -3.9482573  
N   -7.6285212    0.5044345   -3.0679542  
C   -9.4795128   -0.8688764   -3.9612943  
C   -9.8397538   -1.7954374   -5.0215995  
O  -10.9528684   -2.2950504   -5.1198998  
C   -8.7542700   -2.1677252   -6.0812846  
O   -9.0458326   -2.9470487   -6.9784501  
C   -7.4264811   -1.5704413   -5.9626226  
H  -10.2271542   -0.6078950   -3.2252028  
H   -6.6806590   -1.8332221   -6.7004712  
H   -5.6965307    1.3991623   -2.8618895  
H   -8.0861390    0.9191884   -2.2769972  
C    2.5128556    2.1077716    2.9199648  
C    1.9592212    1.6432552    4.0696553  
C    0.8915788    0.7479214    3.6910360  
C    0.8684491    0.7287414    2.2159470  
N    1.8754542    1.5738793    1.8102719  
C    0.0000000    0.0000000    1.4700000  
C   -0.9772830   -0.8200135    2.1664417  
O   -1.8021297   -1.5120829    1.5842315  
C   -0.9711318   -0.8147624    3.7284083  
O   -1.7894187   -1.5009653    4.3257297  
C    0.0140216    0.0115358    4.4216297  
H    2.2638494    1.8988021    5.0689105  
H    0.0117648    0.0094386    5.5031631  
H    3.3327358    2.7953732    2.7900019  
H    2.1123206    1.7707734    0.8551938  
