58

C    0.0000000    0.0000000    0.0000000  
C   -1.0541690    0.0002347   -0.8560388  
C   -0.5103145    0.0000756   -2.1935955  
C    0.9576362   -0.0003028   -2.0455735  
N    1.2018458    0.0000678   -0.6915972  
C    1.8348305   -0.0009406   -3.0810612  
C    1.2972838   -0.0010507   -4.4314608  
O    2.0050656   -0.0015456   -5.4301322  
C   -0.2542637   -0.0004035   -4.6117572  
O   -0.7184685   -0.0001832   -5.7439117  
C   -1.0974563   -0.0000224   -3.4189127  
H   -2.0940752    0.0006725   -0.5817980  
H    2.9081044   -0.0013394   -2.9507069  
H    2.1128191   -0.0016166   -0.2706796  
C   -2.5562224    0.0003067   -3.6003000  
C   -3.5148531   -0.0003759   -2.6449958  
C   -4.7727389    0.0003772   -3.3759001  
C   -4.3760691    0.0016260   -4.8004126  
N   -3.0779900    0.0015097   -4.9381832  
C   -5.3463911    0.0026062   -5.8603937  
C   -6.6535655    0.0019615   -5.5130773  
O   -7.6652143    0.0027471   -6.3977283  
C   -7.0856176    0.0003288   -4.0842703  
O   -8.2923972   -0.0000578   -3.8415710  
C   -6.0711804   -0.0006095   -3.0152334  
H   -3.3844840   -0.0013691   -1.5763149  
H   -5.0281918    0.0037164   -6.8927006  
H   -8.4720664    0.0019541   -5.8517049  
C   -6.0520843    0.6826886   -0.5714944  
C   -6.5521061   -0.0023663   -1.6261303  
C   -7.6788744   -0.7490459   -1.0882064  
C   -7.7160077   -0.3867102    0.3449435  
N   -6.7648515    0.4523183    0.6536862  
C   -8.7028730   -0.9246203    1.2403962  
C   -9.6115815   -1.7850777    0.7273703  
O  -10.5882194   -2.3627697    1.4474338  
C   -9.6004815   -2.1700281   -0.7147988  
O  -10.4577972   -2.9585311   -1.1129109  
C   -8.5779982   -1.6047012   -1.6130514  
H   -8.7063541   -0.6425860    2.2831590  
H  -11.0705346   -2.9192356    0.8095699  
H   -8.6040923   -1.9086054   -2.6509297  
H   -5.2093900    1.3554399   -0.5558103  
C    1.1319247   -0.0015655    2.2709268  
C    0.7969915   -0.0034943    3.5869401  
C   -0.6453339   -0.0035710    3.6542670  
C   -1.1266833   -0.0015433    2.2596025  
N    0.0000000    0.0000000    1.4700000  
C   -2.4346130   -0.0013964    1.8976294  
C   -3.4350110   -0.0031408    2.9520183  
O   -4.6384611   -0.0030974    2.7283916  
C   -2.9478959   -0.0050506    4.4361073  
O   -3.7809380   -0.0062218    5.3323774  
C   -1.5113823   -0.0053090    4.7012123  
H    1.4821238   -0.0045407    4.4159191  
H   -2.7664565   -0.0000232    0.8686553  
H   -1.1823530   -0.0068408    5.7314848  
H    2.1104316   -0.0009391    1.8188057  
