58

C    3.8532052   -2.0864388   -4.5604396  
C    2.8104960   -1.6256094   -5.2983205  
C    3.3592936   -0.7307829   -6.2897546  
C    4.8176602   -0.7079274   -6.0674136  
N    5.0521199   -1.5500324   -5.0049741  
C    5.6960268    0.0208938   -6.8015782  
C    5.1699217    0.8374675   -7.8827615  
O    5.8796429    1.5294157   -8.6009565  
C    3.6286239    0.8286791   -8.1359968  
O    3.1740581    1.5124397   -9.0432459  
C    2.7831247    0.0022095   -7.2781316  
H    1.7750486   -1.8829987   -5.1633635  
H    6.7621715    0.0234232   -6.6220277  
H    3.8466313   -2.7726160   -3.7291710  
H    5.9552967   -1.7464333   -4.6141466  
C   -0.8712823    0.0001712   -4.7267111  
C    0.4275914    0.0003831   -5.1068516  
C    0.3927415    0.0003241   -6.5612532  
C   -1.0467458   -0.0000497   -6.8995724  
N   -1.7925759   -0.0000601   -5.8282523  
C   -1.5084807   -0.0001666   -8.2604132  
C   -0.5746200    0.0004680   -9.2387986  
O   -0.8627916    0.0004371  -10.5514290  
C    0.8856696    0.0012287   -8.9294207  
O    1.6794965    0.0016573   -9.8701967  
C    1.3340974    0.0012902   -7.5255561  
H    1.3014270    0.0006481   -4.4779741  
H   -2.5664444   -0.0006479   -8.4786409  
H    0.0042919    0.0010042  -10.9956352  
C    1.0965515    0.0001358   -0.8010304  
C    0.0000000    0.0000000    0.0000000  
C   -1.1546562    0.0001470   -0.8669514  
C   -0.6372012    0.0003520   -2.2486282  
N    0.7342873    0.0007338   -2.1395014  
C   -1.4147737    0.0001354   -3.3608717  
C   -2.8576047   -0.0001047   -3.1854463  
O   -3.6427778   -0.0002491   -4.1244908  
C   -3.4275837   -0.0000725   -1.7311667  
O   -4.6406828    0.0000333   -1.5710061  
C   -2.4891866   -0.0001090   -0.6116745  
H   -2.8919121   -0.0002919    0.3920865  
H    2.1388272    0.0000662   -0.5261647  
H    1.3735873   -0.0006098   -2.9130261  
C    2.5128556    2.1077716    2.9199648  
C    1.9592212    1.6432552    4.0696553  
C    0.8915788    0.7479214    3.6910360  
C    0.8684491    0.7287414    2.2159470  
N    1.8754542    1.5738793    1.8102719  
C    0.0000000    0.0000000    1.4700000  
C   -0.9772830   -0.8200135    2.1664417  
O   -1.8021297   -1.5120829    1.5842315  
C   -0.9711318   -0.8147624    3.7284083  
O   -1.7894187   -1.5009653    4.3257297  
C    0.0140216    0.0115358    4.4216297  
H    2.2638494    1.8988021    5.0689105  
H    0.0117648    0.0094386    5.5031631  
H    3.3327358    2.7953732    2.7900019  
H    2.1123206    1.7707734    0.8551938  
