58

C    1.1319245    0.0015678   -0.8009267  
C    0.7969910    0.0034958   -2.1169399  
C   -0.6453341    0.0035697   -2.1842670  
C   -1.1266835    0.0015411   -0.7896024  
N    0.0000000    0.0000000    0.0000000  
C   -2.4346131    0.0013918   -0.4276289  
C   -3.4350111    0.0031343   -1.4820175  
O   -4.6384613    0.0030887   -1.2583912  
C   -2.9478961    0.0050449   -2.9661070  
O   -3.7809384    0.0062147   -3.8623772  
C   -1.5113831    0.0053060   -3.2312120  
H   -2.7664565    0.0000180    0.6013454  
H   -1.1823539    0.0068384   -4.2614847  
H    2.1104313    0.0009432   -0.3488057  
C    4.6689256   -2.0036412   -3.0356157  
C    3.5435025   -1.6233429   -2.3872520  
C    2.8771267   -0.7061849   -3.2989891  
C    3.7631655   -0.6465941   -4.4813459  
N    4.8150682   -1.4051578   -4.3327803  
C    3.4517402    0.1654320   -5.6253365  
C    2.3069985    0.8849094   -5.5899294  
O    1.8922493    1.6850223   -6.5868466  
C    1.3918761    0.8455848   -4.4113009  
O    0.3669542    1.5263381   -4.4477807  
C    1.7334690    0.0049280   -3.2500365  
H    3.2070445   -1.9276896   -1.4109095  
H    1.0501682    2.0591464   -6.2704866  
H    5.4354486   -2.6809480   -2.6940436  
C    5.6877074   -3.0502195   -7.5351879  
C    6.3278465   -2.3982203   -8.5335353  
C    5.9107381   -1.0105844   -8.4032023  
C    4.9937876   -1.0044197   -7.2431389  
N    4.8592089   -2.1971919   -6.7301348  
C    4.3577341    0.1990345   -6.7824645  
C    4.6258404    1.3443387   -7.4500957  
O    4.1024037    2.5399397   -7.1297938  
C    5.5471002    1.3706086   -8.6242985  
O    5.7451299    2.4488248   -9.1841696  
C    6.1872376    0.1229241   -9.0775437  
H    7.0001404   -2.8082639   -9.2676759  
H    4.4780714    3.1579722   -7.7825287  
H    6.8480886    0.1841840   -9.9318012  
H    5.7329577   -4.0997198   -7.2913134  
C    0.8681109    0.7263879    2.2709268  
C    0.6127770    0.5096195    3.5869401  
C   -0.4920590   -0.4175482    3.6542670  
C   -0.8620974   -0.7254003    2.2596025  
N    0.0000000    0.0000000    1.4700000  
C   -1.8641242   -1.5660088    1.8976294  
C   -2.6293522   -2.2103885    2.9520183  
O   -3.5512764   -2.9839180    2.7283916  
C   -2.2549728   -1.8987399    4.4361073  
O   -2.8923672   -2.4351063    5.3323774  
C   -1.1543735   -0.9755647    4.7012123  
H    1.1382914    0.9492124    4.4159191  
H   -2.1192137   -1.7782617    0.8686553  
H   -0.9013378   -0.7652422    5.7314848  
H    1.6172880    1.3558399    1.8188057  
