60

C    3.3003547    0.0005276   -1.4738988  
C    2.5232815    0.0003497   -2.6090749  
C    1.1623205   -0.0001319   -2.1820100  
C    1.1711887    0.0000583   -0.7636141  
N    2.4852303   -0.0014919   -0.3662362  
C    0.0000000    0.0000000    0.0000000  
C   -1.2020381    0.0000520   -0.6806479  
O   -2.3759252    0.0003494    0.0157741  
C   -1.2314650   -0.0005112   -2.0955510  
O   -2.5054392   -0.0008037   -2.6250182  
C   -0.0764513   -0.0007272   -2.8495195  
H    2.8919957   -0.0005619   -3.6205304  
H    2.8036269    0.0088181    0.5858662  
H   -3.0835638    0.0000348   -0.6418822  
H   -2.4360049   -0.0011526   -3.5845923  
H   -0.1304095   -0.0013420   -3.9319087  
C    6.4260936    0.0030632   -4.5098906  
C    7.5522589    0.0028891   -3.7593372  
C    7.0848224    0.0018026   -2.3816573  
C    5.6099765    0.0015410   -2.4884891  
N    5.2179711    0.0021962   -3.7336080  
C    4.7630506    0.0004756   -1.3275404  
C    5.3622560   -0.0006826   -0.1149867  
O    4.6953713   -0.0017513    1.0517626  
C    6.8483157   -0.0008252    0.0256758  
O    7.3251005   -0.0017843    1.1605310  
C    7.6953857    0.0003257   -1.1803076  
H    8.5739847    0.0033406   -4.0986765  
H    5.3903102   -0.0024424    1.7345598  
H    8.7674557    0.0000663   -1.0357556  
C    9.4491316    0.0058275   -7.7282229  
C    8.8187110    0.0049505   -6.5254581  
C    7.3999641    0.0049272   -6.7937752  
C    7.2544693    0.0058402   -8.2619784  
N    8.5333102    0.0067527   -8.7693805  
C    6.0658282    0.0056976   -8.9168348  
C    4.8485614    0.0047958   -8.1226078  
O    3.7295437    0.0046603   -8.6186924  
C    4.9789685    0.0040722   -6.5660736  
O    3.9611093    0.0036171   -5.8869397  
C    6.3151220    0.0040260   -5.9756954  
H    9.2933794    0.0045666   -5.5604177  
H    5.9811434    0.0062484   -9.9946741  
H   10.5057111    0.0060927   -7.9416004  
H    8.7655661    0.0059507   -9.7456500  
C    0.0000000    0.0000000    1.4700000  
C    1.0541688    0.0001722    2.3260392  
C    0.5103138    0.0000454    3.6635956  
C   -0.9576371   -0.0002459    3.5155732  
N   -1.2018458    0.0001392    2.1615969  
C   -1.8348311   -0.0008317    4.5510609  
C   -1.2972847   -0.0009736    5.9014604  
O   -2.0050672   -0.0014265    6.9001319  
C    0.2542623   -0.0004184    6.0817573  
O    0.7184670   -0.0002256    7.2139121  
C    1.0974552   -0.0000873    4.8889129  
H    2.0940752    0.0005483    2.0517982  
H   -2.9081052   -0.0011668    4.4207061  
H    2.1707277    0.0000911    5.0223670  
H   -2.1128194   -0.0014912    1.7406791  
