60

C    3.3041286    0.0001177   -1.5420405  
C    2.5845377   -0.0004779   -0.3695834  
C    1.2040013   -0.0000007   -0.7283580  
C    1.1422395    0.0006038   -2.1454365  
N    2.4348658    0.0026110   -2.6077446  
C   -0.0655157    0.0008800   -2.8497917  
C   -1.2321756    0.0002327   -2.1101405  
O   -2.4392796    0.0001150   -2.7472537  
C   -1.1911200   -0.0000007   -0.6955273  
O   -2.4371524   -0.0002319   -0.1032878  
C    0.0000000    0.0000000    0.0000000  
H    3.0031532   -0.0000662    0.6222604  
H    2.7054651   -0.0071097   -3.5745243  
H   -0.1193524    0.0014848   -3.9297472  
H   -3.1132973   -0.0000645   -2.0551807  
H   -2.3200290   -0.0004070    0.8516394  
C    6.5771485   -0.0035574    1.3345587  
C    7.6645483   -0.0027623    0.5288665  
C    7.1290988   -0.0009889   -0.8238311  
C    5.6614008   -0.0010505   -0.6437016  
N    5.3318743   -0.0024721    0.6193897  
C    4.7577233    0.0005129   -1.7610426  
C    5.2958140    0.0024561   -3.0019248  
O    4.5716659    0.0040582   -4.1340236  
C    6.7730280    0.0029429   -3.2164016  
O    7.1927183    0.0046218   -4.3735869  
C    7.6790911    0.0012688   -2.0540887  
H    8.7019025   -0.0032211    0.8169145  
H    5.2317480    0.0052553   -4.8505732  
H    6.5493783   -0.0048795    2.4126125  
C   11.0096088   -2.1090947   -0.1208646  
C   12.0386333   -1.6431258   -0.8745598  
C   11.4710568   -0.7462671   -1.8535066  
C   10.0165915   -0.7277751   -1.6065666  
N    9.8019952   -1.5747263   -0.5437818  
C    9.1243215    0.0019915   -2.3228064  
C    9.6302231    0.8239137   -3.4095643  
O    8.9069079    1.5170189   -4.1129289  
C   11.1669950    0.8194205   -3.6890547  
O   11.6045378    1.5072287   -4.6015997  
C   12.0287809   -0.0081158   -2.8486016  
H   13.0767860   -1.8986696   -0.7581559  
H   13.0916773   -0.0054833   -3.0485224  
H   11.0318420   -2.7980742    0.7078108  
H    8.9063474   -1.7724696   -0.1366457  
C    2.4951002    2.0940188    2.9809380  
C    1.9440701    1.6314916    1.8291961  
C    0.8759964    0.7350050    2.2038498  
C    0.8497377    0.7130254    3.6788474  
N    1.8560616    1.5571714    4.0882609  
C   -0.0205033   -0.0168748    4.4215661  
C   -0.9962600   -0.8356168    3.7214979  
O   -1.8224391   -1.5286685    4.3006425  
C   -0.9864710   -0.8277881    2.1595606  
O   -1.8030528   -1.5133726    1.5592035  
C    0.0000000    0.0000000    1.4700000  
H    2.2509283    1.8888011    0.8310761  
H   -0.0229599   -0.0187323    5.5027230  
H    3.3143982    2.7817323    3.1139444  
H    2.0889452    1.7545833    5.0442112  
