62

C   -2.3384684    2.3289293   -1.4738969  
C   -1.7878354    1.7806179   -2.6090736  
C   -0.8233392    0.8204289   -2.1820096  
C   -0.8297556    0.8265529   -0.7636135  
N   -1.7595778    1.7550665   -0.3662344  
C    0.0000000    0.0000000    0.0000000  
C    0.8515323   -0.8484033   -0.6806486  
O    1.6829481   -1.6771118    0.0157736  
C    0.8727765   -0.8687728   -2.0955513  
O    1.7755135   -1.7677020   -2.6250193  
C    0.0546735   -0.0534416   -2.8495193  
H   -1.9924181    1.9724778    0.5858680  
H    2.1844879   -2.1763216   -0.6418827  
H    1.7265695   -1.7184494   -3.5845931  
H    0.0933326   -0.0910876   -3.9319087  
H   -3.0973204    3.0849809   -1.3667116  
C   -2.7047908    5.6927134   -4.5697779  
C   -2.3795324    4.7156299   -3.6576475  
C   -2.3883568    3.4729085   -4.3577660  
C   -2.7284159    3.7567414   -5.7052545  
N   -2.9157328    5.1134710   -5.7991394  
C   -2.8305100    2.7641923   -6.6846478  
C   -2.5845438    1.4614178   -6.2967598  
O   -2.6700182    0.4532470   -7.2128923  
C   -2.2442636    1.1581952   -4.9569526  
O   -2.0298676   -0.1853519   -4.7283483  
C   -2.1436289    2.1368304   -3.9901688  
H   -2.1636647    4.8784084   -2.6155835  
H   -3.1556949    5.6094960   -6.6384002  
H   -3.0894239    2.9739670   -7.7133171  
H   -2.4640237   -0.3635870   -6.7400140  
H   -1.8052285   -0.3039273   -3.8004039  
C   -2.6698318    7.8658586   -3.2600682  
C   -2.8408071    7.1457031   -4.3930830  
C   -3.1914417    8.1247254   -5.4104667  
C   -3.1862998    9.4205780   -4.6981999  
N   -2.8811512    9.2751453   -3.4373575  
C   -3.4883391   10.6568460   -5.3656576  
C   -3.7817822   10.6011387   -6.6847942  
O   -4.0826034   11.6763054   -7.4328347  
C   -3.7948332    9.3087732   -7.4316415  
O   -4.0708384    9.3328957   -8.6309993  
C   -3.4816045    8.0542362   -6.7245703  
H   -3.4773824   11.5892841   -4.8203606  
H   -4.2425098   11.3203921   -8.3255315  
H   -3.5016477    7.1392583   -7.3013229  
H   -2.4026202    7.5068143   -2.2789167  
C    2.4951002    2.0940188    2.9809380  
C    1.9440701    1.6314916    1.8291961  
C    0.8759964    0.7350050    2.2038498  
C    0.8497377    0.7130254    3.6788474  
N    1.8560616    1.5571714    4.0882609  
C   -0.0205033   -0.0168748    4.4215661  
C   -0.9962600   -0.8356168    3.7214979  
O   -1.8224391   -1.5286685    4.3006425  
C   -0.9864710   -0.8277881    2.1595606  
O   -1.8030528   -1.5133726    1.5592035  
C    0.0000000    0.0000000    1.4700000  
H    2.2509283    1.8888011    0.8310761  
H   -0.0229599   -0.0187323    5.5027230  
H    3.3143982    2.7817323    3.1139444  
H    2.0889452    1.7545833    5.0442112  
