62

C    1.1188644    0.0008218   -0.8003806  
C    0.0000000    0.0000000    0.0000000  
C   -1.1323862    0.0008904   -0.8673524  
C   -0.6382659    0.0019684   -2.1969279  
N    0.7324023    0.0038479   -2.1202238  
C   -1.4770905    0.0027325   -3.3154809  
C   -2.8395470    0.0020959   -3.0876862  
O   -3.7039190    0.0024444   -4.1440355  
C   -3.3517864    0.0013947   -1.7684336  
O   -4.7300490    0.0012388   -1.7073134  
C   -2.5248545    0.0009136   -0.6644822  
H   -1.1067562    0.0036994   -4.3313813  
H   -4.5940024    0.0021851   -3.7685137  
H   -4.9934600    0.0007285   -0.7819922  
H   -2.9462579    0.0005615    0.3339652  
H    2.1619896    0.0009344   -0.5342063  
C    4.5426431   -2.1280495   -2.8244665  
C    4.7840755   -1.6433690   -4.0890858  
C    3.7027657   -0.7718641   -4.4144291  
C    2.8248675   -0.7640009   -3.3003562  
N    3.3636316   -1.5993789   -2.3535224  
C    1.6478441   -0.0100105   -3.2702994  
C    1.3518132    0.7501211   -4.3850829  
O    0.2151967    1.5054730   -4.4087629  
C    2.2150350    0.7551134   -5.5065284  
O    1.7815991    1.5622767   -6.5380153  
C    3.3762265    0.0113170   -5.5369816  
H    5.6343323   -1.8887260   -4.7021579  
H    2.9665967   -1.7854951   -1.4503582  
H    0.2007708    1.9502737   -5.2662066  
H    2.4205842    1.5086851   -7.2552535  
H    4.0176576    0.0350468   -6.4101832  
C    8.3649450   -4.3633639   -3.3322228  
C    7.3117914   -3.5504605   -3.5804847  
C    6.4900962   -3.6246127   -2.3822285  
C    7.2163810   -4.5527525   -1.4891153  
N    8.3161998   -4.9889849   -2.0405582  
C    6.7226120   -4.8951832   -0.1837340  
C    5.5564979   -4.3355304    0.2116157  
O    4.9794840   -4.5657565    1.4032918  
C    4.8002772   -3.3948921   -0.6667294  
O    3.7456558   -2.9231410   -0.2419409  
C    5.3275166   -3.0594331   -2.0014244  
H    7.1166850   -2.9718840   -4.4671968  
H    7.2739518   -5.5764002    0.4478336  
H    4.1661353   -4.0295618    1.3926698  
H    9.2020041   -4.5812556   -3.9762956  
C    0.8400945    0.7047457    2.2710304  
C    0.0000000    0.0000000    1.4700000  
C   -0.8844236   -0.7423113    2.3369512  
C   -0.4878984   -0.4098547    3.7186280  
N    0.5629682    0.4714286    3.6095011  
C   -1.0836927   -0.9095027    4.8308716  
C   -2.1891196   -1.8367527    4.6554461  
O   -2.7906899   -2.3413415    5.5944904  
C   -2.6257283   -2.2031529    3.2011665  
O   -3.5549479   -2.9829990    3.0410059  
C   -1.9068976   -1.5999348    2.0816745  
H   -0.7774656   -0.6525820    5.8354244  
H   -2.2155208   -1.8586617    1.0779135  
H    1.6384792    1.3747609    1.9961646  
H    1.0518368    0.8833920    4.3830260  
