58

C    0.8712808   -0.0015102   -4.7267111  
C   -0.4246871    0.0004327   -5.1323436  
C   -0.4138925    0.0003596   -6.5761993  
C    1.0047685   -0.0018297   -6.9813993  
N    1.7322677   -0.0024831   -5.8136521  
C    1.4369625   -0.0029386   -8.2678329  
C    0.4382336   -0.0016808   -9.3238042  
O    0.7266332   -0.0024671  -10.5133941  
C   -1.0700318    0.0008935   -8.9176842  
O   -1.9199258    0.0022766   -9.7979904  
C   -1.4124567    0.0016201   -7.4976148  
H   -1.2895140    0.0019473   -4.4930590  
H    2.4823809   -0.0046735   -8.5435277  
H    2.7343114   -0.0054703   -5.7593662  
C   -1.0965506    0.0015489   -0.8010303  
C    0.0000000    0.0000000    0.0000000  
C    1.1546546   -0.0019212   -0.8669512  
C    0.6371999   -0.0013312   -2.2486283  
N   -0.7342875    0.0003943   -2.1395009  
C    1.4147717   -0.0023094   -3.3608719  
C    2.8576012   -0.0042862   -3.1854461  
O    3.6427741   -0.0053483   -4.1244907  
C    3.4275797   -0.0051941   -1.7311666  
O    4.6406773   -0.0071639   -1.5710058  
C    2.4891836   -0.0037156   -0.6116747  
H    2.8919091   -0.0041516    0.3920861  
H   -2.1388250    0.0032200   -0.5261650  
H   -1.3735848    0.0027201   -2.9130261  
C   -3.3971040    0.7095196   -6.1119533  
C   -2.8349195    0.0037674   -7.1268116  
C   -3.8980138   -0.7371053   -7.7638155  
C   -5.1345009   -0.4027076   -7.0316489  
N   -4.7625366    0.4782117   -6.0424507  
C   -6.3617947   -0.9006149   -7.3275268  
C   -6.4722387   -1.8279059   -8.4412900  
O   -7.5333983   -2.3310059   -8.7864446  
C   -5.1756571   -2.1963454   -9.2305510  
O   -5.2562090   -2.9762447  -10.1699809  
C   -3.9101624   -1.5949026   -8.8174625  
H   -7.2562413   -0.6422865   -6.7778526  
H   -3.0170891   -1.8550356   -9.3692557  
H   -2.9287569    1.3789779   -5.4088415  
H   -5.3871288    0.8912097   -5.3743458  
C    2.3971438    2.0127888    3.1728260  
C    1.9431056    1.6308205    1.9564670  
C    0.8496017    0.7127664    2.2356185  
C    0.7794028    0.6545384    3.7115134  
N    1.6840587    1.4146091    4.2663826  
C   -0.1885723   -0.1578550    4.3957118  
C   -1.0476298   -0.8789867    3.6398520  
O   -2.0015663   -1.6796266    4.1448486  
C   -1.0022026   -0.8410666    2.1483229  
O   -1.8147390   -1.5232959    1.5241687  
C    0.0000000    0.0000000    1.4700000  
H    2.3054237    1.9346118    0.9892483  
H   -0.2170646   -0.1815267    5.4753125  
H   -2.4487139   -2.0549881    3.3649027  
H    3.2048689    2.6911772    3.3971983  
