58

C    3.2798086    0.0005855   -1.4499648  
C    2.5571148    0.0005562   -2.5996554  
C    1.1637436    0.0001544   -2.2210360  
C    1.1336965   -0.0000202   -0.7459472  
N    2.4483515   -0.0001428   -0.3402719  
C    0.0000000    0.0000000    0.0000000  
C   -1.2757369   -0.0000188   -0.6964412  
O   -2.3524597   -0.0000640   -0.1142313  
C   -1.2676495   -0.0000876   -2.2584085  
O   -2.3355760   -0.0004105   -2.8557299  
C    0.0181562    0.0001755   -2.9516295  
H    2.9547356    0.0006072   -3.5989106  
H    4.3498552    0.0008611   -1.3200022  
H    2.7563629    0.0012824    0.6148064  
C    2.4107292   -2.0068248   -6.1315643  
C    1.9593060   -1.6260414   -4.9138613  
C    0.8629755   -0.7103792   -5.1897635  
C    0.7884490   -0.6520947   -6.6654437  
N    1.6932090   -1.4100734   -7.2229985  
C   -0.1832712    0.1582445   -7.3467636  
C   -1.0417747    0.8773565   -6.5883545  
O   -1.9989205    1.6759476   -7.0905155  
C   -0.9920203    0.8393226   -5.0969664  
O   -1.8042913    1.5196549   -4.4704009  
C    0.0139741    0.0003873   -4.4216238  
H    2.3250483   -1.9291665   -3.9477229  
H   -2.4446800    2.0502023   -6.3092441  
H    3.2193179   -2.6833843   -6.3583356  
C    0.3190350   -3.0592232  -10.2421196  
C    0.1723543   -2.4083666  -11.4195963  
C   -0.0666920   -1.0207036  -11.0538804  
C   -0.0302636   -1.0132744   -9.5756378  
N    0.1955629   -2.2053883   -9.0941236  
C   -0.2262947    0.1905825   -8.8157778  
C   -0.4482290    1.3350642   -9.5015192  
O   -0.6473819    2.5309154   -8.9215892  
C   -0.4904196    1.3600516  -10.9934165  
O   -0.6972796    2.4375680  -11.5514376  
C   -0.2864477    0.1119761  -11.7501385  
H    0.2205233   -2.8191769  -12.4135723  
H   -0.7764690    3.1481851   -9.6641980  
H   -0.3244080    0.1722995  -12.8295590  
H    0.5109432   -4.1083707  -10.0826399  
C    2.5128556    2.1077716    2.9199648  
C    1.9592212    1.6432552    4.0696553  
C    0.8915788    0.7479214    3.6910360  
C    0.8684491    0.7287414    2.2159470  
N    1.8754542    1.5738793    1.8102719  
C    0.0000000    0.0000000    1.4700000  
C   -0.9772830   -0.8200135    2.1664417  
O   -1.8021297   -1.5120829    1.5842315  
C   -0.9711318   -0.8147624    3.7284083  
O   -1.7894187   -1.5009653    4.3257297  
C    0.0140216    0.0115358    4.4216297  
H    2.2638494    1.8988021    5.0689105  
H    0.0117648    0.0094386    5.5031631  
H    3.3327358    2.7953732    2.7900019  
H    2.1123206    1.7707734    0.8551938  
