58

C    7.1960767   -4.3974513    1.0968952  
C    6.5735478   -3.5872034    0.2024503  
C    5.1581276   -3.6665607    0.4765374  
C    5.0059854   -4.5961004    1.6121422  
N    6.2781605   -5.0040815    1.9407958  
C    3.8180773   -4.9373287    2.1726251  
C    2.6086517   -4.3500513    1.6204199  
O    1.4909019   -4.5943387    2.0554594  
C    2.7461634   -3.3632274    0.4174758  
O    1.7349093   -2.8627892   -0.0560081  
C    4.0808106   -3.0726362   -0.1003334  
H    7.0513351   -3.0009940   -0.5622005  
H    3.7284509   -5.6210687    3.0053174  
H    8.2481753   -4.6026057    1.2104229  
H    6.5050413   -5.6424501    2.6811068  
C    4.1985335   -2.1423497   -1.2324147  
C    5.3247420   -1.7348284   -1.8626215  
C    4.8654771   -0.8236651   -2.8996159  
C    3.3948139   -0.7971454   -2.7478598  
N    2.9980300   -1.5681518   -1.7721032  
C    2.5562217   -0.0001543   -3.6003001  
C    3.1594329    0.7371398   -4.5604401  
O    2.5003396    1.5262941   -5.4258146  
C    4.6414690    0.7318293   -4.7384888  
O    5.1222590    1.4271719   -5.6332291  
C    5.4799815   -0.0940140   -3.8514695  
H    6.3415678   -2.0175420   -1.6499845  
H    3.1964043    1.9185703   -5.9832783  
H    6.5493676   -0.0702000   -4.0129497  
C    0.0000000    0.0000000    0.0000000  
C    1.0541688   -0.0001719   -0.8560391  
C    0.5103141   -0.0000449   -2.1935955  
C   -0.9576367    0.0002461   -2.0455733  
N   -1.2018459   -0.0001392   -0.6915970  
C   -1.8348306    0.0008319   -3.0810611  
C   -1.2972842    0.0009739   -4.4314605  
O   -2.0050664    0.0014267   -5.4301321  
C    0.2542628    0.0004190   -4.6117571  
O    0.7184677    0.0002263   -5.7439119  
C    1.0974556    0.0000880   -3.4189127  
H    2.0940752   -0.0005479   -0.5817978  
H   -2.9081050    0.0011669   -2.9507065  
H   -2.1128195    0.0014911   -0.2706793  
C    3.2573670    0.0002920    2.9809380  
C    2.5379467    0.0001709    1.8291961  
C    1.1435042   -0.0000331    2.2038498  
C    1.1092607    0.0000083    3.6788474  
N    2.4227561   -0.0001909    4.0882609  
C   -0.0265533    0.0002524    4.4215661  
C   -1.3003036    0.0002640    3.7214979  
O   -2.3786784    0.0004133    4.3006425  
C   -1.2877726   -0.0000311    2.1595606  
O   -2.3539958   -0.0003306    1.5592035  
C    0.0000000    0.0000000    1.4700000  
H    2.9384090    0.0000368    0.8310761  
H   -0.0296291    0.0004086    5.5027230  
H    4.3270393    0.0004765    3.1139444  
H    2.7280493    0.0013407    5.0442112  
