62

C    4.3850145   -2.1302472   -1.4420375  
C    3.1441333   -1.6664867   -1.8129919  
C    3.3426832   -0.7794073   -2.9122042  
C    4.7370124   -0.7413627   -3.1697381  
N    5.3406713   -1.5712647   -2.2578847  
C    5.2968248    0.0340036   -4.1896431  
C    4.4333093    0.7844034   -4.9638647  
O    4.9266648    1.5591504   -5.9735093  
C    3.0391090    0.7599480   -4.7221527  
O    2.3124159    1.5614585   -5.5782141  
C    2.4861708   -0.0045286   -3.7159913  
H    2.2107835   -1.9337300   -1.3477684  
H    6.3263480   -1.7540630   -2.2030539  
H    4.1660047    1.9932246   -6.3812358  
H    1.3813876    1.4874741   -5.3473111  
H    4.6641351   -2.8144246   -0.6591248  
C    0.0000000    0.0000000    0.0000000  
C    1.0521668   -0.0011862   -0.8862337  
C    0.4917223   -0.0011933   -2.1979128  
C   -0.9187426    0.0003121   -2.0478684  
N   -1.1833170   -0.0009451   -0.7007915  
C   -1.7951692    0.0010294   -3.1372093  
C   -1.2375827    0.0005192   -4.4010426  
O   -2.0474200    0.0015301   -5.4997582  
C    0.1673593   -0.0013551   -4.5711963  
O    0.5673537   -0.0020655   -5.8915553  
C    1.0325777   -0.0023369   -3.4969887  
H    2.0953056   -0.0030573   -0.6200556  
H   -2.0989779    0.0102301   -0.2891829  
H   -2.8710925    0.0020326   -3.0295520  
H   -1.4634871    0.0006461   -6.2693596  
H    1.5290723   -0.0033086   -5.9180041  
C    7.5978897   -1.0094918   -4.4232685  
C    8.8696888   -0.6388037   -4.7219197  
C    8.8457752    0.7828110   -4.9734648  
C    7.4457596    1.2130476   -4.7955771  
N    6.7404103    0.0794822   -4.4633099  
C    7.0086101    2.4890711   -4.9451388  
C    7.9819085    3.5065747   -5.3055725  
O    7.6871602    4.6840693   -5.4634711  
C    9.4700802    3.0734100   -5.4992667  
O   10.2984462    3.9212125   -5.8030773  
C    9.8201489    1.6678583   -5.3102486  
H    9.7267315   -1.2872728   -4.7616655  
H    5.9771643    2.7835933   -4.8099143  
H   10.8527233    1.3761735   -5.4460278  
H    7.2148702   -1.9866229   -4.1775038  
C    3.2573670    0.0002920    2.9809380  
C    2.5379467    0.0001709    1.8291961  
C    1.1435042   -0.0000331    2.2038498  
C    1.1092607    0.0000083    3.6788474  
N    2.4227561   -0.0001909    4.0882609  
C   -0.0265533    0.0002524    4.4215661  
C   -1.3003036    0.0002640    3.7214979  
O   -2.3786784    0.0004133    4.3006425  
C   -1.2877726   -0.0000311    2.1595606  
O   -2.3539958   -0.0003306    1.5592035  
C    0.0000000    0.0000000    1.4700000  
H    2.9384090    0.0000368    0.8310761  
H   -0.0296291    0.0004086    5.5027230  
H    4.3270393    0.0004765    3.1139444  
H    2.7280493    0.0013407    5.0442112  
