60

C    0.0000000    0.0000000    0.0000000  
C   -1.0384262    0.1694848   -0.8862350  
C   -0.4851965    0.0798387   -2.1979135  
C    0.9068634   -0.1472776   -2.0478676  
N    1.1682310   -0.1883605   -0.7007904  
C    1.7718900   -0.2881861   -3.1372077  
C    1.2215673   -0.1984861   -4.4010418  
O    2.0208149   -0.3290320   -5.4997568  
C   -0.1649821    0.0281106   -4.5711967  
O   -0.5597107    0.0927987   -5.8915557  
C   -1.0189024    0.1674873   -3.4969900  
H   -2.0678325    0.3382013   -0.6200579  
H    2.0703115   -0.3458685   -0.2891812  
H    2.8337974   -0.4612904   -3.0295497  
H    1.4445442   -0.2347484   -6.2693587  
H   -1.5088453    0.2478706   -5.9180056  
C   -3.9576066    2.7667360   -1.4710687  
C   -2.8271121    2.1138558   -1.8449727  
C   -3.1800234    1.2646402   -2.9581309  
C   -4.6191014    1.4778421   -3.2038744  
N   -5.0306830    2.3991790   -2.2686587  
C   -5.3334610    0.8562924   -4.1760221  
C   -4.6386437   -0.0856826   -5.0376764  
O   -5.1939229   -0.6959797   -5.9418356  
C   -3.1145810   -0.3271049   -4.7952848  
O   -2.5190332   -1.1181279   -5.5142190  
C   -2.4534256    0.4021802   -3.7159942  
H   -1.8567700    2.2154177   -1.3924959  
H   -6.3884631    1.0270157   -4.3395270  
H   -5.9660186    2.7519228   -2.1805321  
C   -1.1630872    4.4574489    1.4641465  
C   -2.0109827    5.2801691    2.1336835  
C   -3.3097215    5.1365689    1.5192796  
C   -3.1478019    4.1556943    0.4291155  
N   -1.8235677    3.7829763    0.4484735  
C   -4.1478944    3.7466874   -0.3920014  
C   -5.4720905    4.3103144   -0.1886184  
O   -6.4382523    4.0060716   -0.8758368  
C   -5.6664447    5.3509947    0.9598655  
O   -6.7767247    5.8325882    1.1404398  
C   -4.5124504    5.7127985    1.7791626  
H   -1.7557173    5.9153057    2.9631741  
H   -4.6554627    6.4339090    2.5724288  
H   -0.1112450    4.2872824    1.6271225  
H   -1.4023001    3.1212477   -0.1773828  
C    1.0965515   -0.0001358    2.2710304  
C    0.0000000    0.0000000    1.4700000  
C   -1.1546562   -0.0001469    2.3369512  
C   -0.6372014   -0.0003519    3.7186280  
N    0.7342871   -0.0007337    3.6095011  
C   -1.4147739   -0.0001353    4.8308716  
C   -2.8576048    0.0001048    4.6554461  
O   -3.6427778    0.0002493    5.5944904  
C   -3.4275839    0.0000726    3.2011665  
O   -4.6406829   -0.0000333    3.0410059  
C   -2.4891866    0.0001091    2.0816745  
H   -1.0150448   -0.0001615    5.8354244  
H   -2.8919121    0.0002919    1.0779135  
H    2.1388271   -0.0000662    1.9961646  
H    1.3735872    0.0006099    4.3830260  
