62

C    3.3041274    0.0001175   -1.5420432  
C    2.5845371   -0.0004779   -0.3695850  
C    1.2040006   -0.0000009   -0.7283590  
C    1.1422375    0.0006034   -2.1454377  
N    2.4348639    0.0026105   -2.6077467  
C   -0.0655182    0.0008793   -2.8497919  
C   -1.2321770    0.0002321   -2.1101397  
O   -2.4392816    0.0001141   -2.7472520  
C   -1.1911208   -0.0000009   -0.6955263  
O   -2.4371531   -0.0002320   -0.1032852  
C    0.0000000    0.0000000    0.0000000  
H    3.0031535   -0.0000660    0.6222585  
H   -0.1193549    0.0014838   -3.9297470  
H   -3.1132993   -0.0000652   -2.0551786  
H   -2.3200280   -0.0004070    0.8516415  
H    4.3686623    0.0004069   -1.7024293  
C    5.6587027   -2.1482572   -4.5997633  
C    5.5107200   -1.7555988   -5.8864254  
C    4.3729215   -0.8490962   -5.8734398  
C    3.9446799   -0.8087292   -4.4586734  
N    4.6947113   -1.5682539   -3.7072984  
C    2.8310662   -0.0116225   -4.0232751  
C    2.1753243    0.7125519   -4.9586407  
O    1.1191532    1.5001777   -4.6937097  
C    2.5836171    0.6930789   -6.3942863  
O    1.9410867    1.3768917   -7.1910142  
C    3.7292179   -0.1325933   -6.8159362  
H    6.1008491   -2.0452553   -6.7390230  
H    0.8721710    1.8818760   -5.5553698  
H    6.3942974   -2.8231069   -4.1917795  
C    5.0521563   -3.3451846   -9.6299632  
C    4.6374299   -2.6519929   -8.5164308  
C    4.4799358   -1.2896909   -8.9087687  
C    4.8154195   -1.2113849  -10.2847207  
N    5.1600644   -2.4766653  -10.6908029  
C    4.7728136   -0.0147986  -11.0066310  
C    4.3841721    1.1234186  -10.3272230  
O    4.3248936    2.3184660  -10.9840041  
C    4.0459614    1.0655764   -8.9542389  
O    3.6795813    2.2837500   -8.4202313  
C    4.0880272   -0.1144907   -8.2413581  
H    4.4701746   -3.0758541   -7.5410539  
H    5.4349016   -2.7326548  -11.6218858  
H    5.0274197    0.0515597  -12.0554284  
H    4.0359250    2.9728263  -10.3347161  
H    3.4671584    2.1567633   -7.4905250  
H    5.2809032   -4.3901589   -9.7510566  
C    0.8400945    0.7047457    2.2710304  
C    0.0000000    0.0000000    1.4700000  
C   -0.8844236   -0.7423113    2.3369512  
C   -0.4878984   -0.4098547    3.7186280  
N    0.5629682    0.4714286    3.6095011  
C   -1.0836927   -0.9095027    4.8308716  
C   -2.1891196   -1.8367527    4.6554461  
O   -2.7906899   -2.3413415    5.5944904  
C   -2.6257283   -2.2031529    3.2011665  
O   -3.5549479   -2.9829990    3.0410059  
C   -1.9068976   -1.5999348    2.0816745  
H   -0.7774656   -0.6525820    5.8354244  
H   -2.2155208   -1.8586617    1.0779135  
H    1.6384792    1.3747609    1.9961646  
H    1.0518368    0.8833920    4.3830260  
