60

C   -1.1241246    0.0242023   -0.7919003  
C   -0.7477745   -0.0007158   -2.1148544  
C    0.6777119   -0.0440780   -2.1414697  
C    1.1193568   -0.0439182   -0.7935545  
N    0.0000000    0.0000000    0.0000000  
C    2.4717445   -0.0815720   -0.4408242  
C    3.3951054   -0.1203957   -1.4675057  
O    4.7287186   -0.1584950   -1.1793466  
C    2.9740661   -0.1208452   -2.8186319  
O    4.0135891   -0.1616361   -3.7247616  
C    1.6400780   -0.0834380   -3.1673480  
H    2.8148392   -0.0815231    0.5845968  
H    5.1907782   -0.1810170   -2.0274369  
H    3.6433148   -0.1590929   -4.6127335  
H    1.3477978   -0.0846114   -4.2109228  
H   -2.1054329    0.0587694   -0.3505408  
C   -1.6631559    0.0166921   -3.2649301  
C   -3.0204256    0.0581527   -3.2781787  
C   -3.4281187    0.0577944   -4.6633219  
C   -2.1882213    0.0123718   -5.4616841  
N   -1.1541403   -0.0104937   -4.5544664  
C   -2.1472035   -0.0018726   -6.8180830  
C   -3.4083987    0.0298619   -7.5398273  
O   -3.4769071    0.0203204   -8.7619222  
C   -4.7337456    0.0784006   -6.7146574  
O   -5.8016849    0.1057179   -7.3113317  
C   -4.6502000    0.0895224   -5.2563204  
H   -3.6627025    0.0860106   -2.4160198  
H   -1.2268911   -0.0354669   -7.3844805  
H   -0.1798273   -0.0440274   -4.7924527  
C   -5.9036945    0.1350198   -4.4897819  
C   -6.0583226    0.1523880   -3.1453983  
C   -7.4969506    0.1983086   -2.9338795  
C   -8.0738731    0.2032296   -4.2953937  
N   -7.1447589    0.1661590   -5.2115605  
C   -9.4925888    0.2444226   -4.5204135  
C  -10.2983453    0.2787337   -3.4346354  
O  -11.6401940    0.3190581   -3.4967475  
C   -9.7464239    0.2744305   -2.0477236  
O  -10.5388272    0.3071585   -1.1063175  
C   -8.2875755    0.2318746   -1.8430921  
H   -5.2909134    0.1359651   -2.3904882  
H   -9.8866273    0.2472834   -5.5262147  
H  -11.9310314    0.3362514   -2.5670859  
H   -7.9277350    0.2299981   -0.8229247  
C    2.5128556    2.1077716    2.9199648  
C    1.9592212    1.6432552    4.0696553  
C    0.8915788    0.7479214    3.6910360  
C    0.8684491    0.7287414    2.2159470  
N    1.8754542    1.5738793    1.8102719  
C    0.0000000    0.0000000    1.4700000  
C   -0.9772830   -0.8200135    2.1664417  
O   -1.8021297   -1.5120829    1.5842315  
C   -0.9711318   -0.8147624    3.7284083  
O   -1.7894187   -1.5009653    4.3257297  
C    0.0140216    0.0115358    4.4216297  
H    2.2638494    1.8988021    5.0689105  
H    0.0117648    0.0094386    5.5031631  
H    3.3327358    2.7953732    2.7900019  
H    2.1123206    1.7707734    0.8551938  
