58

C    4.2737527    0.5429397   -7.3193637  
C    5.2721481   -0.3006199   -6.9510043  
C    6.2207340   -0.3308009   -8.0391735  
C    5.6893405    0.5708102   -9.0791298  
N    4.5071374    1.0682083   -8.5812537  
C    6.2966081    0.8158897  -10.2677699  
C    7.5576316    0.1468559  -10.5411727  
O    8.1818362    0.3019068  -11.5826269  
C    8.1387797   -0.8125262   -9.4541319  
O    9.1996260   -1.3816262   -9.6731985  
C    7.3926979   -0.9962674   -8.2117737  
H    5.3366417   -0.8402902   -6.0229914  
H    5.8899412    1.4809743  -11.0168999  
H    7.8019914   -1.6620412   -7.4641459  
H    3.9073864    1.7149122   -9.0599189  
C    2.8937200   -0.6810875   -3.3716098  
C    1.7334695    0.0049281   -3.2500363  
C    1.6077149    0.7522589   -4.4918830  
C    2.8122597    0.3892092   -5.2689618  
N    3.5698264   -0.4507652   -4.6174055  
C    3.0644633    0.9274691   -6.5773023  
C    2.1544920    1.7889434   -7.0863688  
O    2.2622348    2.3670678   -8.2947578  
C    0.9287267    2.1746338   -6.3268270  
O    0.1435728    2.9640512   -6.8517780  
C    0.6926282    1.6089292   -4.9866180  
H    1.4670774    2.9242633   -8.3748264  
H   -0.2072110    1.9133941   -4.4691038  
H    3.3447091   -1.3545428   -2.6602446  
C    1.1319246    0.0015678   -0.8009268  
C    0.7969914    0.0034958   -2.1169401  
C   -0.6453340    0.0035696   -2.1842669  
C   -1.1266832    0.0015410   -0.7896025  
N    0.0000000    0.0000000    0.0000000  
C   -2.4346129    0.0013913   -0.4276292  
C   -3.4350111    0.0031335   -1.4820181  
O   -4.6384614    0.0030875   -1.2583914  
C   -2.9478961    0.0050442   -2.9661074  
O   -3.7809382    0.0062135   -3.8623773  
C   -1.5113825    0.0053055   -3.2312122  
H   -2.7664565    0.0000174    0.6013448  
H   -1.1823533    0.0068381   -4.2614848  
H    2.1104316    0.0009435   -0.3488059  
C    0.8175213    0.6860729    2.3021913  
C    0.0000000    0.0000000    1.4700000  
C   -0.8887526   -0.7456559    2.3478473  
C   -0.4549825   -0.3816753    3.7138435  
N    0.5448156    0.4573574    3.6934124  
C   -1.0945674   -0.9182058    4.8835240  
C   -2.1210866   -1.7789155    4.6970523  
O   -2.8083856   -2.3554314    5.6976972  
C   -2.5824069   -2.1655116    3.3310774  
O   -3.5227682   -2.9541547    3.2362962  
C   -1.9100805   -1.6015804    2.1470656  
H   -0.7567140   -0.6349833    5.8697035  
H   -3.4728268   -2.9124471    5.2533954  
H   -2.2742832   -1.9066565    1.1752040  
H    1.6189533    1.3585343    2.0405121  
