58

C    5.2178169   -1.0767762   -7.1504107  
C    4.5587516    0.0005413   -6.6513177  
C    4.9518722    1.1399819   -7.4462805  
C    5.9007725    0.6345546   -8.4566867  
N    6.0192630   -0.7160797   -8.2229411  
C    6.5010529    1.4033659   -9.4002431  
C    6.1920956    2.8234398   -9.4219495  
O    6.6813314    3.5992423  -10.2325534  
C    5.1900576    3.3804130   -8.3610515  
O    4.9224781    4.5743948   -8.3693283  
C    4.6069710    2.4531864   -7.3945560  
H    7.1940758    1.0127217  -10.1323803  
H    3.9139222    2.8467558   -6.6634535  
H    5.1856276   -2.1038257   -6.8248000  
H    6.5971994   -1.3435210   -8.7514813  
C    4.5939380   -2.1037471   -2.7696732  
C    4.8996526   -1.6376001   -4.0079464  
C    3.8355763   -0.7416509   -4.3950538  
C    2.8780295   -0.7238870   -3.2727446  
N    3.3957273   -1.5703484   -2.3196542  
C    1.7334695    0.0049281   -3.2500363  
C    1.4239148    0.8265213   -4.4083522  
O    0.4172711    1.5187838   -4.4841264  
C    2.4237222    0.8227865   -5.6084260  
O    2.1735663    1.5103258   -6.5892278  
C    3.6246412   -0.0037445   -5.5162755  
H    5.7710266   -1.8924542   -4.5844619  
H    5.1430575   -2.7922312   -2.1481045  
H    2.9698478   -1.7683918   -1.4328324  
C    1.1319246    0.0015678   -0.8009268  
C    0.7969914    0.0034958   -2.1169401  
C   -0.6453340    0.0035696   -2.1842669  
C   -1.1266832    0.0015410   -0.7896025  
N    0.0000000    0.0000000    0.0000000  
C   -2.4346129    0.0013913   -0.4276292  
C   -3.4350111    0.0031335   -1.4820181  
O   -4.6384614    0.0030875   -1.2583914  
C   -2.9478961    0.0050442   -2.9661074  
O   -3.7809382    0.0062135   -3.8623773  
C   -1.5113825    0.0053055   -3.2312122  
H   -2.7664565    0.0000174    0.6013448  
H   -1.1823533    0.0068381   -4.2614848  
H    2.1104316    0.0009435   -0.3488059  
C    0.8175213    0.6860729    2.3021913  
C    0.0000000    0.0000000    1.4700000  
C   -0.8887526   -0.7456559    2.3478473  
C   -0.4549825   -0.3816753    3.7138435  
N    0.5448156    0.4573574    3.6934124  
C   -1.0945674   -0.9182058    4.8835240  
C   -2.1210866   -1.7789155    4.6970523  
O   -2.8083856   -2.3554314    5.6976972  
C   -2.5824069   -2.1655116    3.3310774  
O   -3.5227682   -2.9541547    3.2362962  
C   -1.9100805   -1.6015804    2.1470656  
H   -0.7567140   -0.6349833    5.8697035  
H   -3.4728268   -2.9124471    5.2533954  
H   -2.2742832   -1.9066565    1.1752040  
H    1.6189533    1.3585343    2.0405121  
