58

C    0.8807936   -0.7246962   -5.2251244  
C    0.6214206   -0.5080868   -6.5403739  
C   -0.4848681    0.4175800   -6.6044198  
C   -0.8513572    0.7247246   -5.2086625  
N    0.0139735    0.0003890   -4.4216236  
C   -1.8534975    1.5639108   -4.8437156  
C   -2.6226020    2.2073964   -5.8958279  
O   -3.5449423    2.9796333   -5.6694646  
C   -2.2520211    1.8964740   -7.3810220  
O   -2.8926946    2.4320980   -8.2753954  
C   -1.1509204    0.9748422   -7.6493937  
H   -2.1059483    1.7756663   -3.8139886  
H   -0.9005297    0.7650142   -8.6804132  
H    1.6321133   -1.3531890   -4.7752298  
C    3.2798085    0.0005863   -1.4499651  
C    2.5571140    0.0005574   -2.5996556  
C    1.1637432    0.0001555   -2.2210361  
C    1.1336965   -0.0000197   -0.7459472  
N    2.4483511   -0.0001424   -0.3402720  
C    0.0000000    0.0000000    0.0000000  
C   -1.2757369   -0.0000184   -0.6964411  
O   -2.3524596   -0.0000641   -0.1142310  
C   -1.2676496   -0.0000869   -2.2584080  
O   -2.3355766   -0.0004093   -2.8557289  
C    0.0181558    0.0001767   -2.9516295  
H    2.9547351    0.0006085   -3.5989110  
H    4.3498549    0.0008618   -1.3200024  
H    2.7563629    0.0012825    0.6148060  
C    2.1792067   -4.5607404   -7.1981273  
C    2.7092863   -4.3992535   -8.4378904  
C    2.4670924   -3.0292133   -8.8241129  
C    1.7473261   -2.4012540   -7.6996600  
N    1.6038615   -3.3827889   -6.7462993  
C    1.3373173   -1.1078018   -7.6755983  
C    1.6238677   -0.2788836   -8.8346146  
O    1.2958916    0.8980434   -8.9092855  
C    2.3848261   -0.9231928  -10.0369515  
O    2.6314076   -0.2352272  -11.0183590  
C    2.7756763   -2.3277698   -9.9461156  
H    3.2123681   -5.1538202   -9.0159486  
H    3.3023970   -2.7662758  -10.7827767  
H    2.1602767   -5.4412356   -6.5766293  
H    1.1526781   -3.2614956   -5.8581728  
C    2.3971438    2.0127888    3.1728260  
C    1.9431056    1.6308205    1.9564670  
C    0.8496017    0.7127664    2.2356185  
C    0.7794028    0.6545384    3.7115134  
N    1.6840587    1.4146091    4.2663826  
C   -0.1885723   -0.1578550    4.3957118  
C   -1.0476298   -0.8789867    3.6398520  
O   -2.0015663   -1.6796266    4.1448486  
C   -1.0022026   -0.8410666    2.1483229  
O   -1.8147390   -1.5232959    1.5241687  
C    0.0000000    0.0000000    1.4700000  
H    2.3054237    1.9346118    0.9892483  
H   -0.2170646   -0.1815267    5.4753125  
H   -2.4487139   -2.0549881    3.3649027  
H    3.2048689    2.6911772    3.3971983  
