60

C    3.3041272    0.0001176   -1.5420427  
C    2.5845371   -0.0004783   -0.3695852  
C    1.2040006   -0.0000009   -0.7283586  
C    1.1422374    0.0006035   -2.1454371  
N    2.4348638    0.0026108   -2.6077464  
C   -0.0655183    0.0008794   -2.8497913  
C   -1.2321770    0.0002322   -2.1101398  
O   -2.4392812    0.0001143   -2.7472517  
C   -1.1911210   -0.0000008   -0.6955262  
O   -2.4371530   -0.0002321   -0.1032856  
C    0.0000000    0.0000000    0.0000000  
H    3.0031533   -0.0000661    0.6222589  
H   -0.1193551    0.0014842   -3.9297465  
H   -3.1132988   -0.0000649   -2.0551781  
H   -2.3200286   -0.0004070    0.8516415  
H    4.3686622    0.0004069   -1.7024291  
C    3.8594204   -0.7175077   -4.5601988  
C    2.8310659   -0.0116220   -4.0232747  
C    2.2094024    0.7153300   -5.1048987  
C    2.9652785    0.3726183   -6.3247312  
N    3.9521592   -0.4993327   -5.9264123  
C    2.6888637    0.8568055   -7.5620111  
C    1.5725228    1.7770483   -7.7015487  
O    1.2438400    2.2678073   -8.7736603  
C    0.7583121    2.1540909   -6.4229925  
O   -0.1835068    2.9281700   -6.5280646  
C    1.1517637    1.5673729   -5.1443959  
H    3.2557692    0.5925696   -8.4438887  
H    0.5827554    1.8333881   -4.2639475  
H    4.5574573   -1.3785741   -4.0727306  
C    4.9501295   -1.1081275   -6.8176614  
C    5.9521032   -1.9737635   -6.5163347  
C    6.6430794   -2.2639915   -7.7504968  
C    5.9566249   -1.4909170   -8.8030777  
N    4.9396740   -0.8120966   -8.1722817  
C    6.3097115   -1.4941140  -10.1134298  
C    7.4412115   -2.3138273  -10.5138188  
O    7.8368680   -2.3839975  -11.6700345  
C    8.1827942   -3.1409925   -9.4157940  
O    9.1366390   -3.8350284   -9.7409928  
C    7.7094597   -3.0559495   -8.0364556  
H    6.1809189   -2.3645420   -5.5408608  
H    5.7928708   -0.9196314  -10.8695747  
H    8.2285006   -3.6315942   -7.2821655  
H    4.2911753   -0.1949505   -8.6257438  
C    0.0000000    0.0000000    1.4700000  
C    1.0541688    0.0001722    2.3260392  
C    0.5103138    0.0000454    3.6635956  
C   -0.9576371   -0.0002459    3.5155732  
N   -1.2018458    0.0001392    2.1615969  
C   -1.8348311   -0.0008317    4.5510609  
C   -1.2972847   -0.0009736    5.9014604  
O   -2.0050672   -0.0014265    6.9001319  
C    0.2542623   -0.0004184    6.0817573  
O    0.7184670   -0.0002256    7.2139121  
C    1.0974552   -0.0000873    4.8889129  
H    2.0940752    0.0005483    2.0517982  
H   -2.9081052   -0.0011668    4.4207061  
H    2.1707277    0.0000911    5.0223670  
H   -2.1128194   -0.0014912    1.7406791  
