58

C    7.7661603   -1.0876644   -4.0447621  
C    6.9454050   -0.0095700   -4.1350277  
C    7.7781036    1.1287379   -4.4443878  
C    9.1611732    0.6217992   -4.5275787  
N    9.0855238   -0.7285392   -4.2750848  
C   10.2461358    1.3892448   -4.8025142  
C   10.0378048    2.8093387   -5.0315712  
O   10.9507643    3.5839717   -5.2860270  
C    8.5814882    3.3678996   -4.9481711  
O    8.3937982    4.5619130   -5.1388671  
C    7.4931224    2.4420670   -4.6446148  
H   11.2522442    0.9975045   -4.8590305  
H    6.4877084    2.8367309   -4.5888710  
H    7.5182090   -2.1142704   -3.8291482  
H    9.8679513   -1.3567843   -4.2623054  
C    4.3047787   -2.1086497   -1.2859243  
C    5.3774559   -1.6442158   -1.9771117  
C    4.8701585   -0.7486136   -2.9897228  
C    3.4034921   -0.7291861   -2.8306570  
N    3.1250156   -1.5744515   -1.7814352  
C    2.5562217   -0.0001543   -3.6003001  
C    3.1269048    0.8199331   -4.6559101  
O    2.4474936    1.5122577   -5.4024942  
C    4.6776928    0.8144235   -4.8425423  
O    5.1696069    1.5006860   -5.7281633  
C    5.4870227   -0.0121789   -3.9505975  
H    6.4066157   -1.8999862   -1.7981561  
H    4.2768480   -2.7963881   -0.4563908  
H    2.2064273   -1.7712342   -1.4285625  
C    0.0000000    0.0000000    0.0000000  
C    1.0541688   -0.0001719   -0.8560391  
C    0.5103141   -0.0000449   -2.1935955  
C   -0.9576367    0.0002461   -2.0455733  
N   -1.2018459   -0.0001392   -0.6915970  
C   -1.8348306    0.0008319   -3.0810611  
C   -1.2972842    0.0009739   -4.4314605  
O   -2.0050664    0.0014267   -5.4301321  
C    0.2542628    0.0004190   -4.6117571  
O    0.7184677    0.0002263   -5.7439119  
C    1.0974556    0.0000880   -3.4189127  
H    2.0940752   -0.0005479   -0.5817978  
H   -2.9081050    0.0011669   -2.9507065  
H   -2.1128195    0.0014911   -0.2706793  
C    0.0000000    0.0000000    1.4700000  
C    1.0541688    0.0001722    2.3260392  
C    0.5103138    0.0000454    3.6635956  
C   -0.9576371   -0.0002459    3.5155732  
N   -1.2018458    0.0001392    2.1615969  
C   -1.8348311   -0.0008317    4.5510609  
C   -1.2972847   -0.0009736    5.9014604  
O   -2.0050672   -0.0014265    6.9001319  
C    0.2542623   -0.0004184    6.0817573  
O    0.7184670   -0.0002256    7.2139121  
C    1.0974552   -0.0000873    4.8889129  
H    2.0940752    0.0005483    2.0517982  
H   -2.9081052   -0.0011668    4.4207061  
H    2.1707277    0.0000911    5.0223670  
H   -2.1128194   -0.0014912    1.7406791  
