58

C    0.5438764   -0.7269789   -5.2249517  
C    0.2435449   -0.5104541   -6.5314703  
C   -0.8630385    0.4166032   -6.5610253  
C   -1.1850645    0.7246559   -5.1545426  
N   -0.2963289   -0.0005348   -4.3948470  
C   -2.1741700    1.5652353   -4.7585602  
C   -2.9751652    2.2093694   -5.7861948  
O   -3.8889529    2.9828540   -5.5312132  
C   -2.6518670    1.8975060   -7.2821978  
O   -3.3196710    2.4336645   -8.1561721  
C   -1.5609170    0.9743850   -7.5847347  
H    0.7403659   -0.9501387   -7.3779103  
H   -2.3938454    1.7776376   -3.7214791  
H   -1.3433394    0.7639124   -8.6230439  
H    1.3081767   -1.3562881   -4.7986825  
C    3.1301148   -0.0010315   -1.7028253  
C    2.5367766   -0.0002767   -0.4864666  
C    1.1089903    0.0001025   -0.7656183  
C    1.0177867   -0.0004153   -2.2415131  
N    2.1993574   -0.0011616   -2.7963821  
C   -0.2459218   -0.0002884   -2.9257117  
C   -1.3675324   -0.0000610   -2.1698519  
O   -2.6129318    0.0000862   -2.6748483  
C   -1.3083588    0.0000908   -0.6783229  
O   -2.3693264    0.0004202   -0.0541688  
C    0.0000000    0.0000000    0.0000000  
H    3.0096015   -0.0001006    0.4807520  
H   -3.1967441    0.0002093   -1.8949029  
C    6.7235401   -0.0015095    0.8630511  
C    5.4473218   -0.0011277    0.3990034  
C    5.5236514   -0.0015789   -1.0428735  
C    6.9592461   -0.0022888   -1.3832524  
N    7.6329843   -0.0018118   -0.1836828  
C    7.4493961   -0.0032614   -2.6487391  
C    6.4996346   -0.0034075   -3.7489606  
O    6.8417407   -0.0041923   -4.9242320  
C    4.9744853   -0.0024128   -3.4117305  
O    4.1654296   -0.0022195   -4.3297119  
C    4.5679459   -0.0016858   -2.0086704  
H    4.5543634   -0.0004090    0.9983689  
H    8.5062542   -0.0038999   -2.8766909  
H    7.0761900   -0.0013785    1.8816424  
H    8.6315326   -0.0036620   -0.0839629  
C    2.3971438    2.0127888    3.1728260  
C    1.9431056    1.6308205    1.9564670  
C    0.8496017    0.7127664    2.2356185  
C    0.7794028    0.6545384    3.7115134  
N    1.6840587    1.4146091    4.2663826  
C   -0.1885723   -0.1578550    4.3957118  
C   -1.0476298   -0.8789867    3.6398520  
O   -2.0015663   -1.6796266    4.1448486  
C   -1.0022026   -0.8410666    2.1483229  
O   -1.8147390   -1.5232959    1.5241687  
C    0.0000000    0.0000000    1.4700000  
H    2.3054237    1.9346118    0.9892483  
H   -0.2170646   -0.1815267    5.4753125  
H   -2.4487139   -2.0549881    3.3649027  
H    3.2048689    2.6911772    3.3971983  
