60

C    1.1188646    0.0008220   -0.8003801  
C    0.0000000    0.0000000    0.0000000  
C   -1.1323860    0.0008894   -0.8673528  
C   -0.6382654    0.0019673   -2.1969280  
N    0.7324025    0.0038478   -2.1202232  
C   -1.4770902    0.0027309   -3.3154810  
C   -2.8395464    0.0020933   -3.0876864  
O   -3.7039182    0.0024410   -4.1440360  
C   -3.3517863    0.0013920   -1.7684340  
O   -4.7300483    0.0012355   -1.7073139  
C   -2.5248541    0.0009116   -0.6644824  
H    1.3576325   -0.0056173   -2.9057035  
H   -4.5940018    0.0021812   -3.7685149  
H   -4.9934594    0.0007251   -0.7819934  
H   -2.9462581    0.0005599    0.3339650  
H    2.1619894    0.0009355   -0.5342064  
C    1.8844602   -2.1024773   -5.2000011  
C    1.7579345   -1.6369225   -6.4693809  
C    0.6249300   -0.7419070   -6.4785604  
C    0.0979886   -0.7240456   -5.1005896  
N    0.9053945   -1.5695653   -4.3752745  
C   -0.9736279    0.0040452   -4.6965763  
C   -1.6535170    0.8246999   -5.6849145  
O   -2.6280792    1.5162643   -5.4198329  
C   -1.1127762    0.8208452   -7.1503123  
O   -1.6771942    1.5075977   -7.9911833  
C    0.0504567   -0.0048517   -7.4649010  
H    0.4187513   -0.0017873   -8.4817950  
H    2.6104418   -2.7902104   -4.7976784  
H    0.8008863   -1.7673178   -3.3970009  
C    2.6170240   -1.9850051   -7.6103029  
C    3.6889571   -2.8176458   -7.6520799  
C    4.1757478   -2.8093472   -9.0114180  
C    3.2932374   -1.8970558   -9.7635422  
N    2.3692686   -1.4308408   -8.8570021  
C    3.4229776   -1.6177274  -11.0852261  
C    4.5038080   -2.2585345  -11.8157776  
O    4.7038363   -2.0718039  -13.0088499  
C    5.4503611   -3.2286142  -11.0393833  
O    6.3636659   -3.7741821  -11.6439425  
C    5.2103719   -3.4501732   -9.6155965  
H    4.0924785   -3.3742813   -6.8250725  
H    2.7648817   -0.9453832  -11.6179295  
H    5.8703730   -4.1231303   -9.0852650  
H    1.6301730   -0.7856668   -9.0680371  
C    2.4951002    2.0940188    2.9809380  
C    1.9440701    1.6314916    1.8291961  
C    0.8759964    0.7350050    2.2038498  
C    0.8497377    0.7130254    3.6788474  
N    1.8560616    1.5571714    4.0882609  
C   -0.0205033   -0.0168748    4.4215661  
C   -0.9962600   -0.8356168    3.7214979  
O   -1.8224391   -1.5286685    4.3006425  
C   -0.9864710   -0.8277881    2.1595606  
O   -1.8030528   -1.5133726    1.5592035  
C    0.0000000    0.0000000    1.4700000  
H    2.2509283    1.8888011    0.8310761  
H   -0.0229599   -0.0187323    5.5027230  
H    3.3143982    2.7817323    3.1139444  
H    2.0889452    1.7545833    5.0442112  
