58

C   -7.7039669   -0.0209486   -2.0437484  
C   -8.4094958    0.6548309   -1.1005485  
C   -9.7981302    0.3026519   -1.2808291  
C   -9.8440997   -0.6404827   -2.4144846  
N   -8.5422958   -0.7944287   -2.8322106  
C  -10.9786815   -1.2065981   -2.8981609  
C  -12.2386596   -0.8639803   -2.2597237  
O  -13.3148533   -1.3210691   -2.6219107  
C  -12.2135886    0.1330059   -1.0575610  
O  -13.2682029    0.4291861   -0.5122832  
C  -10.9284142    0.6773897   -0.6264854  
H   -8.0035093    1.3238315   -0.3628316  
H  -10.9904788   -1.8962094   -3.7307519  
H  -10.9196528    1.3668734    0.2067365  
H   -8.2465159   -1.3801761   -3.5914612  
C   -4.3991018    2.0926372   -0.0704356  
C   -3.3610091    1.6305297   -0.8140045  
C   -3.9159997    0.7341915   -1.8006144  
C   -5.3729686    0.7118418   -1.5692438  
N   -5.6007885    1.5556536   -0.5067139  
C   -6.2559170   -0.0180489   -2.2968190  
C   -5.7365716   -0.8363894   -3.3799320  
O   -6.4507771   -1.5294002   -4.0926372  
C   -4.1968644   -0.8281649   -3.6426855  
O   -3.7479707   -1.5134097   -4.5516379  
C   -3.3460097   -0.0004262   -2.7913647  
H   -2.3247243    1.8880235   -0.6858468  
H   -4.3873341    2.7801296    0.7596882  
H   -6.5015168    1.7527684   -0.1106326  
C    0.0000000    0.0000000    0.0000000  
C    1.0662919   -0.0000103   -0.8334272  
C    0.4961868    0.0000066   -2.1718889  
C   -0.9663860   -0.0000849   -1.9540248  
N   -1.2632775   -0.0000084   -0.6828659  
C   -1.8985364   -0.0000515   -3.0477258  
C   -1.3925778    0.0004567   -4.3020543  
O   -2.1456385    0.0005412   -5.4151314  
C    0.0786229    0.0009326   -4.5544999  
O    0.4683756    0.0012594   -5.7221104  
C    1.0143162    0.0008443   -3.4159034  
H    2.1107195    0.0000631   -0.5721869  
H   -1.5042277    0.0009692   -6.1484420  
H    2.0724151    0.0013151   -3.6409746  
C    3.3321173   -0.0004715    2.8079335  
C    2.6974184   -0.0000116    4.0032312  
C    1.2800439    0.0002118    3.6752840  
C    1.2395035   -0.0000644    2.1971295  
N    2.4394063   -0.0005460    1.6831036  
C    0.0000000    0.0000000    1.4700000  
C   -1.1468701   -0.0000635    2.1869543  
O   -2.3742202   -0.0000073    1.6395491  
C   -1.1388768   -0.0001607    3.6796354  
O   -2.2206231   -0.0000905    4.2670412  
C    0.1454524   -0.0001816    4.4024240  
H    3.1367986    0.0000651    4.9860947  
H   -2.9844344   -0.0001026    2.3990168  
H    0.1083576   -0.0003682    5.4835595  
H    4.3940039   -0.0007619    2.6198634  
