58

C    6.6249928   -3.4025689   -4.6881775  
C    7.7434387   -3.4338287   -5.4577074  
C    7.9504889   -2.0938494   -5.9541147  
C    6.8531349   -1.2734778   -5.4067597  
N    6.0845267   -2.1262219   -4.6484993  
C    6.6929178    0.0531229   -5.6437515  
C    7.6660941    0.7172244   -6.4948878  
O    7.6087104    1.9090236   -6.7680605  
C    8.8363083   -0.1321748   -7.0855846  
O    9.6615475    0.4159536   -7.8037730  
C    8.9034153   -1.5542549   -6.7584197  
H    8.3536572   -4.2970992   -5.6552227  
H    5.8809174    0.6364869   -5.2323490  
H    9.7168666   -2.1352784   -7.1712511  
H    6.1499867   -4.2046091   -4.1468915  
C    4.4889027   -2.1447426   -2.6754911  
C    4.8757512   -1.7386739   -3.9071713  
C    3.8306321   -0.8272354   -4.3470646  
C    2.8651831   -0.7989832   -3.2273794  
N    3.2457607   -1.5692932   -2.2446421  
C    1.6707636   -0.0012343   -3.2725974  
C    1.4510169    0.7351291   -4.3856180  
O    0.3782656    1.5248306   -4.5634278  
C    2.4067067    0.7280663   -5.5322517  
O    2.1427791    1.4226352   -6.5136471  
C    3.6247812   -0.0985266   -5.4618018  
H    0.5021831    1.9161680   -5.4469733  
H    4.2917393   -0.0759844   -6.3132055  
H    4.9956247   -2.8269105   -2.0115233  
C    1.0965514    0.0001358   -0.8010306  
C    0.0000000    0.0000000    0.0000000  
C   -1.1546565    0.0001470   -0.8669508  
C   -0.6372019    0.0003520   -2.2486278  
N    0.7342867    0.0007338   -2.1395012  
C   -1.4147744    0.0001354   -3.3608712  
C   -2.8576052   -0.0001047   -3.1854454  
O   -3.6427785   -0.0002490   -4.1244896  
C   -3.4275841   -0.0000727   -1.7311660  
O   -4.6406832    0.0000333   -1.5710049  
C   -2.4891868   -0.0001090   -0.6116739  
H   -1.0150456    0.0001617   -4.3654239  
H   -2.8919122   -0.0002919    0.3920871  
H    2.1388270    0.0000663   -0.5261650  
C    0.0000000    0.0000000    1.4700000  
C    1.0662921    0.0000102    2.3034270  
C    0.4961870   -0.0000064    3.6418889  
C   -0.9663858    0.0000850    3.4240247  
N   -1.2632773    0.0000084    2.1528658  
C   -1.8985362    0.0000517    4.5177257  
C   -1.3925775   -0.0004564    5.7720543  
O   -2.1456383   -0.0005410    6.8851312  
C    0.0786232   -0.0009323    6.0245000  
O    0.4683759   -0.0012588    7.1921102  
C    1.0143166   -0.0008442    4.8859032  
H    2.1107198   -0.0000632    2.0421868  
H   -2.9622183    0.0003270    4.3293377  
H   -1.5042274   -0.0009692    7.6184419  
H    2.0724152   -0.0013148    5.1109744  
