60

C    0.0000000    0.0000000    0.0000000  
C    0.7161582    0.7708264   -0.8862346  
C    0.3351591    0.3598042   -2.1979133  
C   -0.6248125   -0.6735721   -2.0478680  
N   -0.8037548   -0.8684587   -0.7007909  
C   -1.2211550   -1.3158350   -3.1372086  
C   -0.8417204   -0.9072625   -4.4010424  
O   -1.3930090   -1.5004907   -5.4997571  
C    0.1147669    0.1218130   -4.5711966  
O    0.3872139    0.4146758   -5.8915555  
C    0.7036837    0.7556762   -3.4969895  
H    1.4266810    1.5345665   -0.6200570  
H   -1.4344378   -1.5323841   -0.2891820  
H   -1.9533290   -2.1042084   -3.0295504  
H   -0.9953892   -1.0728501   -6.2693589  
H    1.0419248    1.1191314   -5.9180051  
C    4.4678147    1.7097850   -1.4465424  
C    4.8456965    2.7981262   -2.1654262  
C    3.8269733    3.0168504   -3.1650256  
C    2.8173639    1.9591569   -2.9681412  
N    3.2650980    1.2000144   -1.9116725  
C    1.6934786    1.8202155   -3.7159930  
C    1.4629351    2.7760666   -4.7863826  
O    0.4805698    2.7354962   -5.5155011  
C    2.5191224    3.9043025   -5.0130032  
O    2.3359316    4.7146442   -5.9113624  
C    3.6907669    3.9513943   -4.1418640  
H    4.4172311    4.7357963   -4.3052256  
H    4.9668776    1.2371155   -0.6162355  
H    2.7901917    0.4001999   -1.5350985  
C    7.3058647    3.1522416   -1.6542549  
C    6.0633189    3.5949206   -1.9570662  
C    6.1891169    5.0422625   -2.0337244  
C    7.6141089    5.3084888   -1.7419956  
N    8.2737598    4.2043871   -1.5188149  
C    8.1502618    6.6415986   -1.7209615  
C    7.3015187    7.6623219   -1.9799859  
O    7.6653967    8.9559386   -1.9937365  
C    5.8581509    7.4259276   -2.2782623  
O    5.1435424    8.4022986   -2.5046572  
C    5.3322456    6.0492996   -2.2938757  
H    9.1956066    6.8069673   -1.5045891  
H    6.8480304    9.4411635   -2.2073287  
H    4.2810576    5.9203449   -2.5143414  
H    7.6313996    2.1342983   -1.5100593  
C    1.0965515   -0.0001358    2.2710304  
C    0.0000000    0.0000000    1.4700000  
C   -1.1546562   -0.0001469    2.3369512  
C   -0.6372014   -0.0003519    3.7186280  
N    0.7342871   -0.0007337    3.6095011  
C   -1.4147739   -0.0001353    4.8308716  
C   -2.8576048    0.0001048    4.6554461  
O   -3.6427778    0.0002493    5.5944904  
C   -3.4275839    0.0000726    3.2011665  
O   -4.6406829   -0.0000333    3.0410059  
C   -2.4891866    0.0001091    2.0816745  
H   -1.0150448   -0.0001615    5.8354244  
H   -2.8919121    0.0002919    1.0779135  
H    2.1388271   -0.0000662    1.9961646  
H    1.3735872    0.0006099    4.3830260  
