58

C    0.4742963   -3.2337340  -10.2976316  
C    0.3063879   -2.5197220  -11.4404655  
C    0.0767207   -1.1486320  -11.0503378  
C    0.1249654   -1.1221925   -9.5759675  
N    0.3689152   -2.4175242   -9.1816410  
C   -0.0456301   -0.0074888   -8.8209595  
C   -0.2935078    1.2501123   -9.5061843  
O   -0.4601856    2.3090524   -8.9152819  
C   -0.3489825    1.2454362  -11.0671792  
O   -0.5573055    2.2981579  -11.6550895  
C   -0.1496581   -0.0191014  -11.7707893  
H    0.3394460   -2.9091138  -12.4424110  
H   -0.1893831   -0.0137604  -12.8515838  
H    0.6659422   -4.2875644  -10.1767858  
H    0.4587855   -2.7225707   -8.2298441  
C    2.5563879   -2.1074457   -5.9371924  
C    1.9637245   -1.6426518   -7.0671445  
C    0.9098266   -0.7472305   -6.6519876  
C    0.9372954   -0.7283018   -5.1769697  
N    1.9574933   -1.5736536   -4.8062060  
C    0.0950446    0.0004351   -4.4015596  
C   -0.9054232    0.8207085   -5.0639425  
O   -1.7097172    1.5127954   -4.4536737  
C   -0.9528376    0.8157261   -6.6252021  
O   -1.7910236    1.5021490   -7.1939971  
C    0.0078423   -0.0105934   -7.3519361  
H    2.2338703   -1.8980699   -8.0763008  
H    3.3801404   -2.7951869   -5.8355360  
H    2.2269418   -1.7707467   -3.8598449  
C    3.3321173    0.0004713   -1.3379338  
C    2.6974181    0.0000116   -2.5332314  
C    1.2800438   -0.0002119   -2.2052841  
C    1.2395034    0.0000643   -0.7271299  
N    2.4394062    0.0005460   -0.2131038  
C    0.0000000    0.0000000    0.0000000  
C   -1.1468702    0.0000634   -0.7169543  
O   -2.3742203    0.0000074   -0.1695487  
C   -1.1388770    0.0001607   -2.2096355  
O   -2.2206234    0.0000905   -2.7970411  
C    0.1454522    0.0001815   -2.9324241  
H    3.1367984   -0.0000653   -3.5160950  
H   -2.9844346    0.0001026   -0.9290167  
H    4.3940038    0.0007618   -1.1498640  
C    0.8681109    0.7263879    2.2709268  
C    0.6127770    0.5096195    3.5869401  
C   -0.4920590   -0.4175482    3.6542670  
C   -0.8620974   -0.7254003    2.2596025  
N    0.0000000    0.0000000    1.4700000  
C   -1.8641242   -1.5660088    1.8976294  
C   -2.6293522   -2.2103885    2.9520183  
O   -3.5512764   -2.9839180    2.7283916  
C   -2.2549728   -1.8987399    4.4361073  
O   -2.8923672   -2.4351063    5.3323774  
C   -1.1543735   -0.9755647    4.7012123  
H    1.1382914    0.9492124    4.4159191  
H   -2.1192137   -1.7782617    0.8686553  
H   -0.9013378   -0.7652422    5.7314848  
H    1.6172880    1.3558399    1.8188057  
