62

C    3.3003547    0.0005275   -1.4738980  
C    2.5232816    0.0003495   -2.6090742  
C    1.1623206   -0.0001320   -2.1820096  
C    1.1711889    0.0000583   -0.7636136  
N    2.4852300   -0.0014920   -0.3662353  
C    0.0000000    0.0000000    0.0000000  
C   -1.2020382    0.0000519   -0.6806479  
O   -2.3759247    0.0003494    0.0157745  
C   -1.2314650   -0.0005113   -2.0955508  
O   -2.5054383   -0.0008037   -2.6250181  
C   -0.0764510   -0.0007273   -2.8495192  
H    2.8919962   -0.0005621   -3.6205295  
H    2.8036265    0.0088181    0.5858667  
H   -3.0835641    0.0000347   -0.6418820  
H   -2.4360047   -0.0011529   -3.5845921  
C    6.6264032    0.0032391   -4.4617161  
C    5.3881255    0.0032370   -3.8624358  
C    5.6076652    0.0015203   -2.4530389  
C    7.0115532    0.0008108   -2.2504935  
N    7.6002641   -0.0000642   -3.4906694  
C    7.5921595   -0.0005634   -0.9786118  
C    6.7400262   -0.0009265    0.1086077  
O    7.2537882   -0.0019039    1.3731475  
C    5.3365293   -0.0006068   -0.0730883  
O    4.6231719   -0.0014619    1.1077864  
C    4.7630506    0.0004754   -1.3275394  
H    4.4428895    0.0032321   -4.3777240  
H    8.5891806    0.0098628   -3.6636588  
H    8.6613880   -0.0012540   -0.8175187  
H    6.4980460   -0.0022988    1.9749102  
H    3.6846504   -0.0011488    0.8961682  
H    6.8919812    0.0038900   -5.5049934  
C    2.2675107   -2.0960614   -5.9498174  
C    1.7744254   -1.6329638   -4.7723274  
C    0.6888627   -0.7368509   -5.0938394  
C    0.5891940   -0.7157122   -6.5657122  
N    1.5740363   -1.5599388   -7.0242501  
C   -0.3170773    0.0136354   -7.2645893  
C   -1.2569144    0.8326276   -6.5172655  
O   -2.1110276    1.5252262   -7.0549445  
C   -1.1693688    0.8256867   -4.9577486  
O   -1.9551691    1.5114887   -4.3178628  
C   -0.1496409   -0.0015614   -4.3176961  
H    2.1306445   -1.8896608   -3.7905799  
H   -0.3733609    0.0148791   -8.3442837  
H    3.0792932   -2.7837270   -6.1230660  
H    1.7590703   -1.7578581   -7.9904993  
C    0.0000000    0.0000000    1.4700000  
C    1.0541688    0.0001722    2.3260392  
C    0.5103138    0.0000454    3.6635956  
C   -0.9576371   -0.0002459    3.5155732  
N   -1.2018458    0.0001392    2.1615969  
C   -1.8348311   -0.0008317    4.5510609  
C   -1.2972847   -0.0009736    5.9014604  
O   -2.0050672   -0.0014265    6.9001319  
C    0.2542623   -0.0004184    6.0817573  
O    0.7184670   -0.0002256    7.2139121  
C    1.0974552   -0.0000873    4.8889129  
H    2.0940752    0.0005483    2.0517982  
H   -2.9081052   -0.0011668    4.4207061  
H    2.1707277    0.0000911    5.0223670  
H   -2.1128194   -0.0014912    1.7406791  
