62

C   -3.3003048   -0.0180813   -1.4738990  
C   -2.5232434   -0.0137704   -2.6090748  
C   -1.1623041   -0.0060503   -2.1820101  
C   -1.1711715   -0.0062876   -0.7636139  
N   -2.4852029   -0.0117264   -0.3662359  
C    0.0000000    0.0000000    0.0000000  
C    1.2020219    0.0063413   -0.6806473  
O    2.3758929    0.0122874    0.0157751  
C    1.2314458    0.0070609   -2.0955504  
O    2.5053993    0.0141292   -2.6250173  
C    0.0764470    0.0011336   -2.8495193  
H   -2.8919567   -0.0148199   -3.6205303  
H   -2.8035400   -0.0237297    0.5858662  
H    3.0835203    0.0163658   -0.6418815  
H    2.4359652    0.0141089   -3.5845914  
H    0.1304016    0.0020356   -3.9319084  
C   -5.6726170   -0.0298386   -2.3740990  
C   -6.9487381   -0.0344181   -1.9098047  
C   -6.8721345   -0.0329309   -0.4679428  
C   -5.4364862   -0.0270381   -0.1278415  
N   -4.7629802   -0.0258089   -1.3275409  
C   -4.9461003   -0.0236820    1.1375498  
C   -5.8956468   -0.0262567    2.2379541  
O   -5.5533209   -0.0236523    3.4131595  
C   -7.4208477   -0.0327446    1.9010189  
O   -8.2297224   -0.0352658    2.8191569  
C   -7.8276502   -0.0356372    0.4980380  
H   -3.8892082   -0.0192401    1.3652972  
H   -8.8855550   -0.0399240    0.2732204  
H   -5.3201639   -0.0292852   -3.3927578  
C   -8.1694305   -0.0400901   -2.7288154  
C   -8.3191437   -0.0431408   -4.0963110  
C   -9.7206168   -0.0490378   -4.3617132  
C  -10.3818636   -0.0490382   -3.1068509  
N   -9.4106495   -0.0454885   -2.1366207  
C  -11.7747589   -0.0538198   -2.9859830  
C  -12.5135889   -0.0583827   -4.1531531  
O  -13.8771699   -0.0628084   -4.0928051  
C  -11.8721165   -0.0588365   -5.4146325  
O  -12.7456864   -0.0640505   -6.4824295  
C  -10.4980318   -0.0543944   -5.5346247  
H   -7.5169174   -0.0424429   -4.8142425  
H   -9.5790521   -0.0340788   -1.1469275  
H  -12.2848134   -0.0539917   -2.0325436  
H  -14.1909073   -0.0657989   -5.0064923  
H  -12.2318245   -0.0639742   -7.2957865  
H  -10.0350371   -0.0550492   -6.5144787  
C    0.8400945    0.7047457    2.2710304  
C    0.0000000    0.0000000    1.4700000  
C   -0.8844236   -0.7423113    2.3369512  
C   -0.4878984   -0.4098547    3.7186280  
N    0.5629682    0.4714286    3.6095011  
C   -1.0836927   -0.9095027    4.8308716  
C   -2.1891196   -1.8367527    4.6554461  
O   -2.7906899   -2.3413415    5.5944904  
C   -2.6257283   -2.2031529    3.2011665  
O   -3.5549479   -2.9829990    3.0410059  
C   -1.9068976   -1.5999348    2.0816745  
H   -0.7774656   -0.6525820    5.8354244  
H   -2.2155208   -1.8586617    1.0779135  
H    1.6384792    1.3747609    1.9961646  
H    1.0518368    0.8833920    4.3830260  
