60

C    0.0000000    0.0000000    0.0000000  
C    1.0521656   -0.0011982   -0.8862348  
C    0.4917205   -0.0011991   -2.1979135  
C   -0.9187439    0.0003223   -2.0478679  
N   -1.1833177   -0.0009317   -0.7007907  
C   -1.7951716    0.0010496   -3.1372083  
C   -1.2375857    0.0005328   -4.4010421  
O   -2.0474240    0.0015528   -5.4997570  
C    0.1673557   -0.0013572   -4.5711966  
O    0.5673492   -0.0020720   -5.8915554  
C    1.0325752   -0.0023487   -3.4969897  
H    2.0953050   -0.0030811   -0.6200571  
H   -2.0989779    0.0102537   -0.2891815  
H   -1.4634917    0.0006620   -6.2693585  
H    1.5290675   -0.0033264   -5.9180055  
H    2.1042124   -0.0039767   -3.6584465  
C   -4.5106950    2.0951617   -0.3556513  
C   -3.4200203    1.6321507   -1.0190705  
C   -3.9000872    0.7371740   -2.0454173  
C   -5.3703925    0.7166080   -1.9247105  
N   -5.6766992    1.5600469   -0.8817935  
C   -6.1968247   -0.0116513   -2.7173976  
C   -5.5982377   -0.8299925   -3.7588133  
O   -6.2574838   -1.5216045   -4.5239072  
C   -4.0430796   -0.8236411   -3.9045777  
O   -3.5277217   -1.5089037   -4.7775508  
C   -3.2578668    0.0024299   -2.9908493  
H   -2.3960405    1.8881902   -0.8128605  
H   -4.5607518    2.7821119    0.4734953  
H   -6.6045068    1.7581042   -0.5546943  
C   -7.6598494   -0.0127929   -2.5743652  
C   -8.4102935    0.6709975   -1.6794671  
C   -9.7846562    0.3040073   -1.9843364  
C   -9.6762302   -0.6345471   -3.1218528  
N   -8.4331032   -0.8241871   -3.4720810  
C  -10.8338247   -1.2337490   -3.7268457  
C  -12.0446712   -0.9103489   -3.2183179  
O  -13.2082741   -1.3946515   -3.6847087  
C  -12.1868506    0.0334220   -2.0706063  
O  -13.3200131    0.2824386   -1.6593226  
C  -10.9843138    0.6349749   -1.4673126  
H   -8.0728809    1.3415397   -0.9077147  
H  -10.7251838   -1.9161463   -4.5571717  
H  -13.8905400   -0.9838416   -3.1235482  
H  -11.1298662    1.3136098   -0.6375542  
C    0.0000000    0.0000000    1.4700000  
C    1.0541688    0.0001722    2.3260392  
C    0.5103138    0.0000454    3.6635956  
C   -0.9576371   -0.0002459    3.5155732  
N   -1.2018458    0.0001392    2.1615969  
C   -1.8348311   -0.0008317    4.5510609  
C   -1.2972847   -0.0009736    5.9014604  
O   -2.0050672   -0.0014265    6.9001319  
C    0.2542623   -0.0004184    6.0817573  
O    0.7184670   -0.0002256    7.2139121  
C    1.0974552   -0.0000873    4.8889129  
H    2.0940752    0.0005483    2.0517982  
H   -2.9081052   -0.0011668    4.4207061  
H    2.1707277    0.0000911    5.0223670  
H   -2.1128194   -0.0014912    1.7406791  
