58

C   -4.8172591    2.0890681   -6.6129516  
C   -3.5658329    1.6279316   -6.8686071  
C   -3.6693472    0.7327372   -7.9967678  
C   -5.0938714    0.7100003   -8.3801799  
N   -5.7359618    1.5525184   -7.5022435  
C   -5.6025989   -0.0190825   -9.4055283  
C   -4.6859795   -0.8360831  -10.1832521  
O   -5.0467452   -1.5282909  -11.1261198  
C   -3.1731058   -0.8274270   -9.7947391  
O   -2.3919561   -1.5115464  -10.4420769  
C   -2.7442356   -0.0006476   -8.6694134  
H   -2.6722244    1.8853491   -6.3284088  
H   -6.6508453   -0.0215187   -9.6702587  
H   -5.1456865    2.7755642   -5.8495720  
H   -6.7200219    1.7490899   -7.5080414  
C   -0.8287671    0.0000935   -4.7555305  
C    0.4848182    0.0005136   -5.0812193  
C    0.5106010    0.0006421   -6.5358100  
C   -0.9135391    0.0001375   -6.9338162  
N   -1.7033614   -0.0001048   -5.8945041  
C   -1.3181690    0.0001437   -8.3127145  
C   -0.3443518    0.0010207   -9.2513381  
O   -0.5775774    0.0011272  -10.5748360  
C    1.1017783    0.0019184   -8.8813818  
O    1.9341165    0.0025678   -9.7882630  
C    1.4913197    0.0018496   -7.4600501  
H    1.3316904    0.0008021   -4.4164766  
H    0.3072611    0.0018585  -10.9825257  
H    2.5491448    0.0026322   -7.2336964  
C    1.0672566   -0.0000698   -0.8321912  
C    0.0000000    0.0000000    0.0000000  
C   -1.1601226   -0.0000736   -0.8778472  
C   -0.5938732   -0.0000770   -2.2438435  
N    0.7113365   -0.0001555   -2.2234123  
C   -1.4286989   -0.0001880   -3.4135239  
C   -2.7683117   -0.0006800   -3.2270522  
O   -3.6653907   -0.0008306   -4.2276967  
C   -3.3702026   -0.0010611   -1.8610771  
O   -4.5974909   -0.0013781   -1.7662957  
C   -2.4926826   -0.0008944   -0.6770655  
H   -4.5324249   -0.0012263   -3.7833950  
H   -2.9677773   -0.0012975    0.2947963  
H    2.1134390   -0.0000546   -0.5705121  
C    2.5528530    2.1414826    2.8079335  
C    2.0663498    1.7338582    4.0032312  
C    0.9804344    0.8229586    3.6752840  
C    0.9495562    0.7966882    2.1971295  
N    1.8690446    1.5676019    1.6831036  
C    0.0000000    0.0000000    1.4700000  
C   -0.8785127   -0.7372425    2.1869543  
O   -1.8187535   -1.5261249    1.6395491  
C   -0.8723269   -0.7321790    3.6796354  
O   -1.7010379   -1.4274584    4.2670412  
C    0.1115397    0.0933559    4.4024240  
H    2.4028853    2.0163452    4.9860947  
H   -2.2861435   -1.9184361    2.3990168  
H    0.0832434    0.0693689    5.4835595  
H    3.3664920    2.8238276    2.6198634  
