60

C    0.0000000    0.0000000    0.0000000  
C    1.0521665   -0.0011901   -0.8862342  
C    0.4917217   -0.0011956   -2.1979130  
C   -0.9187428    0.0003148   -2.0478683  
N   -1.1833173   -0.0009411   -0.7007911  
C   -1.7951703    0.0010349   -3.1372088  
C   -1.2375840    0.0005224   -4.4010424  
O   -2.0474220    0.0015359   -5.4997576  
C    0.1673578   -0.0013566   -4.5711965  
O    0.5673521   -0.0020688   -5.8915549  
C    1.0325768   -0.0023412   -3.4969890  
H    2.0953059   -0.0030648   -0.6200563  
H   -2.0989774    0.0102371   -0.2891826  
H   -1.4634888    0.0006496   -6.2693593  
H    1.5290706   -0.0033152   -5.9180048  
C    4.2912352   -2.1142471   -1.4465410  
C    5.3462922   -1.6514996   -2.1654244  
C    4.8141503   -0.7556973   -3.1650238  
C    3.3521074   -0.7343150   -2.9681401  
N    3.0997482   -1.5787546   -1.9116716  
C    2.4861699   -0.0045381   -3.7159922  
C    3.0304419    0.8143454   -4.7863813  
O    2.3328560    1.5072095   -5.5155002  
C    4.5758841    0.8067605   -5.0130023  
O    5.0456332    1.4919960   -5.9113606  
C    5.4069277   -0.0204837   -4.1418624  
H    6.3794044   -1.9085119   -2.0129870  
H    6.4760567   -0.0200031   -4.3052233  
H    4.2838633   -2.8015795   -0.6162341  
H    2.1903304   -1.7741998   -1.5350979  
C   -3.9677030    0.7294872   -2.0473355  
C   -5.3028008    0.5139591   -2.1703661  
C   -5.4806590   -0.4130819   -3.2629762  
C   -4.1300541   -0.7222113   -3.7700230  
N   -3.2578657    0.0024038   -2.9908504  
C   -3.8704288   -1.5630988   -4.8030803  
C   -4.9963676   -2.2064521   -5.4595048  
O   -4.8663635   -2.9801364   -6.3990857  
C   -6.4355166   -1.8934434   -4.9392352  
O   -7.3912944   -2.4289381   -5.4842077  
C   -6.5888642   -0.9700851   -3.8177424  
H   -6.0749285    0.9542934   -1.5649424  
H   -2.8721634   -1.7762950   -5.1593433  
H   -7.5886279   -0.7588178   -3.4633940  
H   -3.4426508    1.3584747   -1.3469180  
C    1.1319247   -0.0015655    2.2709268  
C    0.7969915   -0.0034943    3.5869401  
C   -0.6453339   -0.0035710    3.6542670  
C   -1.1266833   -0.0015433    2.2596025  
N    0.0000000    0.0000000    1.4700000  
C   -2.4346130   -0.0013964    1.8976294  
C   -3.4350110   -0.0031408    2.9520183  
O   -4.6384611   -0.0030974    2.7283916  
C   -2.9478959   -0.0050506    4.4361073  
O   -3.7809380   -0.0062218    5.3323774  
C   -1.5113823   -0.0053090    4.7012123  
H    1.4821238   -0.0045407    4.4159191  
H   -2.7664565   -0.0000232    0.8686553  
H   -1.1823530   -0.0068408    5.7314848  
H    2.1104316   -0.0009391    1.8188057  
