64

C   -4.4706939    2.1246863   -0.3281855  
C   -5.6599773    1.6264302   -0.8075739  
C   -5.3396884    0.7516505   -1.8877475  
C   -3.9276469    0.7558733   -2.0220869  
N   -3.4313253    1.6012783   -1.0610604  
C   -3.2578655    0.0024282   -2.9908505  
C   -4.0275335   -0.7695739   -3.8392613  
O   -3.4247949   -1.5249625   -4.8031636  
C   -5.4377033   -0.7867282   -3.7211783  
O   -6.0624940   -1.6048442   -4.6396918  
C   -6.0991477   -0.0434783   -2.7658795  
H   -6.6381192    1.8650666   -0.4264133  
H   -2.4588255    1.7971334   -0.9065739  
H   -4.1336024   -1.9789340   -5.2772597  
H   -7.0119838   -1.5590482   -4.4914529  
H   -7.1803458   -0.0766723   -2.6996337  
C   -5.1791738    3.6570649    1.5507265  
C   -4.5772373    4.4871343    2.4678545  
C   -3.1709451    4.4048558    2.2438627  
C   -2.9729610    3.5017475    1.1681652  
N   -4.2126224    3.0647260    0.7720983  
C   -1.7050459    3.1793165    0.6749938  
C   -0.6171954    3.7797340    1.2785310  
O    0.6435690    3.5006788    0.8362468  
C   -0.7943453    4.6832027    2.3533234  
O    0.3866021    5.1972421    2.8477631  
C   -2.0448652    5.0015459    2.8405440  
H   -5.0887411    5.0782815    3.2080586  
H   -1.5474302    2.4916755   -0.1444633  
H    1.2465503    4.0172931    1.3865083  
H    0.1781800    5.7975330    3.5701310  
H   -2.1493178    5.6969355    3.6651664  
H   -6.2214082    3.4395808    1.3913271  
C    0.0000000    0.0000000    0.0000000  
C    1.0521666   -0.0011982   -0.8862343  
C    0.4917215   -0.0011996   -2.1979132  
C   -0.9187429    0.0003215   -2.0478682  
N   -1.1833171   -0.0009323   -0.7007913  
C   -1.7951703    0.0010483   -3.1372089  
C   -1.2375841    0.0005313   -4.4010422  
O   -2.0474218    0.0015510   -5.4997578  
C    0.1673576   -0.0013585   -4.5711963  
O    0.5673520   -0.0020735   -5.8915554  
C    1.0325768   -0.0023493   -3.4969892  
H    2.0953056   -0.0030808   -0.6200564  
H   -2.0989778    0.0102529   -0.2891822  
H   -1.4634888    0.0006601   -6.2693595  
H    1.5290707   -0.0033271   -5.9180047  
H    2.1042146   -0.0039770   -3.6584456  
C    3.2573670    0.0002920    2.9809380  
C    2.5379467    0.0001709    1.8291961  
C    1.1435042   -0.0000331    2.2038498  
C    1.1092607    0.0000083    3.6788474  
N    2.4227561   -0.0001909    4.0882609  
C   -0.0265533    0.0002524    4.4215661  
C   -1.3003036    0.0002640    3.7214979  
O   -2.3786784    0.0004133    4.3006425  
C   -1.2877726   -0.0000311    2.1595606  
O   -2.3539958   -0.0003306    1.5592035  
C    0.0000000    0.0000000    1.4700000  
H    2.9384090    0.0000368    0.8310761  
H   -0.0296291    0.0004086    5.5027230  
H    4.3270393    0.0004765    3.1139444  
H    2.7280493    0.0013407    5.0442112  
