58

C    5.9779324   -2.0928592   -4.4468273  
C    5.0400355   -1.6304888   -3.5804344  
C    4.1859906   -0.7341820   -4.3234533  
C    4.7069273   -0.7121372   -5.7036450  
N    5.7934744   -1.5560774   -5.7119679  
C    4.1728103    0.0176372   -6.7155010  
C    3.0072076    0.8361657   -6.4258172  
O    2.4535609    1.5290916   -7.2693982  
C    2.4388223    0.8282644   -4.9709354  
O    1.4580063    1.5136693   -4.7150426  
C    3.1006054    0.0006263   -3.9654951  
H    4.9561720   -1.8877883   -2.5395806  
H    4.5702548    0.0195454   -7.7209579  
H    6.3633299   -1.7534011   -6.5140748  
C    7.0833207   -3.0305131   -4.2022428  
C    7.4326403   -3.6604727   -3.0510686  
C    8.5903379   -4.4703191   -3.3489305  
C    8.8890074   -4.2589929   -4.7782412  
N    7.9388093   -3.3762287   -5.2373073  
C    9.9128901   -4.8493129   -5.4452408  
C   10.7783628   -5.7532990   -4.7061182  
O   11.7271889   -6.3337041   -5.2171584  
C   10.4804683   -5.9920589   -3.1915040  
O   11.2021032   -6.7512618   -2.5589580  
C    9.3479024   -5.2984694   -2.5831622  
H    6.9358888   -3.5684941   -2.1016521  
H   10.1146910   -4.6805955   -6.4939165  
H    9.1485263   -5.4690437   -1.5339353  
H    7.8775812   -3.0340811   -6.1787074  
C    3.2798083    0.0005857   -1.4499652  
C    2.5571142    0.0005565   -2.5996556  
C    1.1637432    0.0001548   -2.2210361  
C    1.1336964   -0.0000200   -0.7459473  
N    2.4483512   -0.0001428   -0.3402723  
C    0.0000000    0.0000000    0.0000000  
C   -1.2757368   -0.0000186   -0.6964415  
O   -2.3524598   -0.0000639   -0.1142311  
C   -1.2676497   -0.0000872   -2.2584083  
O   -2.3355766   -0.0004101   -2.8557295  
C    0.0181558    0.0001758   -2.9516296  
H    0.0150788    0.0003319   -4.0331631  
H    4.3498547    0.0008612   -1.3200026  
H    2.7563626    0.0012823    0.6148059  
C    2.5128556    2.1077716    2.9199648  
C    1.9592212    1.6432552    4.0696553  
C    0.8915788    0.7479214    3.6910360  
C    0.8684491    0.7287414    2.2159470  
N    1.8754542    1.5738793    1.8102719  
C    0.0000000    0.0000000    1.4700000  
C   -0.9772830   -0.8200135    2.1664417  
O   -1.8021297   -1.5120829    1.5842315  
C   -0.9711318   -0.8147624    3.7284083  
O   -1.7894187   -1.5009653    4.3257297  
C    0.0140216    0.0115358    4.4216297  
H    2.2638494    1.8988021    5.0689105  
H    0.0117648    0.0094386    5.5031631  
H    3.3327358    2.7953732    2.7900019  
H    2.1123206    1.7707734    0.8551938  
