58

C    8.7705111    0.0014522   -2.9707477  
C    8.0152734    0.0004285   -4.0993262  
C    8.9289945    0.0008985   -5.2173376  
C   10.2882116    0.0022607   -4.6434767  
N   10.1227521    0.0029360   -3.2776391  
C   11.4315039    0.0026502   -5.3746315  
C   11.3155882    0.0018881   -6.8234589  
O   12.2861405    0.0022203   -7.5693330  
C    9.8859898    0.0006954   -7.4527857  
O    9.7758736    0.0003529   -8.6714458  
C    8.7288390    0.0000912   -6.5612400  
H    6.9407245   -0.0003625   -4.1435728  
H   12.4187608    0.0035243   -4.9339124  
H    7.7424969   -0.0009396   -7.0049205  
H   10.8693202    0.0023354   -2.6070565  
C    4.7795901    0.0008674   -1.0815733  
C    5.8063529    0.0010475   -1.9702986  
C    7.0285665    0.0013957   -1.2015147  
C    6.6268097    0.0013744    0.2181265  
N    5.2509927    0.0014465    0.2224663  
C    7.4934510    0.0012527    1.2624622  
C    8.9169021    0.0013608    0.9686564  
O    9.7768360    0.0013263    1.8397559  
C    9.3650174    0.0016370   -0.5276718  
O   10.5607784    0.0020366   -0.7873207  
C    8.3375016    0.0014689   -1.5659693  
H    5.7176690    0.0011303   -3.0420957  
H    7.1779199    0.0011091    2.2965564  
H    4.6776564   -0.0001048    1.0460743  
C    3.3321168    0.0004716   -1.3379341  
C    2.6974177    0.0000118   -2.5332316  
C    1.2800432   -0.0002116   -2.2052842  
C    1.2395033    0.0000644   -0.7271298  
N    2.4394059    0.0005460   -0.2131041  
C    0.0000000    0.0000000    0.0000000  
C   -1.1468704    0.0000635   -0.7169542  
O   -2.3742206    0.0000074   -0.1695488  
C   -1.1388774    0.0001608   -2.2096352  
O   -2.2206238    0.0000906   -2.7970409  
C    0.1454514    0.0001818   -2.9324241  
H    3.1367978   -0.0000649   -3.5160956  
H   -2.9844350    0.0001027   -0.9290164  
H    0.1083567    0.0003684   -4.0135594  
C    2.3971438    2.0127888    3.1728260  
C    1.9431056    1.6308205    1.9564670  
C    0.8496017    0.7127664    2.2356185  
C    0.7794028    0.6545384    3.7115134  
N    1.6840587    1.4146091    4.2663826  
C   -0.1885723   -0.1578550    4.3957118  
C   -1.0476298   -0.8789867    3.6398520  
O   -2.0015663   -1.6796266    4.1448486  
C   -1.0022026   -0.8410666    2.1483229  
O   -1.8147390   -1.5232959    1.5241687  
C    0.0000000    0.0000000    1.4700000  
H    2.3054237    1.9346118    0.9892483  
H   -0.2170646   -0.1815267    5.4753125  
H   -2.4487139   -2.0549881    3.3649027  
H    3.2048689    2.6911772    3.3971983  
