60

C    3.3041278    0.0001175   -1.5420429  
C    2.5845373   -0.0004783   -0.3695847  
C    1.2040007   -0.0000008   -0.7283586  
C    1.1422379    0.0006034   -2.1454372  
N    2.4348646    0.0026105   -2.6077463  
C   -0.0655175    0.0008794   -2.8497923  
C   -1.2321767    0.0002322   -2.1101401  
O   -2.4392808    0.0001145   -2.7472525  
C   -1.1911209   -0.0000007   -0.6955266  
O   -2.4371524   -0.0002320   -0.1032865  
C    0.0000000    0.0000000    0.0000000  
H    3.0031536   -0.0000660    0.6222585  
H   -0.1193538    0.0014838   -3.9297471  
H   -3.1132982   -0.0000650   -2.0551795  
H   -2.3200279   -0.0004069    0.8516405  
H    4.3686628    0.0004068   -1.7024286  
C    3.8455963   -0.6998096   -4.5966065  
C    2.8310670   -0.0116225   -4.0232745  
C    2.2085849    0.7190726   -5.1164813  
C    2.9960462    0.3450195   -6.3108733  
N    3.9569639   -0.4865471   -6.0123364  
C    2.6930708    0.8655748   -7.6156009  
C    1.6505617    1.7206273   -7.7223466  
O    1.2559059    2.2824578   -8.8776099  
C    0.8364777    2.1170957   -6.5356536  
O   -0.0980375    2.8998203   -6.7066633  
C    1.1672386    1.5695162   -5.2079941  
H    0.4938958    2.8389453   -8.6350912  
H    0.5532541    1.8813545   -4.3737223  
H    4.5497461   -1.3639110   -4.1210901  
C    4.5514107   -2.9231881   -9.0495786  
C    3.8624050   -2.0396136   -8.2905349  
C    3.9613829   -0.7753857   -9.0035779  
C    4.7668188   -1.0866050  -10.2039944  
N    5.1155067   -2.3441239  -10.2364465  
C    5.0939575   -0.0851835  -11.1813488  
C    4.6369036    1.1699995  -10.9693314  
O    4.8664874    2.2024131  -11.7984603  
C    3.8213674    1.5153822   -9.7677602  
O    3.4389340    2.6783126   -9.6390801  
C    3.4991826    0.4705104   -8.7796486  
H    3.3501739   -2.2231114   -7.3615436  
H    5.6844214   -0.3406245  -12.0491122  
H    4.4166349    2.9596287  -11.3820336  
H    4.7142530   -3.9729366   -8.8638811  
C    0.8681109    0.7263879    2.2709268  
C    0.6127770    0.5096195    3.5869401  
C   -0.4920590   -0.4175482    3.6542670  
C   -0.8620974   -0.7254003    2.2596025  
N    0.0000000    0.0000000    1.4700000  
C   -1.8641242   -1.5660088    1.8976294  
C   -2.6293522   -2.2103885    2.9520183  
O   -3.5512764   -2.9839180    2.7283916  
C   -2.2549728   -1.8987399    4.4361073  
O   -2.8923672   -2.4351063    5.3323774  
C   -1.1543735   -0.9755647    4.7012123  
H    1.1382914    0.9492124    4.4159191  
H   -2.1192137   -1.7782617    0.8686553  
H   -0.9013378   -0.7652422    5.7314848  
H    1.6172880    1.3558399    1.8188057  
