62

C    1.1243395    0.0100782   -0.7919010  
C    0.7474040    0.0235115   -2.1148548  
C   -0.6787415    0.0233971   -2.1414696  
C   -1.1201758    0.0097737   -0.7935542  
N    0.0000000    0.0000000    0.0000000  
C   -2.4730830    0.0061822   -0.4408226  
C   -3.3971982    0.0168389   -1.4675040  
O   -4.7313537    0.0142648   -1.1793444  
C   -2.9763692    0.0301236   -2.8186306  
O   -4.0166531    0.0392052   -3.7247602  
C   -1.6418609    0.0334008   -3.1673472  
H   -2.8160167   -0.0043259    0.5845992  
H   -5.1938850    0.0226902   -2.0274352  
H   -3.6464741    0.0479510   -4.6127320  
H   -1.3497532    0.0434839   -4.2109226  
H    2.1062456    0.0054427   -0.3505420  
C    4.5319292   -2.0776305   -2.8537124  
C    4.8147758   -1.6017605   -4.0937207  
C    3.7436675   -0.7030830   -4.4541949  
C    2.8069158   -0.6943140   -3.3143662  
N    3.3421392   -1.5480571   -2.3775907  
C    1.6628901    0.0340172   -3.2649309  
C    1.3320042    0.8645456   -4.4109120  
O    0.3240644    1.5571281   -4.4627604  
C    2.3095777    0.8704226   -5.6291567  
O    2.0413590    1.5655310   -6.5997976  
C    3.5120755    0.0434965   -5.5655555  
H    4.1838666    0.0533359   -6.4130952  
H    5.0924562   -2.7708065   -2.2477370  
H    2.9326581   -1.7531193   -1.4846621  
C    6.9302916   -5.4303537   -4.7459085  
C    7.8953011   -4.9541491   -5.6029106  
C    7.6525061   -3.5584299   -5.7691000  
C    6.5168787   -3.2369491   -4.9823813  
N    6.1021130   -4.3966197   -4.3759571  
C    5.9911667   -1.9436546   -4.9061945  
C    6.6235626   -0.9568577   -5.6372784  
O    6.1520306    0.3234492   -5.5987484  
C    7.7576725   -1.2580144   -6.4284282  
O    8.2741253   -0.1675960   -7.0974631  
C    8.2766827   -2.5337114   -6.5042739  
H    8.6773009   -5.5408195   -6.0537846  
H    5.3230935   -4.4764710   -3.7476787  
H    6.7297527    0.8445441   -6.1714287  
H    9.0367684   -0.4569881   -7.6075930  
H    9.1464508   -2.7341733   -7.1189251  
H    6.7663677   -6.4258847   -4.3704007  
C    0.8681109    0.7263879    2.2709268  
C    0.6127770    0.5096195    3.5869401  
C   -0.4920590   -0.4175482    3.6542670  
C   -0.8620974   -0.7254003    2.2596025  
N    0.0000000    0.0000000    1.4700000  
C   -1.8641242   -1.5660088    1.8976294  
C   -2.6293522   -2.2103885    2.9520183  
O   -3.5512764   -2.9839180    2.7283916  
C   -2.2549728   -1.8987399    4.4361073  
O   -2.8923672   -2.4351063    5.3323774  
C   -1.1543735   -0.9755647    4.7012123  
H    1.1382914    0.9492124    4.4159191  
H   -2.1192137   -1.7782617    0.8686553  
H   -0.9013378   -0.7652422    5.7314848  
H    1.6172880    1.3558399    1.8188057  
