58

C    2.3784915   -1.9913470   -8.3941489  
C    3.3708371   -2.8234467   -8.8027266  
C    3.3582042   -2.8166058  -10.2465509  
C    2.2693663   -1.9057589  -10.6485226  
N    1.7148877   -1.4389038   -9.4791256  
C    1.9343965   -1.6280376  -11.9339689  
C    2.6970323   -2.2691744  -12.9922074  
O    2.4725322   -2.0838486  -14.1811363  
C    3.8544092   -3.2377430  -12.5895178  
O    4.5032485   -3.7835726  -13.4717522  
C    4.1211206   -3.4576260  -11.1702328  
H    4.0356795   -3.3788080   -8.1654105  
H    1.1321744   -0.9567349  -12.2072859  
H    4.9243121   -4.1295435  -10.8997998  
H    0.9477679   -0.7944076   -9.4225650  
C    2.5229107   -2.1069161   -5.8790361  
C    1.9659599   -1.6422908   -7.0270794  
C    0.8993071   -0.7471215   -6.6452951  
C    0.8803722   -0.7281567   -5.1701439  
N    1.8886141   -1.5732494   -4.7674571  
C    0.0139741    0.0003876   -4.4216236  
C   -0.9653706    0.8204009   -5.1151637  
O   -1.7886285    1.5123013   -4.5305090  
C   -0.9636627    0.8153758   -6.6771425  
O   -1.7837159    1.5015803   -7.2720346  
C    0.0195995   -0.0107210   -7.3732829  
H    0.0142655   -0.0084681   -8.4548052  
H    3.3432277   -2.7944517   -5.7515060  
H    2.1282169   -1.7702568   -3.8130851  
C    3.2798085    0.0005853   -1.4499648  
C    2.5571144    0.0005562   -2.5996554  
C    1.1637436    0.0001546   -2.2210360  
C    1.1336965   -0.0000201   -0.7459470  
N    2.4483513   -0.0001430   -0.3402717  
C    0.0000000    0.0000000    0.0000000  
C   -1.2757367   -0.0000188   -0.6964414  
O   -2.3524597   -0.0000640   -0.1142313  
C   -1.2676494   -0.0000875   -2.2584081  
O   -2.3355762   -0.0004102   -2.8557294  
C    0.0181562    0.0001757   -2.9516296  
H    2.9547357    0.0006072   -3.5989105  
H    4.3498550    0.0008609   -1.3200021  
H    2.7563627    0.0012824    0.6148063  
C    0.8400945    0.7047457    2.2710304  
C    0.0000000    0.0000000    1.4700000  
C   -0.8844236   -0.7423113    2.3369512  
C   -0.4878984   -0.4098547    3.7186280  
N    0.5629682    0.4714286    3.6095011  
C   -1.0836927   -0.9095027    4.8308716  
C   -2.1891196   -1.8367527    4.6554461  
O   -2.7906899   -2.3413415    5.5944904  
C   -2.6257283   -2.2031529    3.2011665  
O   -3.5549479   -2.9829990    3.0410059  
C   -1.9068976   -1.5999348    2.0816745  
H   -0.7774656   -0.6525820    5.8354244  
H   -2.2155208   -1.8586617    1.0779135  
H    1.6384792    1.3747609    1.9961646  
H    1.0518368    0.8833920    4.3830260  
