64

C   -4.4706939    2.1246866   -0.3281851  
C   -5.6599768    1.6264304   -0.8075738  
C   -5.3396884    0.7516505   -1.8877474  
C   -3.9276469    0.7558732   -2.0220870  
N   -3.4313251    1.6012783   -1.0610604  
C   -3.2578655    0.0024282   -2.9908505  
C   -4.0275338   -0.7695742   -3.8392613  
O   -3.4247952   -1.5249624   -4.8031637  
C   -5.4377033   -0.7867283   -3.7211785  
O   -6.0624940   -1.6048442   -4.6396918  
C   -6.0991482   -0.0434781   -2.7658792  
H   -2.4588253    1.7971332   -0.9065741  
H   -4.1336024   -1.9789337   -5.2772594  
H   -7.0119842   -1.5590476   -4.4914521  
H   -7.1803457   -0.0766721   -2.6996332  
H   -4.2816954    2.8131213    0.4776039  
C   -7.4130741    3.1973870    0.1226053  
C   -6.9955847    1.9522773   -0.2871163  
C   -8.0965633    1.0635972   -0.1063002  
C   -9.1675805    1.8296955    0.4209002  
N   -8.7181955    3.1204996    0.5493319  
C  -10.4156382    1.2769010    0.7234863  
C  -10.5857035   -0.0738107    0.4893215  
O  -11.7844404   -0.6646933    0.7666307  
C   -9.5289576   -0.8549898   -0.0359084  
O   -9.8546793   -2.1839381   -0.2123897  
C   -8.2973671   -0.3103656   -0.3343969  
H   -9.2618983    3.8932316    0.8888210  
H  -11.2359304    1.8553486    1.1256328  
H  -11.6895144   -1.5973875    0.5335325  
H   -9.0869703   -2.6403491   -0.5700407  
H   -7.5068649   -0.9338085   -0.7355250  
H   -6.8826871    4.1339350    0.1455511  
C    0.0000000    0.0000000    0.0000000  
C    1.0521666   -0.0011982   -0.8862343  
C    0.4917215   -0.0011996   -2.1979132  
C   -0.9187429    0.0003215   -2.0478682  
N   -1.1833171   -0.0009323   -0.7007913  
C   -1.7951703    0.0010483   -3.1372089  
C   -1.2375841    0.0005313   -4.4010422  
O   -2.0474218    0.0015510   -5.4997578  
C    0.1673576   -0.0013585   -4.5711963  
O    0.5673520   -0.0020735   -5.8915554  
C    1.0325768   -0.0023493   -3.4969892  
H    2.0953056   -0.0030808   -0.6200564  
H   -2.0989778    0.0102529   -0.2891822  
H   -1.4634888    0.0006601   -6.2693595  
H    1.5290707   -0.0033271   -5.9180047  
H    2.1042146   -0.0039770   -3.6584456  
C    3.2573670    0.0002920    2.9809380  
C    2.5379467    0.0001709    1.8291961  
C    1.1435042   -0.0000331    2.2038498  
C    1.1092607    0.0000083    3.6788474  
N    2.4227561   -0.0001909    4.0882609  
C   -0.0265533    0.0002524    4.4215661  
C   -1.3003036    0.0002640    3.7214979  
O   -2.3786784    0.0004133    4.3006425  
C   -1.2877726   -0.0000311    2.1595606  
O   -2.3539958   -0.0003306    1.5592035  
C    0.0000000    0.0000000    1.4700000  
H    2.9384090    0.0000368    0.8310761  
H   -0.0296291    0.0004086    5.5027230  
H    4.3270393    0.0004765    3.1139444  
H    2.7280493    0.0013407    5.0442112  
