58

C    2.4729674   -3.3970551   -8.7436358  
C    2.7998510   -3.4268066  -10.0613381  
C    2.6257843   -2.0862168  -10.5686389  
C    2.1674368   -1.2671309   -9.4303030  
N    2.0948544   -2.1211265   -8.3540534  
C    1.8904862    0.0595789   -9.4999009  
C    2.0545853    0.7251630  -10.7815436  
O    1.8306022    1.9171773  -10.9465726  
C    2.5387266   -0.1228587  -12.0006702  
O    2.6802413    0.4265235  -13.0848343  
C    2.8057688   -1.5451978  -11.8019431  
H    3.1255499   -4.2894620  -10.6148362  
H    1.5555551    0.6419855   -8.6528274  
H    3.1408385   -2.1252615  -12.6510467  
H    2.4762762   -4.1999368   -8.0244285  
C    2.2088374   -2.1426207   -5.8191636  
C    1.6816910   -1.7351242   -6.9971456  
C    0.6077898   -0.8240080   -6.6323121  
C    0.6276205   -0.7974855   -5.1539725  
N    1.5640846   -1.5684500   -4.6716456  
C   -0.2963293   -0.0005341   -4.3948471  
C   -1.1988050    0.7367191   -5.0813820  
O   -2.1196089    1.5258328   -4.5021932  
C   -1.2438086    0.7314044   -6.5733964  
O   -2.0920754    1.4267084   -7.1321594  
C   -0.2854236   -0.0943979   -7.3293548  
H   -2.6127108    1.9180864   -5.2452546  
H   -0.3507728   -0.0705877   -8.4088885  
H    3.0283492   -2.8250551   -5.6589865  
C    3.1301146   -0.0010313   -1.7028256  
C    2.5367765   -0.0002766   -0.4864669  
C    1.1089901    0.0001027   -0.7656184  
C    1.0177865   -0.0004150   -2.2415133  
N    2.1993571   -0.0011612   -2.7963824  
C   -0.2459219   -0.0002879   -2.9257116  
C   -1.3675326   -0.0000606   -2.1698520  
O   -2.6129318    0.0000865   -2.6748483  
C   -1.3083588    0.0000910   -0.6783229  
O   -2.3693264    0.0004206   -0.0541685  
C    0.0000000    0.0000000    0.0000000  
H    3.0096016   -0.0001007    0.4807518  
H   -3.1967444    0.0002093   -1.8949026  
H    4.1849275   -0.0015114   -1.9271979  
C    0.0000000    0.0000000    1.4700000  
C    1.0541688    0.0001722    2.3260392  
C    0.5103138    0.0000454    3.6635956  
C   -0.9576371   -0.0002459    3.5155732  
N   -1.2018458    0.0001392    2.1615969  
C   -1.8348311   -0.0008317    4.5510609  
C   -1.2972847   -0.0009736    5.9014604  
O   -2.0050672   -0.0014265    6.9001319  
C    0.2542623   -0.0004184    6.0817573  
O    0.7184670   -0.0002256    7.2139121  
C    1.0974552   -0.0000873    4.8889129  
H    2.0940752    0.0005483    2.0517982  
H   -2.9081052   -0.0011668    4.4207061  
H    2.1707277    0.0000911    5.0223670  
H   -2.1128194   -0.0014912    1.7406791  
