60

C    3.3003550    0.0005273   -1.4738982  
C    2.5232819    0.0003493   -2.6090742  
C    1.1623207   -0.0001321   -2.1820100  
C    1.1711890    0.0000582   -0.7636142  
N    2.4852302   -0.0014919   -0.3662355  
C    0.0000000    0.0000000    0.0000000  
C   -1.2020381    0.0000519   -0.6806484  
O   -2.3759243    0.0003491    0.0157736  
C   -1.2314654   -0.0005114   -2.0955513  
O   -2.5054383   -0.0008038   -2.6250183  
C   -0.0764510   -0.0007275   -2.8495196  
H    2.8036268    0.0088181    0.5858668  
H   -3.0835632    0.0000344   -0.6418824  
H   -2.4360036   -0.0011532   -3.5845925  
H   -0.1304087   -0.0013425   -3.9319085  
H    4.3715553    0.0004892   -1.3667126  
C    4.1171240   -0.7271068   -4.4445138  
C    4.3278183   -0.5117044   -5.7686305  
C    3.3122725    0.4143180   -6.2113318  
C    2.4867575    0.7229871   -5.0280991  
N    3.0267444   -0.0008956   -3.9901695  
C    1.4208268    1.5629149   -5.0321548  
C    1.0625892    2.2056480   -6.2855883  
O    0.1193413    2.9784589   -6.3921134  
C    1.9228117    1.8931113   -7.5513461  
O    1.6305912    2.4280908   -8.6123196  
C    3.0482302    0.9707954   -7.4224273  
H    0.8286152    1.7757882   -4.1530190  
H    3.6389553    0.7598499   -8.3034889  
H    4.6665433   -1.3554379   -3.7624376  
C    5.8543345   -2.3837926   -6.5459051  
C    5.3911360   -1.1128172   -6.5865048  
C    6.1768596   -0.4601705   -7.6224541  
C    7.0913466   -1.5125291   -8.1152413  
N    6.9068704   -2.6423488   -7.4879731  
C    8.0458598   -1.2628900   -9.1600710  
C    8.0847588   -0.0186171   -9.6888492  
O    8.9250657    0.3544186  -10.6690375  
C    7.1746586    1.0647093   -9.2131568  
O    7.2654006    2.1735874   -9.7398212  
C    6.2042671    0.7837158   -8.1401667  
H    8.7020476   -2.0505390   -9.5005653  
H    8.7161062    1.2920571  -10.8312795  
H    5.5627520    1.5953079   -7.8239275  
H    5.5290830   -3.1890621   -5.9065879  
C    0.8400945    0.7047457    2.2710304  
C    0.0000000    0.0000000    1.4700000  
C   -0.8844236   -0.7423113    2.3369512  
C   -0.4878984   -0.4098547    3.7186280  
N    0.5629682    0.4714286    3.6095011  
C   -1.0836927   -0.9095027    4.8308716  
C   -2.1891196   -1.8367527    4.6554461  
O   -2.7906899   -2.3413415    5.5944904  
C   -2.6257283   -2.2031529    3.2011665  
O   -3.5549479   -2.9829990    3.0410059  
C   -1.9068976   -1.5999348    2.0816745  
H   -0.7774656   -0.6525820    5.8354244  
H   -2.2155208   -1.8586617    1.0779135  
H    1.6384792    1.3747609    1.9961646  
H    1.0518368    0.8833920    4.3830260  
