60

C    1.1243417    0.0099285   -0.7919008  
C    0.7474085    0.0234122   -2.1148546  
C   -0.6787371    0.0234880   -2.1414700  
C   -1.1201742    0.0099232   -0.7935543  
N    0.0000000    0.0000000    0.0000000  
C   -2.4730814    0.0065120   -0.4408243  
C   -3.3971951    0.0172921   -1.4675059  
O   -4.7313513    0.0148958   -1.1793466  
C   -2.9763637    0.0305207   -2.8186324  
O   -4.0166460    0.0397417   -3.7247621  
C   -1.6418544    0.0336202   -3.1673481  
H   -2.8160167   -0.0039505    0.5845968  
H   -5.1938810    0.0233831   -2.0274377  
H   -3.6464650    0.0484379   -4.6127340  
H   -1.3497450    0.0436645   -4.2109235  
H    2.1062467    0.0051619   -0.3505410  
C    4.4931722   -2.1129673   -2.7414610  
C    4.8570005   -1.6940920   -3.9758643  
C    3.8032757   -0.7792425   -4.3872202  
C    2.8585541   -0.7632354   -3.2497545  
N    3.2577223   -1.5430862   -2.2820318  
C    1.6628965    0.0337961   -3.2649303  
C    1.4221626    0.7811727   -4.3662069  
O    0.3457209    1.5716142   -4.5162630  
C    2.3566147    0.7866175   -5.5302213  
O    2.0741593    1.4908286   -6.4995131  
C    3.5764089   -0.0394893   -5.4905459  
H    5.7323726   -1.9715782   -4.5378254  
H    0.4530749    1.9719869   -5.3979257  
H    4.2275842   -0.0077020   -6.3537902  
C    6.3678486   -3.6956510   -2.0935248  
C    5.2011249   -3.0512929   -1.8587108  
C    4.7913846   -3.4885208   -0.5330244  
C    5.8556133   -4.4205219   -0.1024716  
N    6.7824821   -4.5458710   -1.0130710  
C    5.8198846   -5.0785094    1.1745806  
C    4.7689688   -4.8170060    1.9848440  
O    4.6071769   -5.3604615    3.2032527  
C    3.6793659   -3.8809449    1.5789923  
O    2.7531288   -3.6900175    2.3669337  
C    3.7388037   -3.2183807    0.2639253  
H    6.6111052   -5.7549267    1.4632662  
H    3.7711826   -4.9845836    3.5333765  
H    2.9300113   -2.5473221    0.0074791  
H    6.9925972   -3.6396028   -2.9707481  
C    2.4951002    2.0940188    2.9809380  
C    1.9440701    1.6314916    1.8291961  
C    0.8759964    0.7350050    2.2038498  
C    0.8497377    0.7130254    3.6788474  
N    1.8560616    1.5571714    4.0882609  
C   -0.0205033   -0.0168748    4.4215661  
C   -0.9962600   -0.8356168    3.7214979  
O   -1.8224391   -1.5286685    4.3006425  
C   -0.9864710   -0.8277881    2.1595606  
O   -1.8030528   -1.5133726    1.5592035  
C    0.0000000    0.0000000    1.4700000  
H    2.2509283    1.8888011    0.8310761  
H   -0.0229599   -0.0187323    5.5027230  
H    3.3143982    2.7817323    3.1139444  
H    2.0889452    1.7545833    5.0442112  
