62

C   -4.7577192    0.0038513   -1.7610491  
C   -5.7908146    0.0072986   -0.8526608  
C   -7.0043588    0.0072403   -1.6022675  
C   -6.6458570    0.0033666   -2.9746332  
N   -5.2743969    0.0033374   -3.0355659  
C   -7.5924701    0.0019326   -4.0035695  
C   -8.9252679    0.0041482   -3.6404961  
O   -9.8910722    0.0025340   -4.6049831  
C   -9.3028312    0.0083944   -2.2765884  
O  -10.6680447    0.0105922   -2.0777693  
C   -8.3695129    0.0100843   -1.2609899  
H   -5.6830131    0.0106803    0.2184886  
H   -4.7309749   -0.0095756   -3.8796670  
H   -7.3257223   -0.0008725   -5.0514437  
H  -10.7390787    0.0048502   -4.1422258  
H  -10.8374766    0.0134018   -1.1307273  
C   -3.3041249    0.0029131   -1.5420450  
C   -2.5845349    0.0028487   -0.3695868  
C   -1.2039994    0.0011051   -0.7283595  
C   -1.1422358    0.0004440   -2.1454379  
N   -2.4348632   -0.0003776   -2.6077477  
C    0.0655194   -0.0009400   -2.8497912  
C    1.2321775   -0.0013629   -2.1101390  
O    2.4392831   -0.0023524   -2.7472501  
C    1.1911212   -0.0010919   -0.6955255  
O    2.4371519   -0.0020037   -0.1032845  
C    0.0000000    0.0000000    0.0000000  
H   -3.0031521    0.0028208    0.6222564  
H   -2.7054529    0.0095914   -3.5745276  
H    0.1193561   -0.0015941   -3.9297468  
H    3.1132988   -0.0027911   -2.0551766  
H    2.3200277   -0.0017211    0.8516425  
C   -8.2080513    0.7433079    1.1627833  
C   -8.8400895    0.5308365    2.3457705  
C   -9.9169735   -0.3956281    2.0872781  
C   -9.8600848   -0.7077505    0.6463987  
N   -8.8026280    0.0147579    0.1437483  
C  -10.7121190   -1.5490663    0.0077048  
C  -11.7549114   -2.1897550    0.7916921  
O  -12.5710705   -2.9635875    0.3086089  
C  -11.8339952   -1.8735539    2.3192938  
O  -12.7078959   -2.4067886    2.9895324  
C  -10.8591113   -0.9500230    2.8942234  
H   -8.5815546    0.9728324    3.2915051  
H  -10.6529998   -1.7644777   -1.0501291  
H  -10.9205787   -0.7365369    3.9526984  
H   -7.3580665    1.3709908    0.9496405  
C    0.0000000    0.0000000    1.4700000  
C    1.0541688    0.0001722    2.3260392  
C    0.5103138    0.0000454    3.6635956  
C   -0.9576371   -0.0002459    3.5155732  
N   -1.2018458    0.0001392    2.1615969  
C   -1.8348311   -0.0008317    4.5510609  
C   -1.2972847   -0.0009736    5.9014604  
O   -2.0050672   -0.0014265    6.9001319  
C    0.2542623   -0.0004184    6.0817573  
O    0.7184670   -0.0002256    7.2139121  
C    1.0974552   -0.0000873    4.8889129  
H    2.0940752    0.0005483    2.0517982  
H   -2.9081052   -0.0011668    4.4207061  
H    2.1707277    0.0000911    5.0223670  
H   -2.1128194   -0.0014912    1.7406791  
