60

C    0.0000000    0.0000000    0.0000000  
C    1.0521665   -0.0011901   -0.8862342  
C    0.4917217   -0.0011956   -2.1979130  
C   -0.9187428    0.0003148   -2.0478683  
N   -1.1833173   -0.0009411   -0.7007911  
C   -1.7951703    0.0010349   -3.1372088  
C   -1.2375840    0.0005224   -4.4010424  
O   -2.0474220    0.0015359   -5.4997576  
C    0.1673578   -0.0013566   -4.5711965  
O    0.5673521   -0.0020688   -5.8915549  
C    1.0325768   -0.0023412   -3.4969890  
H    2.0953059   -0.0030648   -0.6200563  
H   -2.0989774    0.0102371   -0.2891826  
H   -1.4634888    0.0006496   -6.2693593  
H    1.5290706   -0.0033152   -5.9180048  
C    4.3492258   -2.0980283   -1.4710659  
C    3.1288514   -1.6343955   -1.8449707  
C    3.3413738   -0.7396614   -2.9581287  
C    4.7960251   -0.7199156   -3.2038712  
N    5.3496885   -1.5635496   -2.2686550  
C    5.4017602    0.0079028   -4.1760185  
C    4.5652083    0.8266013   -5.0376727  
O    5.0157109    1.5178647   -5.9418317  
C    3.0221522    0.8211179   -4.7952825  
O    2.3077377    1.5066874   -5.5142170  
C    2.4861699   -0.0045381   -3.7159922  
H    2.1872508   -1.8898703   -1.3924946  
H    6.4704877    0.0081417   -4.3395230  
H    4.6019078   -2.7850257   -0.6798161  
H    6.3294058   -1.7621300   -2.1805279  
C   -3.2578657    0.0024038   -2.9908504  
C   -4.0046939    0.0033124   -1.8566891  
C   -5.3897519    0.0044625   -2.2646701  
C   -5.3886200    0.0041179   -3.7400646  
N   -4.0656859    0.0032562   -4.1178667  
C   -6.5062987    0.0045469   -4.5098031  
C   -7.7964679    0.0056315   -3.8404773  
O   -8.8606470    0.0061494   -4.4453114  
C   -7.8213908    0.0062652   -2.2786886  
O   -8.9017017    0.0074855   -1.7040690  
C   -6.5505223    0.0054370   -1.5584490  
H   -3.6282786    0.0033732   -0.8492543  
H   -6.4834513    0.0041522   -5.5907229  
H   -6.5764545    0.0056778   -0.4772223  
H   -3.7375608    0.0012864   -5.0662218  
C    1.0965515   -0.0001358    2.2710304  
C    0.0000000    0.0000000    1.4700000  
C   -1.1546562   -0.0001469    2.3369512  
C   -0.6372014   -0.0003519    3.7186280  
N    0.7342871   -0.0007337    3.6095011  
C   -1.4147739   -0.0001353    4.8308716  
C   -2.8576048    0.0001048    4.6554461  
O   -3.6427778    0.0002493    5.5944904  
C   -3.4275839    0.0000726    3.2011665  
O   -4.6406829   -0.0000333    3.0410059  
C   -2.4891866    0.0001091    2.0816745  
H   -1.0150448   -0.0001615    5.8354244  
H   -2.8919121    0.0002919    1.0779135  
H    2.1388271   -0.0000662    1.9961646  
H    1.3735872    0.0006099    4.3830260  
