58

C    2.5049804   -2.0931563   -5.9399565  
C    1.9571818   -1.6308520   -4.7865848  
C    0.8879545   -0.7344212   -5.1580685  
C    0.8574973   -0.7122316   -6.6329822  
N    1.8627391   -1.5562149   -7.0453792  
C   -0.0149279    0.0176860   -7.3731166  
C   -0.9887732    0.8362267   -6.6701568  
O   -1.8166678    1.5292768   -7.2468489  
C   -0.9745397    0.8281737   -5.1082553  
O   -1.7894804    1.5135872   -4.5054780  
C    0.0139741    0.0003876   -4.4216236  
H    2.2669048   -1.8882737   -3.7893787  
H   -0.0204605    0.0196991   -8.4542617  
H    3.3239678   -2.7807665   -6.0753927  
C    2.5512061   -3.0903182   -8.9456174  
C    2.8057869   -3.0266724  -10.2779887  
C    2.6097018   -1.6534903  -10.6789345  
C    2.2172293   -0.9170635   -9.4622042  
N    2.1999224   -1.8451561   -8.4467073  
C    1.9421749    0.4112733   -9.4225662  
C    2.0389380    1.1659705  -10.6609551  
O    1.8110449    2.3667052  -10.7287851  
C    2.4526547    0.4064013  -11.9616071  
O    2.5371503    1.0312002  -13.0102961  
C    2.7244617   -1.0264720  -11.8788578  
H    3.0974573   -3.8479803  -10.9080650  
H    1.6561467    0.9322381   -8.5194091  
H    3.0105274   -1.5449561  -12.7838790  
H    2.5904530   -3.9421374   -8.2862594  
C    3.2798085    0.0005853   -1.4499648  
C    2.5571144    0.0005562   -2.5996554  
C    1.1637436    0.0001546   -2.2210360  
C    1.1336965   -0.0000201   -0.7459470  
N    2.4483513   -0.0001430   -0.3402717  
C    0.0000000    0.0000000    0.0000000  
C   -1.2757367   -0.0000188   -0.6964414  
O   -2.3524597   -0.0000640   -0.1142313  
C   -1.2676494   -0.0000875   -2.2584081  
O   -2.3355762   -0.0004102   -2.8557294  
C    0.0181562    0.0001757   -2.9516296  
H    2.9547357    0.0006072   -3.5989105  
H    4.3498550    0.0008609   -1.3200021  
H    2.7563627    0.0012824    0.6148063  
C    2.5128556    2.1077716    2.9199648  
C    1.9592212    1.6432552    4.0696553  
C    0.8915788    0.7479214    3.6910360  
C    0.8684491    0.7287414    2.2159470  
N    1.8754542    1.5738793    1.8102719  
C    0.0000000    0.0000000    1.4700000  
C   -0.9772830   -0.8200135    2.1664417  
O   -1.8021297   -1.5120829    1.5842315  
C   -0.9711318   -0.8147624    3.7284083  
O   -1.7894187   -1.5009653    4.3257297  
C    0.0140216    0.0115358    4.4216297  
H    2.2638494    1.8988021    5.0689105  
H    0.0117648    0.0094386    5.5031631  
H    3.3327358    2.7953732    2.7900019  
H    2.1123206    1.7707734    0.8551938  
