64

C    4.6027284   -2.0944968   -2.9150973  
C    3.4411565   -1.6373420   -2.3369735  
C    2.8377886   -0.7405118   -3.2676953  
C    3.6836207   -0.6899843   -4.4052108  
N    4.7469282   -1.5221609   -4.1572675  
C    3.3988813    0.0972714   -5.5250056  
C    2.2389987    0.8469468   -5.4960815  
O    1.9125736    1.6330028   -6.5631221  
C    1.3824833    0.8101280   -4.3700960  
O    0.2670645    1.6125636   -4.4937160  
C    1.6628945    0.0339172   -3.2649299  
H    3.0744456   -1.9151390   -1.3636567  
H    4.0395082    0.1402698   -6.3950344  
H    1.0776865    2.0643813   -6.3391998  
H   -0.2575671    1.5298016   -3.6915214  
H    5.3404960   -2.7824368   -2.5390701  
C    6.9396257   -5.2275723   -5.1676581  
C    7.8060695   -4.6751919   -6.0823265  
C    7.4968319   -3.2849978   -6.1619124  
C    6.4241370   -3.0452394   -5.2653817  
N    6.1090069   -4.2461388   -4.6795901  
C    5.8586846   -1.7794897   -5.0839183  
C    6.3859127   -0.7367223   -5.8206974  
O    5.8715372    0.5199399   -5.6820195  
C    7.4559342   -0.9560665   -6.7205628  
O    7.8693436    0.1826346   -7.3807119  
C    8.0140803   -2.2045449   -6.9002886  
H    8.5666230   -5.2088257   -6.6261892  
H    5.3923890   -4.3853077   -3.9903350  
H    6.3760281    1.0887700   -6.2779950  
H    8.5941201   -0.0525238   -7.9680813  
H    8.8328429   -2.3419796   -7.5968644  
H    6.8474661   -6.2442537   -4.8258632  
C    1.1243410    0.0100105   -0.7919003  
C    0.7474072    0.0234665   -2.1148542  
C   -0.6787384    0.0234379   -2.1414698  
C   -1.1201748    0.0098411   -0.7935547  
N    0.0000000    0.0000000    0.0000000  
C   -2.4730818    0.0063307   -0.4408240  
C   -3.3971962    0.0170429   -1.4675058  
O   -4.7313520    0.0145490   -1.1793468  
C   -2.9763654    0.0303020   -2.8186325  
O   -4.0166484    0.0394464   -3.7247625  
C   -1.6418567    0.0334992   -3.1673480  
H   -2.8160166   -0.0041569    0.5845966  
H   -5.1938823    0.0230023   -2.0274386  
H   -3.6464680    0.0481700   -4.6127343  
H   -1.3497475    0.0435647   -4.2109234  
H    2.1062466    0.0053162   -0.3505405  
C    2.4951002    2.0940188    2.9809380  
C    1.9440701    1.6314916    1.8291961  
C    0.8759964    0.7350050    2.2038498  
C    0.8497377    0.7130254    3.6788474  
N    1.8560616    1.5571714    4.0882609  
C   -0.0205033   -0.0168748    4.4215661  
C   -0.9962600   -0.8356168    3.7214979  
O   -1.8224391   -1.5286685    4.3006425  
C   -0.9864710   -0.8277881    2.1595606  
O   -1.8030528   -1.5133726    1.5592035  
C    0.0000000    0.0000000    1.4700000  
H    2.2509283    1.8888011    0.8310761  
H   -0.0229599   -0.0187323    5.5027230  
H    3.3143982    2.7817323    3.1139444  
H    2.0889452    1.7545833    5.0442112  
