60

C    1.1243417    0.0099285   -0.7919008  
C    0.7474085    0.0234122   -2.1148546  
C   -0.6787371    0.0234880   -2.1414700  
C   -1.1201742    0.0099232   -0.7935543  
N    0.0000000    0.0000000    0.0000000  
C   -2.4730814    0.0065120   -0.4408243  
C   -3.3971951    0.0172921   -1.4675059  
O   -4.7313513    0.0148958   -1.1793466  
C   -2.9763637    0.0305207   -2.8186324  
O   -4.0166460    0.0397417   -3.7247621  
C   -1.6418544    0.0336202   -3.1673481  
H   -2.8160167   -0.0039505    0.5845968  
H   -5.1938810    0.0233831   -2.0274377  
H   -3.6464650    0.0484379   -4.6127340  
H   -1.3497450    0.0436645   -4.2109235  
H    2.1062467    0.0051619   -0.3505410  
C    4.4931722   -2.1129673   -2.7414610  
C    4.8570005   -1.6940920   -3.9758643  
C    3.8032757   -0.7792425   -4.3872202  
C    2.8585541   -0.7632354   -3.2497545  
N    3.2577223   -1.5430862   -2.2820318  
C    1.6628965    0.0337961   -3.2649303  
C    1.4221626    0.7811727   -4.3662069  
O    0.3457209    1.5716142   -4.5162630  
C    2.3566147    0.7866175   -5.5302213  
O    2.0741593    1.4908286   -6.4995131  
C    3.5764089   -0.0394893   -5.4905459  
H    5.7323726   -1.9715782   -4.5378254  
H    0.4530749    1.9719869   -5.3979257  
H    4.2275842   -0.0077020   -6.3537902  
C    6.3678486   -3.6956510   -2.0935248  
C    5.2011249   -3.0512929   -1.8587108  
C    4.7913846   -3.4885208   -0.5330244  
C    5.8556133   -4.4205219   -0.1024716  
N    6.7824821   -4.5458710   -1.0130710  
C    5.8198846   -5.0785094    1.1745806  
C    4.7689688   -4.8170060    1.9848440  
O    4.6071769   -5.3604615    3.2032527  
C    3.6793659   -3.8809449    1.5789923  
O    2.7531288   -3.6900175    2.3669337  
C    3.7388037   -3.2183807    0.2639253  
H    6.6111052   -5.7549267    1.4632662  
H    3.7711826   -4.9845836    3.5333765  
H    2.9300113   -2.5473221    0.0074791  
H    6.9925972   -3.6396028   -2.9707481  
C    0.8400945    0.7047457    2.2710304  
C    0.0000000    0.0000000    1.4700000  
C   -0.8844236   -0.7423113    2.3369512  
C   -0.4878984   -0.4098547    3.7186280  
N    0.5629682    0.4714286    3.6095011  
C   -1.0836927   -0.9095027    4.8308716  
C   -2.1891196   -1.8367527    4.6554461  
O   -2.7906899   -2.3413415    5.5944904  
C   -2.6257283   -2.2031529    3.2011665  
O   -3.5549479   -2.9829990    3.0410059  
C   -1.9068976   -1.5999348    2.0816745  
H   -0.7774656   -0.6525820    5.8354244  
H   -2.2155208   -1.8586617    1.0779135  
H    1.6384792    1.3747609    1.9961646  
H    1.0518368    0.8833920    4.3830260  
