58

C    6.1490029   -2.1131923   -4.6308392  
C    7.1474700   -2.9566412   -4.2624203  
C    8.0957868   -2.9872375   -5.3508112  
C    7.5641575   -2.0859909   -6.3909629  
N    6.3820883   -1.5883861   -5.8929758  
C    8.1711384   -1.8413554   -7.5798417  
C    9.4320798   -2.5105169   -7.8533125  
O   10.0560313   -2.3558570   -8.8949763  
C   10.0134732   -3.4695183   -6.7660672  
O   11.0742530   -4.0387217   -6.9851889  
C    9.2676938   -3.6527929   -5.5234598  
H    7.2121792   -3.4959771   -3.3342269  
H    7.7643023   -1.1765332   -8.3291118  
H    9.6771558   -4.3183054   -4.7756911  
H    5.7822342   -0.9418419   -6.3717277  
C    4.5533949   -2.1376046   -2.6578815  
C    4.9399043   -1.7283670   -3.8886191  
C    3.8940259   -0.8167860   -4.3264061  
C    2.9285538   -0.7919272   -3.2066605  
N    3.3097734   -1.5641893   -2.2257059  
C    1.7334695    0.0049281   -3.2500363  
C    1.5131087    0.7436789   -4.3613518  
O    0.4396995    1.5328949   -4.5373378  
C    2.4688040    0.7400641   -5.5079971  
O    2.2042977    1.4366795   -6.4877848  
C    3.6875673   -0.0856738   -5.4394561  
H    0.5632903    1.9263769   -5.4199756  
H    4.3545062   -0.0606074   -6.2908042  
H    5.0606854   -2.8208827   -1.9954919  
C    1.1319246    0.0015678   -0.8009268  
C    0.7969914    0.0034958   -2.1169401  
C   -0.6453340    0.0035696   -2.1842669  
C   -1.1266832    0.0015410   -0.7896025  
N    0.0000000    0.0000000    0.0000000  
C   -2.4346129    0.0013913   -0.4276292  
C   -3.4350111    0.0031335   -1.4820181  
O   -4.6384614    0.0030875   -1.2583914  
C   -2.9478961    0.0050442   -2.9661074  
O   -3.7809382    0.0062135   -3.8623773  
C   -1.5113825    0.0053055   -3.2312122  
H   -2.7664565    0.0000174    0.6013448  
H   -1.1823533    0.0068381   -4.2614848  
H    2.1104316    0.0009435   -0.3488059  
C    2.5128556    2.1077716    2.9199648  
C    1.9592212    1.6432552    4.0696553  
C    0.8915788    0.7479214    3.6910360  
C    0.8684491    0.7287414    2.2159470  
N    1.8754542    1.5738793    1.8102719  
C    0.0000000    0.0000000    1.4700000  
C   -0.9772830   -0.8200135    2.1664417  
O   -1.8021297   -1.5120829    1.5842315  
C   -0.9711318   -0.8147624    3.7284083  
O   -1.7894187   -1.5009653    4.3257297  
C    0.0140216    0.0115358    4.4216297  
H    2.2638494    1.8988021    5.0689105  
H    0.0117648    0.0094386    5.5031631  
H    3.3327358    2.7953732    2.7900019  
H    2.1123206    1.7707734    0.8551938  
