58

C   -3.3460099   -0.0004264   -2.7913642  
C   -4.0050887   -0.0007132   -1.6040605  
C   -5.4169941   -0.0010567   -1.9063173  
C   -5.5272438   -0.0009751   -3.3775875  
N   -4.2366052   -0.0001891   -3.8541809  
C   -6.6998416   -0.0016246   -4.0607549  
C   -7.9358028   -0.0022335   -3.2959425  
O   -9.0426036   -0.0027794   -3.8187153  
C   -7.8427533   -0.0020785   -1.7367289  
O   -8.8766032   -0.0022804   -1.0821953  
C   -6.5211392   -0.0016359   -1.1144840  
H   -3.5536960   -0.0005046   -0.6279162  
H   -6.7586587   -0.0016814   -5.1403157  
H   -6.4653744   -0.0017366   -0.0343851  
H   -3.9810069   -0.0015042   -4.8246013  
C    0.0000000    0.0000000    0.0000000  
C    1.0662919   -0.0000103   -0.8334270  
C    0.4961866    0.0000065   -2.1718889  
C   -0.9663862   -0.0000850   -1.9540246  
N   -1.2632775   -0.0000084   -0.6828656  
C   -1.8985367   -0.0000517   -3.0477255  
C   -1.3925784    0.0004565   -4.3020543  
O   -2.1456390    0.0005410   -5.4151309  
C    0.0786224    0.0009324   -4.5544999  
O    0.4683751    0.0012590   -5.7221101  
C    1.0143159    0.0008443   -3.4159032  
H    2.1107193    0.0000633   -0.5721870  
H   -1.5042281    0.0009693   -6.1484413  
C    3.4106832   -0.7032177   -3.0670128  
C    2.4521472    0.0014839   -3.7217486  
C    3.1158546    0.7444929   -4.7668634  
C    4.5499119    0.4124938   -4.6666327  
N    4.6621235   -0.4692178   -3.6164504  
C    5.5136807    0.9128416   -5.4805779  
C    5.1117763    1.8404159   -6.5249025  
O    5.9049328    2.3456312   -7.3084593  
C    3.5983534    2.2063414   -6.6492190  
O    3.2480929    2.9864546   -7.5244342  
C    2.6531298    1.6023759   -5.7134682  
H    6.5600534    0.6562471   -5.3901717  
H    1.6070326    1.8607778   -5.8063820  
H    3.3081778   -1.3736417   -2.2292099  
H    5.5205781   -0.8810217   -3.2994016  
C    1.0672568    0.0000697    2.3021913  
C    0.0000000    0.0000000    1.4700000  
C   -1.1601224    0.0000736    2.3478473  
C   -0.5938729    0.0000769    3.7138435  
N    0.7113367    0.0001554    3.6934124  
C   -1.4286986    0.0001879    4.8835240  
C   -2.7683114    0.0006799    4.6970523  
O   -3.6653903    0.0008304    5.6976972  
C   -3.3702025    0.0010610    3.3310774  
O   -4.5974910    0.0013779    3.2362962  
C   -2.4926826    0.0008943    2.1470656  
H   -0.9878360   -0.0000190    5.8697035  
H   -4.5324246    0.0012261    5.2533954  
H   -2.9677772    0.0012974    1.1752040  
H    2.1134392    0.0000545    2.0405121  
