58

C    3.1304806   -2.9389012   -6.5217836  
C    3.9684675   -3.6182110   -5.6969260  
C    4.8551373   -4.3872044   -6.5379391  
C    4.4622264   -4.0981242   -7.9303629  
N    3.4110957   -3.2139260   -7.8515792  
C    5.0609123   -4.6322578   -9.0248857  
C    6.1658598   -5.5535025   -8.8176775  
O    6.7698695   -6.0871604   -9.7389168  
C    6.5986636   -5.8742378   -7.3515211  
O    7.5274476   -6.6486390   -7.1646373  
C    5.8769246   -5.2363653   -6.2533114  
H    3.9656605   -3.5845941   -4.6219959  
H    4.7573132   -4.4068826  -10.0377745  
H    6.1829220   -5.4635709   -5.2411515  
H    2.9242557   -2.8263734   -8.6388769  
C    2.0407262   -2.0139650   -6.1785234  
C    1.6287193   -1.6317255   -4.9473766  
C    0.5264174   -0.7135553   -5.1890257  
C    0.4056591   -0.6555643   -6.6616555  
N    1.2906474   -1.4158625   -7.2470881  
C   -0.5850920    0.1568584   -7.3123990  
C   -1.4176225    0.8782446   -6.5276509  
O   -2.3882003    1.6789419   -6.9997775  
C   -1.3210821    0.8405677   -5.0385502  
O   -2.1116404    1.5230224   -4.3870184  
C   -0.2963293   -0.0005341   -4.3948471  
H    2.0239475   -1.9354085   -3.9930984  
H   -0.6505845    0.1803534   -8.3903915  
H   -2.8082865    2.0545008   -6.2050221  
C    3.1301146   -0.0010313   -1.7028256  
C    2.5367765   -0.0002766   -0.4864669  
C    1.1089901    0.0001027   -0.7656184  
C    1.0177865   -0.0004150   -2.2415133  
N    2.1993571   -0.0011612   -2.7963824  
C   -0.2459219   -0.0002879   -2.9257116  
C   -1.3675326   -0.0000606   -2.1698520  
O   -2.6129318    0.0000865   -2.6748483  
C   -1.3083588    0.0000910   -0.6783229  
O   -2.3693264    0.0004206   -0.0541685  
C    0.0000000    0.0000000    0.0000000  
H    3.0096016   -0.0001007    0.4807518  
H   -3.1967444    0.0002093   -1.8949026  
H    4.1849275   -0.0015114   -1.9271979  
C    0.8175213    0.6860729    2.3021913  
C    0.0000000    0.0000000    1.4700000  
C   -0.8887526   -0.7456559    2.3478473  
C   -0.4549825   -0.3816753    3.7138435  
N    0.5448156    0.4573574    3.6934124  
C   -1.0945674   -0.9182058    4.8835240  
C   -2.1210866   -1.7789155    4.6970523  
O   -2.8083856   -2.3554314    5.6976972  
C   -2.5824069   -2.1655116    3.3310774  
O   -3.5227682   -2.9541547    3.2362962  
C   -1.9100805   -1.6015804    2.1470656  
H   -0.7567140   -0.6349833    5.8697035  
H   -3.4728268   -2.9124471    5.2533954  
H   -2.2742832   -1.9066565    1.1752040  
H    1.6189533    1.3585343    2.0405121  
