60

C    1.1188648    0.0008224   -0.8003808  
C    0.0000000    0.0000000    0.0000000  
C   -1.1323856    0.0008899   -0.8673532  
C   -0.6382652    0.0019680   -2.1969285  
N    0.7324026    0.0038481   -2.1202240  
C   -1.4770902    0.0027317   -3.3154818  
C   -2.8395465    0.0020943   -3.0876868  
O   -3.7039183    0.0024421   -4.1440356  
C   -3.3517865    0.0013928   -1.7684340  
O   -4.7300494    0.0012365   -1.7073132  
C   -2.5248539    0.0009123   -0.6644827  
H   -1.1067556    0.0036988   -4.3313817  
H   -4.5940018    0.0021826   -3.7685147  
H   -4.9934600    0.0007259   -0.7819928  
H   -2.9462579    0.0005602    0.3339648  
H    2.1619897    0.0009357   -0.5342064  
C    4.5412320   -2.0990433   -2.8732831  
C    3.3927961   -1.6299051   -2.3209426  
C    2.7903289   -0.7451819   -3.2900315  
C    3.6883355   -0.7373099   -4.4606351  
N    4.7307599   -1.5775599   -4.1440598  
C    3.4698875   -0.0211181   -5.5924718  
C    2.2703767    0.7967037   -5.6623070  
O    1.9845423    1.4779284   -6.6382848  
C    1.3053409    0.8036751   -4.4341124  
O    0.2924819    1.4886261   -4.4812232  
C    1.6478447   -0.0100098   -3.2702996  
H    3.0113381   -1.8754402   -1.3458448  
H    5.2651738   -2.7816968   -2.4588164  
H    5.5083129   -1.7821891   -4.7445478  
C    5.0367428   -1.1515238   -7.2373155  
C    5.8094312   -0.8319670   -8.3073207  
C    5.6531925    0.5859195   -8.5309787  
C    4.7194698    1.0696904   -7.4961267  
N    4.3827122   -0.0324764   -6.7446536  
C    4.3149358    2.3586879   -7.3675093  
C    4.8336177    3.3346554   -8.3114318  
O    4.5294229    4.5198566   -8.2788049  
C    5.8235711    2.8445021   -9.4157626  
O    6.2666114    3.6570085  -10.2162689  
C    6.1857011    1.4298231   -9.4531497  
H    6.4191136   -1.5119464   -8.8752376  
H    3.6293353    2.6927267   -6.6011669  
H    6.8718428    1.0985704  -10.2207455  
H    4.8899062   -2.1104143   -6.7673610  
C    0.8400945    0.7047457    2.2710304  
C    0.0000000    0.0000000    1.4700000  
C   -0.8844236   -0.7423113    2.3369512  
C   -0.4878984   -0.4098547    3.7186280  
N    0.5629682    0.4714286    3.6095011  
C   -1.0836927   -0.9095027    4.8308716  
C   -2.1891196   -1.8367527    4.6554461  
O   -2.7906899   -2.3413415    5.5944904  
C   -2.6257283   -2.2031529    3.2011665  
O   -3.5549479   -2.9829990    3.0410059  
C   -1.9068976   -1.5999348    2.0816745  
H   -0.7774656   -0.6525820    5.8354244  
H   -2.2155208   -1.8586617    1.0779135  
H    1.6384792    1.3747609    1.9961646  
H    1.0518368    0.8833920    4.3830260  
