58

C    3.4548275   -0.7035792   -2.8642451  
C    2.5562222   -0.0001542   -3.6002998  
C    3.3073795    0.7404848   -4.5862270  
C    4.7274422    0.4084863   -4.3626449  
N    4.7488625   -0.4709617   -3.3048158  
C    5.7576439    0.9069207   -5.0919950  
C    5.4471117    1.8322880   -6.1689352  
O    6.3047248    2.3356815   -6.8826537  
C    3.9500528    2.1981726   -6.4233946  
O    3.6764178    2.9764380   -7.3271020  
C    2.9278449    1.5963822   -5.5708748  
H    6.7923193    0.6503639   -4.9116172  
H    1.8936598    1.8547409   -5.7537306  
H    3.2806111   -1.3721682   -2.0368841  
H    5.5768200   -0.8822071   -2.9144164  
C    0.0000000    0.0000000    0.0000000  
C    1.0541691   -0.0001719   -0.8560389  
C    0.5103143   -0.0000448   -2.1935953  
C   -0.9576364    0.0002464   -2.0455731  
N   -1.2018458   -0.0001389   -0.6915972  
C   -1.8348303    0.0008322   -3.0810611  
C   -1.2972837    0.0009745   -4.4314603  
O   -2.0050658    0.0014276   -5.4301322  
C    0.2542633    0.0004194   -4.6117570  
O    0.7184681    0.0002269   -5.7439118  
C    1.0974560    0.0000881   -3.4189126  
H    2.0940754   -0.0005481   -0.5817976  
H   -2.1128195    0.0014913   -0.2706792  
C   -4.3137498    2.1424310   -0.2077338  
C   -5.5591243    1.7353210   -0.5466765  
C   -5.3648104    0.8246404   -1.6644432  
C   -3.9011710    0.7979210   -1.8733226  
N   -3.2797686    1.5684038   -1.0223203  
C   -3.2941065    0.0012879   -2.9038247  
C   -4.1120049   -0.7354729   -3.6896746  
O   -3.6822277   -1.5242473   -4.6892582  
C   -5.5930492   -0.7299485   -3.5035618  
O   -6.2763252   -1.4248011   -4.2555822  
C   -6.1916575    0.0955198   -2.4395154  
H   -6.4941450    2.0180131   -0.0940210  
H   -4.4926426   -1.9161849   -5.0617706  
H   -7.2683262    0.0718762   -2.3372599  
H   -4.0287176    2.8244773    0.5774687  
C    1.0965515   -0.0001358    2.2710304  
C    0.0000000    0.0000000    1.4700000  
C   -1.1546562   -0.0001469    2.3369512  
C   -0.6372014   -0.0003519    3.7186280  
N    0.7342871   -0.0007337    3.6095011  
C   -1.4147739   -0.0001353    4.8308716  
C   -2.8576048    0.0001048    4.6554461  
O   -3.6427778    0.0002493    5.5944904  
C   -3.4275839    0.0000726    3.2011665  
O   -4.6406829   -0.0000333    3.0410059  
C   -2.4891866    0.0001091    2.0816745  
H   -1.0150448   -0.0001615    5.8354244  
H   -2.8919121    0.0002919    1.0779135  
H    2.1388271   -0.0000662    1.9961646  
H    1.3735872    0.0006099    4.3830260  
