60

C    3.3041274    0.0001178   -1.5420427  
C    2.5845370   -0.0004777   -0.3695849  
C    1.2040005   -0.0000008   -0.7283588  
C    1.1422374    0.0006038   -2.1454369  
N    2.4348641    0.0026111   -2.6077456  
C   -0.0655181    0.0008797   -2.8497914  
C   -1.2321769    0.0002323   -2.1101395  
O   -2.4392816    0.0001145   -2.7472518  
C   -1.1911209   -0.0000008   -0.6955257  
O   -2.4371527   -0.0002320   -0.1032859  
C    0.0000000    0.0000000    0.0000000  
H    3.0031535   -0.0000657    0.6222587  
H    2.7054629   -0.0071097   -3.5745255  
H   -3.1132987   -0.0000652   -2.0551785  
H   -2.3200283   -0.0004071    0.8516418  
H    4.3686620    0.0004073   -1.7024283  
C    2.2805268   -2.0884672   -5.9525539  
C    1.7869814   -1.6272475   -4.7745193  
C    0.7005266   -0.7318379   -5.0949767  
C    0.6008358   -0.7090653   -6.5668236  
N    1.5865179   -1.5517704   -7.0263547  
C   -0.3061616    0.0202020   -7.2648416  
C   -1.2468133    0.8373773   -6.5165546  
O   -2.1016165    1.5297580   -7.0534179  
C   -1.1592596    0.8286871   -4.9570465  
O   -1.9457420    1.5129525   -4.3163540  
C   -0.1387081    0.0017015   -4.3179681  
H    2.1434566   -1.8847455   -3.7930749  
H   -0.3624474    0.0226610   -8.3445345  
H    3.0929934   -2.7751196   -6.1266117  
C    2.1791879   -3.0507213   -8.9659147  
C    1.8578526   -1.8397549   -8.4421030  
C    1.8354844   -0.8996509   -9.5377942  
C    2.1725169   -1.6676981  -10.7515910  
N    2.3695561   -2.9645941  -10.3367104  
C    2.2546838   -1.1381928  -11.9984180  
C    1.9939808    0.2830550  -12.1553383  
O    2.0430468    0.8538115  -13.2370646  
C    1.6354737    1.1158610  -10.8834447  
O    1.4142414    2.3133544  -11.0031357  
C    1.5771477    0.4331328   -9.5933550  
H    2.5033222   -1.7192286  -12.8756215  
H    1.3280297    1.0168636   -8.7176135  
H    2.2931534   -3.9987781   -8.4658245  
H    2.6120950   -3.7309241  -10.9375106  
C    0.8400945    0.7047457    2.2710304  
C    0.0000000    0.0000000    1.4700000  
C   -0.8844236   -0.7423113    2.3369512  
C   -0.4878984   -0.4098547    3.7186280  
N    0.5629682    0.4714286    3.6095011  
C   -1.0836927   -0.9095027    4.8308716  
C   -2.1891196   -1.8367527    4.6554461  
O   -2.7906899   -2.3413415    5.5944904  
C   -2.6257283   -2.2031529    3.2011665  
O   -3.5549479   -2.9829990    3.0410059  
C   -1.9068976   -1.5999348    2.0816745  
H   -0.7774656   -0.6525820    5.8354244  
H   -2.2155208   -1.8586617    1.0779135  
H    1.6384792    1.3747609    1.9961646  
H    1.0518368    0.8833920    4.3830260  
