62

C    0.0000000    0.0000000    0.0000000  
C    1.0521663   -0.0011902   -0.8862345  
C    0.4917215   -0.0011956   -2.1979133  
C   -0.9187430    0.0003149   -2.0478683  
N   -1.1833172   -0.0009411   -0.7007910  
C   -1.7951704    0.0010351   -3.1372088  
C   -1.2375840    0.0005226   -4.4010423  
O   -2.0474221    0.0015361   -5.4997580  
C    0.1673576   -0.0013565   -4.5711965  
O    0.5673516   -0.0020685   -5.8915550  
C    1.0325767   -0.0023411   -3.4969892  
H    2.0953056   -0.0030649   -0.6200563  
H   -2.0989778    0.0102372   -0.2891821  
H   -1.4634890    0.0006499   -6.2693592  
H    1.5290706   -0.0033151   -5.9180044  
C   -4.5382432    2.1273441   -0.3186947  
C   -3.4269652    1.6642215   -0.9843126  
C   -3.8900509    0.7769057   -2.0005914  
C   -5.3047972    0.7380662   -1.9061941  
N   -5.6653153    1.5677425   -0.8735850  
C   -6.0984769   -0.0377255   -2.7564927  
C   -5.4522252   -0.7877412   -3.7198273  
O   -6.1789713   -1.5628758   -4.5765772  
C   -4.0414998   -0.7624929   -3.8295256  
O   -3.5480024   -1.5637039   -4.8384183  
C   -3.2578654    0.0024039   -2.9908502  
H   -2.4078449    1.9320309   -0.7637133  
H   -6.6071042    1.7500065   -0.5772840  
H   -7.1771657   -0.0717845   -2.6896186  
H   -5.5421618   -1.9965803   -5.1593622  
H   -2.5888282   -1.4891819   -4.8443292  
H   -4.6159809    2.8114593    0.5088938  
C    3.4023822   -0.7104410   -3.0044229  
C    2.4861696   -0.0045381   -3.7159924  
C    3.2127735    0.7364354   -4.7199054  
C    4.6376152    0.4019327   -4.5335606  
N    4.6849701   -0.4791374   -3.4779269  
C    5.6494172    0.8998900   -5.2885440  
C    5.3126247    1.8273495   -6.3557487  
O    6.1523074    2.3305063   -7.0906414  
C    3.8100685    2.1959025   -6.5709217  
O    3.5144055    2.9759438   -7.4661199  
C    2.8092773    1.5943917   -5.6931673  
H    6.6880025    0.6414826   -5.1353254  
H    1.7711204    1.8546040   -5.8488738  
H    3.2485433   -1.3800073   -2.1738181  
H    5.5220885   -0.8922336   -3.1096445  
C    1.0672568    0.0000697    2.3021913  
C    0.0000000    0.0000000    1.4700000  
C   -1.1601224    0.0000736    2.3478473  
C   -0.5938729    0.0000769    3.7138435  
N    0.7113367    0.0001554    3.6934124  
C   -1.4286986    0.0001879    4.8835240  
C   -2.7683114    0.0006799    4.6970523  
O   -3.6653903    0.0008304    5.6976972  
C   -3.3702025    0.0010610    3.3310774  
O   -4.5974910    0.0013779    3.2362962  
C   -2.4926826    0.0008943    2.1470656  
H   -0.9878360   -0.0000190    5.8697035  
H   -4.5324246    0.0012261    5.2533954  
H   -2.9677772    0.0012974    1.1752040  
H    2.1134392    0.0000545    2.0405121  
