58

C    5.1594643   -1.1295621   -7.1660215  
C    5.9518328   -0.7986639   -8.2180355  
C    5.7993479    0.6214830   -8.4296172  
C    4.8463802    1.0942206   -7.4072847  
N    4.4960352   -0.0158401   -6.6738591  
C    4.4391271    2.3817462   -7.2726500  
C    4.9749861    3.3676624   -8.1964253  
O    4.6698718    4.5524204   -8.1569838  
C    5.9854695    2.8892810   -9.2872414  
O    6.4430796    3.7102252  -10.0707605  
C    6.3486655    1.4751146   -9.3327776  
H    6.5721867   -1.4725545   -8.7816366  
H    3.7392819    2.7076165   -6.5157254  
H    7.0490751    1.1520438  -10.0909170  
H    5.0042023   -2.0933673   -6.7090067  
C    4.5294737   -2.1111778   -2.7873602  
C    4.8355748   -1.6481497   -4.0267077  
C    3.7722452   -0.7522110   -4.4158856  
C    2.8147156   -0.7310541   -3.2936206  
N    3.3317090   -1.5757412   -2.3385758  
C    1.6707636   -0.0012343   -3.2725974  
C    1.3618921    0.8179366   -4.4328097  
O    0.3558259    1.5108613   -4.5101842  
C    2.3616939    0.8105939   -5.6328715  
O    2.1121098    1.4960722   -6.6152601  
C    3.5619235   -0.0167230   -5.5388102  
H    5.7067350   -1.9050624   -4.6026323  
H    5.0780201   -2.7986807   -2.1642014  
H    2.9056661   -1.7713787   -1.4512985  
C    1.0965514    0.0001358   -0.8010306  
C    0.0000000    0.0000000    0.0000000  
C   -1.1546565    0.0001470   -0.8669508  
C   -0.6372019    0.0003520   -2.2486278  
N    0.7342867    0.0007338   -2.1395012  
C   -1.4147744    0.0001354   -3.3608712  
C   -2.8576052   -0.0001047   -3.1854454  
O   -3.6427785   -0.0002490   -4.1244896  
C   -3.4275841   -0.0000727   -1.7311660  
O   -4.6406832    0.0000333   -1.5710049  
C   -2.4891868   -0.0001090   -0.6116739  
H   -1.0150456    0.0001617   -4.3654239  
H   -2.8919122   -0.0002919    0.3920871  
H    2.1388270    0.0000663   -0.5261650  
C    2.3971438    2.0127888    3.1728260  
C    1.9431056    1.6308205    1.9564670  
C    0.8496017    0.7127664    2.2356185  
C    0.7794028    0.6545384    3.7115134  
N    1.6840587    1.4146091    4.2663826  
C   -0.1885723   -0.1578550    4.3957118  
C   -1.0476298   -0.8789867    3.6398520  
O   -2.0015663   -1.6796266    4.1448486  
C   -1.0022026   -0.8410666    2.1483229  
O   -1.8147390   -1.5232959    1.5241687  
C    0.0000000    0.0000000    1.4700000  
H    2.3054237    1.9346118    0.9892483  
H   -0.2170646   -0.1815267    5.4753125  
H   -2.4487139   -2.0549881    3.3649027  
H    3.2048689    2.6911772    3.3971983  
