58

C    3.0074163   -0.7031010   -7.5755290  
C    2.0267553   -0.0000395   -8.1984929  
C    2.6539849    0.7409344   -9.2673122  
C    4.0907483    0.4095285   -9.2156163  
N    4.2392017   -0.4699312   -8.1680464  
C    5.0258714    0.9084097  -10.0631810  
C    4.5880807    1.8336672  -11.0950599  
O    5.3537318    2.3374354  -11.9064145  
C    3.0711618    2.1989278  -11.1681773  
O    2.6908328    2.9770960  -12.0325070  
C    2.1587841    1.5966909  -10.1992965  
H    6.0748148    0.6522844  -10.0081687  
H    1.1100291    1.8546187  -10.2568280  
H    2.9339252   -1.3717792   -6.7332951  
H    5.1081623   -0.8808360   -7.8797553  
C   -0.2963294   -0.0005341   -4.3948471  
C    0.7407569   -0.0008429   -5.2643479  
C    0.1250904   -0.0009657   -6.5824728  
C   -1.3291515   -0.0008029   -6.3145846  
N   -1.5822797   -0.0004690   -5.0339928  
C   -2.2982577   -0.0008143   -7.3756785  
C   -1.8356081   -0.0005915   -8.6466189  
O   -2.6263943   -0.0005812   -9.7332184  
C   -0.3739288   -0.0003769   -8.9493653  
O   -0.0244437   -0.0003042  -10.1296538  
C    0.6002574   -0.0004136   -7.8435231  
H    1.7935284   -0.0008811   -5.0390753  
H   -3.3548545   -0.0008996   -7.1509269  
H   -2.0105059   -0.0003718  -10.4880924  
C    3.1301143   -0.0010313   -1.7028257  
C    2.5367765   -0.0002767   -0.4864669  
C    1.1089900    0.0001027   -0.7656184  
C    1.0177864   -0.0004150   -2.2415133  
N    2.1993571   -0.0011613   -2.7963824  
C   -0.2459220   -0.0002879   -2.9257116  
C   -1.3675327   -0.0000606   -2.1698519  
O   -2.6129319    0.0000866   -2.6748482  
C   -1.3083588    0.0000910   -0.6783229  
O   -2.3693264    0.0004206   -0.0541685  
C    0.0000000    0.0000000    0.0000000  
H    3.0096014   -0.0001008    0.4807517  
H   -3.1967445    0.0002093   -1.8949025  
H    4.1849272   -0.0015113   -1.9271980  
C    2.3971438    2.0127888    3.1728260  
C    1.9431056    1.6308205    1.9564670  
C    0.8496017    0.7127664    2.2356185  
C    0.7794028    0.6545384    3.7115134  
N    1.6840587    1.4146091    4.2663826  
C   -0.1885723   -0.1578550    4.3957118  
C   -1.0476298   -0.8789867    3.6398520  
O   -2.0015663   -1.6796266    4.1448486  
C   -1.0022026   -0.8410666    2.1483229  
O   -1.8147390   -1.5232959    1.5241687  
C    0.0000000    0.0000000    1.4700000  
H    2.3054237    1.9346118    0.9892483  
H   -0.2170646   -0.1815267    5.4753125  
H   -2.4487139   -2.0549881    3.3649027  
H    3.2048689    2.6911772    3.3971983  
