58

C    1.2609981   -1.0740749   -7.7162733  
C    2.3001344   -1.9479694   -7.7403494  
C    2.5831570   -2.2273718   -9.1283948  
C    1.6168179   -1.4389450   -9.9166593  
N    0.8437777   -0.7624737   -9.0014079  
C    1.5570685   -1.4288231  -11.2724007  
C    2.5078271   -2.2493767  -12.0040326  
O    2.5347220   -2.3081971  -13.2263726  
C    3.5400148   -3.0926783  -11.1896397  
O    4.3451992   -3.7875640  -11.7946807  
C    3.5066768   -3.0211684   -9.7310014  
H    2.8100573   -2.3510218   -6.8835299  
H    0.8404319   -0.8431976  -11.8313148  
H    4.2248398   -3.6079450   -9.1745311  
H    0.0935336   -0.1370221   -9.2316064  
C    0.9070721   -0.7042925   -5.2310448  
C    0.0950446    0.0004351   -4.4015596  
C   -0.8184770    0.7430226   -5.2375488  
C   -0.4696135    0.4107479   -6.6320657  
N    0.5842460   -0.4707046   -6.5591861  
C   -1.1031228    0.9106730   -7.7231412  
C   -2.2017458    1.8380507   -7.5097575  
O   -2.8350882    2.3428878   -8.4275364  
C   -2.5881746    2.2042623   -6.0412999  
O   -3.5112397    2.9842136   -5.8492387  
C   -1.8314682    1.6007481   -4.9472166  
H   -0.8315611    0.6538820   -8.7376471  
H   -2.1054515    1.8593459   -3.9334198  
H    1.7143128   -1.3744692   -4.9838303  
C    3.3321173    0.0004713   -1.3379338  
C    2.6974181    0.0000116   -2.5332314  
C    1.2800438   -0.0002119   -2.2052841  
C    1.2395034    0.0000643   -0.7271299  
N    2.4394062    0.0005460   -0.2131038  
C    0.0000000    0.0000000    0.0000000  
C   -1.1468702    0.0000634   -0.7169543  
O   -2.3742203    0.0000074   -0.1695487  
C   -1.1388770    0.0001607   -2.2096355  
O   -2.2206234    0.0000905   -2.7970411  
C    0.1454522    0.0001815   -2.9324241  
H    3.1367984   -0.0000653   -3.5160950  
H   -2.9844346    0.0001026   -0.9290167  
H    4.3940038    0.0007618   -1.1498640  
C    2.4951002    2.0940188    2.9809380  
C    1.9440701    1.6314916    1.8291961  
C    0.8759964    0.7350050    2.2038498  
C    0.8497377    0.7130254    3.6788474  
N    1.8560616    1.5571714    4.0882609  
C   -0.0205033   -0.0168748    4.4215661  
C   -0.9962600   -0.8356168    3.7214979  
O   -1.8224391   -1.5286685    4.3006425  
C   -0.9864710   -0.8277881    2.1595606  
O   -1.8030528   -1.5133726    1.5592035  
C    0.0000000    0.0000000    1.4700000  
H    2.2509283    1.8888011    0.8310761  
H   -0.0229599   -0.0187323    5.5027230  
H    3.3143982    2.7817323    3.1139444  
H    2.0889452    1.7545833    5.0442112  
