60

C    1.1243417    0.0099321   -0.7919012  
C    0.7474087    0.0234143   -2.1148546  
C   -0.6787370    0.0234851   -2.1414702  
C   -1.1201741    0.0099191   -0.7935548  
N    0.0000000    0.0000000    0.0000000  
C   -2.4730811    0.0065030   -0.4408244  
C   -3.3971946    0.0172796   -1.4675061  
O   -4.7313510    0.0148789   -1.1793468  
C   -2.9763635    0.0305094   -2.8186326  
O   -4.0166456    0.0397262   -3.7247623  
C   -1.6418545    0.0336135   -3.1673482  
H    1.4178729    0.0310212   -2.9571211  
H   -2.8160170   -0.0039605    0.5845960  
H   -5.1938807    0.0233640   -2.0274383  
H   -3.6464653    0.0484238   -4.6127344  
H    2.1062469    0.0051692   -0.3505411  
C    1.5647051   -2.0539353   -5.3222156  
C    1.3415240   -1.5772550   -6.5740306  
C    0.2114874   -0.6825236   -6.4885403  
C   -0.2083787   -0.6769531   -5.0741600  
N    0.6518740   -1.5285930   -4.4202760  
C   -1.2456306    0.0472387   -4.5828770  
C   -1.9988922    0.8763687   -5.5089849  
O   -2.9500277    1.5652873   -5.1639738  
C   -1.5719569    0.8855785   -7.0114651  
O   -2.1988453    1.5795461   -7.8005664  
C   -0.4365472    0.0630232   -7.4214651  
H    1.9041759   -1.8243693   -7.4566241  
H   -0.1472037    0.0751514   -8.4635095  
H    0.6225102   -1.7349847   -3.4386513  
C    4.9024667   -4.3009677   -7.2391489  
C    3.8390555   -3.4812293   -7.0695443  
C    3.5248746   -3.5629803   -5.6514098  
C    4.5255921   -4.5025394   -5.1015226  
N    5.3358755   -4.9383782   -6.0275221  
C    4.5535760   -4.8549740   -3.7086499  
C    3.6243358   -4.2939800   -2.9017218  
O    3.5334208   -4.5327954   -1.5823497  
C    2.6014772   -3.3419304   -3.4266244  
O    1.7859827   -2.8695911   -2.6347372  
C    2.5935108   -2.9963395   -4.8592540  
H    3.3306865   -2.8935769   -7.8147301  
H    5.2960522   -5.5444288   -3.3340953  
H    2.7792296   -3.9930050   -1.2840620  
H    5.4360644   -4.5164750   -8.1511820  
C    2.4951002    2.0940188    2.9809380  
C    1.9440701    1.6314916    1.8291961  
C    0.8759964    0.7350050    2.2038498  
C    0.8497377    0.7130254    3.6788474  
N    1.8560616    1.5571714    4.0882609  
C   -0.0205033   -0.0168748    4.4215661  
C   -0.9962600   -0.8356168    3.7214979  
O   -1.8224391   -1.5286685    4.3006425  
C   -0.9864710   -0.8277881    2.1595606  
O   -1.8030528   -1.5133726    1.5592035  
C    0.0000000    0.0000000    1.4700000  
H    2.2509283    1.8888011    0.8310761  
H   -0.0229599   -0.0187323    5.5027230  
H    3.3143982    2.7817323    3.1139444  
H    2.0889452    1.7545833    5.0442112  
