58

C    0.0000000    0.0000000    0.0000000  
C   -1.0257134   -0.2432765   -0.8560396  
C   -0.4965297   -0.1178047   -2.1935959  
C    0.9318086    0.2209125   -2.0455729  
N    1.1693271    0.2776832   -0.6915966  
C    1.7854273    0.4229171   -3.0810605  
C    1.2624444    0.2986410   -4.4314602  
O    1.9511999    0.4616520   -5.4301312  
C   -0.2472915   -0.0591245   -4.6117576  
O   -0.6989924   -0.1661381   -5.7439122  
C   -1.0677693   -0.2535250   -3.4189134  
H   -2.0375973   -0.4830608   -0.5817992  
H   -2.1120714   -0.5012072   -3.5523678  
H    2.0560527    0.4864722   -0.2706785  
C    4.6919076   -1.0883254   -0.2077320  
C    5.8096033   -0.4046194   -0.5466739  
C    5.4102343    0.4365712   -1.6644405  
C    3.9799881    0.1245635   -1.8733208  
N    3.5533133   -0.7685961   -1.0223190  
C    3.2053633    0.7594712   -2.9038232  
C    3.8310104    1.6651982   -3.6896724  
O    3.2306956    2.3334013   -4.6892564  
C    5.2732964    2.0018474   -3.5035586  
O    5.7776381    2.8357100   -4.2555783  
C    6.0463527    1.3369311   -2.4395123  
H    6.7846326   -0.4637418   -0.0940179  
H    3.9286925    2.9018970   -5.0617681  
H    7.0884579    1.6085756   -2.3372560  
C    5.4621206   -2.5253732    1.7366927  
C    4.5285798   -2.0826278    0.8625888  
C    3.3157275   -2.8068916    1.2103402  
C    3.7083254   -3.6671258    2.3471993  
N    4.9653556   -3.5063779    2.6602886  
C    2.7757672   -4.5521527    2.9891871  
C    1.5085077   -4.5764083    2.5171704  
O    0.5348727   -5.3540765    3.0204668  
C    1.0815461   -3.7199194    1.3716175  
O   -0.0878720   -3.7936820    0.9944696  
C    2.0567553   -2.8204352    0.7298856  
H    3.0900764   -5.1697425    3.8178621  
H   -0.2493961   -5.1508291    2.4793889  
H    1.7078966   -2.2162391   -0.0968396  
H    6.4969594   -2.2306617    1.8089906  
C    3.2798086   -0.0005857    2.9199648  
C    2.5571146   -0.0005566    4.0696553  
C    1.1637436   -0.0001548    3.6910360  
C    1.1336965    0.0000200    2.2159470  
N    2.4483514    0.0001428    1.8102719  
C    0.0000000    0.0000000    1.4700000  
C   -1.2757367    0.0000186    2.1664417  
O   -2.3524596    0.0000640    1.5842315  
C   -1.2676493    0.0000873    3.7284083  
O   -2.3355761    0.0004100    4.3257297  
C    0.0181563   -0.0001760    4.4216297  
H    2.9547357   -0.0006076    5.0689105  
H    0.0150794   -0.0003319    5.5031631  
H    4.3498549   -0.0008612    2.7900019  
H    2.7563627   -0.0012824    0.8551938  
