58

C    4.8813249   -4.3215638   -3.7082163  
C    3.8882357   -3.5014307   -4.1386004  
C    3.8960152   -3.5521848   -5.5815832  
C    4.9828153   -4.4757584   -5.9592962  
N    5.5408685   -4.9073084   -4.7780970  
C    5.3132592   -4.7927253   -7.2368109  
C    4.5475541   -4.1834177   -8.3115090  
O    4.7679216   -4.4050025   -9.4949946  
C    3.3922601   -3.2020683   -7.9346061  
O    2.7408704   -2.6827680   -8.8308647  
C    3.1304806   -2.9389012   -6.5217836  
H    3.2259526   -2.9263813   -3.5162560  
H    6.1140565   -5.4727101   -7.4922592  
H    5.1869957   -4.5471722   -2.6994762  
H    6.3076916   -5.5504379   -4.7045200  
C    2.0407262   -2.0139650   -6.1785234  
C    1.6287193   -1.6317255   -4.9473766  
C    0.5264174   -0.7135553   -5.1890257  
C    0.4056591   -0.6555643   -6.6616555  
N    1.2906474   -1.4158625   -7.2470881  
C   -0.5850920    0.1568584   -7.3123990  
C   -1.4176225    0.8782446   -6.5276509  
O   -2.3882003    1.6789419   -6.9997775  
C   -1.3210821    0.8405677   -5.0385502  
O   -2.1116404    1.5230224   -4.3870184  
C   -0.2963293   -0.0005341   -4.3948471  
H    2.0239475   -1.9354085   -3.9930984  
H   -0.6505845    0.1803534   -8.3903915  
H   -2.8082865    2.0545008   -6.2050221  
C    3.1301146   -0.0010313   -1.7028256  
C    2.5367765   -0.0002766   -0.4864669  
C    1.1089901    0.0001027   -0.7656184  
C    1.0177865   -0.0004150   -2.2415133  
N    2.1993571   -0.0011612   -2.7963824  
C   -0.2459219   -0.0002879   -2.9257116  
C   -1.3675326   -0.0000606   -2.1698520  
O   -2.6129318    0.0000865   -2.6748483  
C   -1.3083588    0.0000910   -0.6783229  
O   -2.3693264    0.0004206   -0.0541685  
C    0.0000000    0.0000000    0.0000000  
H    3.0096016   -0.0001007    0.4807518  
H   -3.1967444    0.0002093   -1.8949026  
H    4.1849275   -0.0015114   -1.9271979  
C    2.5528530    2.1414826    2.8079335  
C    2.0663498    1.7338582    4.0032312  
C    0.9804344    0.8229586    3.6752840  
C    0.9495562    0.7966882    2.1971295  
N    1.8690446    1.5676019    1.6831036  
C    0.0000000    0.0000000    1.4700000  
C   -0.8785127   -0.7372425    2.1869543  
O   -1.8187535   -1.5261249    1.6395491  
C   -0.8723269   -0.7321790    3.6796354  
O   -1.7010379   -1.4274584    4.2670412  
C    0.1115397    0.0933559    4.4024240  
H    2.4028853    2.0163452    4.9860947  
H   -2.2861435   -1.9184361    2.3990168  
H    0.0832434    0.0693689    5.4835595  
H    3.3664920    2.8238276    2.6198634  
