58

C    0.0139748    0.0003878   -4.4216235  
C    1.0657037    0.0015282   -5.2806580  
C    0.5180458    0.0012343   -6.6166619  
C   -0.9494773   -0.0001516   -6.4644640  
N   -1.1898325   -0.0010074   -5.1097987  
C   -1.8296137   -0.0004060   -7.4974522  
C   -1.2959116    0.0005369   -8.8493760  
O   -2.0065322    0.0003354   -9.8460291  
C    0.2551156    0.0017579   -9.0340851  
O    0.7160975    0.0022519  -10.1675564  
C    1.1016985    0.0022060   -7.8436446  
H    2.1063852    0.0022855   -5.0093767  
H    2.1745861    0.0032575   -7.9801514  
H   -2.0996064   -0.0004653   -4.6862912  
C    3.2798088    0.0005857   -1.4499641  
C    2.5571148    0.0005566   -2.5996549  
C    1.1637440    0.0001548   -2.2210358  
C    1.1336968   -0.0000200   -0.7459466  
N    2.4483517   -0.0001427   -0.3402711  
C    0.0000000    0.0000000    0.0000000  
C   -1.2757365   -0.0000186   -0.6964413  
O   -2.3524595   -0.0000640   -0.1142314  
C   -1.2676489   -0.0000873   -2.2584079  
O   -2.3355757   -0.0004102   -2.8557297  
C    0.0181568    0.0001759   -2.9516294  
H    2.9547360    0.0006075   -3.5989095  
H    4.3498554    0.0008612   -1.3200012  
H    2.7563630    0.0012824    0.6148072  
C   -3.2883794   -0.0016221   -7.3160649  
C   -4.0077995   -0.0024766   -6.1643232  
C   -5.4022415   -0.0035455   -6.5389769  
C   -5.4364848   -0.0032707   -8.0139750  
N   -4.1229904   -0.0016918   -8.4233877  
C   -6.5722980   -0.0044480   -8.7566933  
C   -7.8460475   -0.0058694   -8.0566257  
O   -8.9244219   -0.0069346   -8.6357708  
C   -7.8335169   -0.0059323   -6.4946883  
O   -8.8997399   -0.0068163   -5.8943312  
C   -6.5457449   -0.0048693   -5.8051277  
H   -3.6073372   -0.0021879   -5.1662030  
H   -6.5753741   -0.0043509   -9.8378507  
H   -6.5457450   -0.0051256   -4.7235898  
H   -3.8176958   -0.0026987   -9.3793383  
C    0.0000000    0.0000000    1.4700000  
C    1.0662921    0.0000102    2.3034270  
C    0.4961870   -0.0000064    3.6418889  
C   -0.9663858    0.0000850    3.4240247  
N   -1.2632773    0.0000084    2.1528658  
C   -1.8985362    0.0000517    4.5177257  
C   -1.3925775   -0.0004564    5.7720543  
O   -2.1456383   -0.0005410    6.8851312  
C    0.0786232   -0.0009323    6.0245000  
O    0.4683759   -0.0012588    7.1921102  
C    1.0143166   -0.0008442    4.8859032  
H    2.1107198   -0.0000632    2.0421868  
H   -2.9622183    0.0003270    4.3293377  
H   -1.5042274   -0.0009692    7.6184419  
H    2.0724152   -0.0013148    5.1109744  
