58

C    1.7131551   -1.1094257   -7.1794277  
C    2.6586634   -1.9815322   -6.7440896  
C    3.5245084   -2.2583359   -7.8659311  
C    3.0022009   -1.4703329   -8.9986427  
N    1.9036798   -0.7965633   -8.5167970  
C    3.5454296   -1.4582394  -10.2422112  
C    4.7229896   -2.2760727  -10.4810382  
O    5.2854299   -2.3329793  -11.5667269  
C    5.2930361   -3.1188799   -9.2959096  
O    6.2838813   -3.8114835   -9.4850893  
C    4.6207463   -3.0496554   -8.0008860  
H    2.7401482   -2.3850348   -5.7505308  
H    3.1467859   -0.8729673  -11.0591873  
H    5.0218393   -3.6360721   -7.1854341  
H    1.3300493   -0.1720242   -9.0534028  
C    0.2908545   -0.7259201   -5.1324812  
C    0.5947728   -0.5089645   -6.4380994  
C   -0.3866749    0.4179357   -6.9504006  
C   -1.2937755    0.7254266   -5.8281667  
N   -0.8287665    0.0000939   -4.7555305  
C   -2.3565432    1.5657114   -5.9065952  
C   -2.6250282    2.2100991   -7.1814348  
O   -3.5581860    2.9833517   -7.3534768  
C   -1.6774676    1.8988296   -8.3835351  
O   -1.8937474    2.4352061   -9.4618602  
C   -0.5642182    0.9759847   -8.1764497  
H   -3.0094295    1.7777024   -5.0713052  
H    0.0873222    0.7659237   -9.0137624  
H    0.7904773   -1.3552685   -4.4140198  
C    1.0672569   -0.0000698   -0.8321910  
C    0.0000000    0.0000000    0.0000000  
C   -1.1601223   -0.0000736   -0.8778472  
C   -0.5938729   -0.0000768   -2.2438435  
N    0.7113367   -0.0001553   -2.2234123  
C   -1.4286985   -0.0001877   -3.4135239  
C   -2.7683113   -0.0006798   -3.2270524  
O   -3.6653902   -0.0008302   -4.2276970  
C   -3.3702024   -0.0010610   -1.8610774  
O   -4.5974910   -0.0013779   -1.7662963  
C   -2.4926825   -0.0008943   -0.6770658  
H   -4.5324245   -0.0012258   -3.7833954  
H   -2.9677772   -0.0012974    0.2947961  
H    2.1134391   -0.0000547   -0.5705119  
C    2.4951002    2.0940188    2.9809380  
C    1.9440701    1.6314916    1.8291961  
C    0.8759964    0.7350050    2.2038498  
C    0.8497377    0.7130254    3.6788474  
N    1.8560616    1.5571714    4.0882609  
C   -0.0205033   -0.0168748    4.4215661  
C   -0.9962600   -0.8356168    3.7214979  
O   -1.8224391   -1.5286685    4.3006425  
C   -0.9864710   -0.8277881    2.1595606  
O   -1.8030528   -1.5133726    1.5592035  
C    0.0000000    0.0000000    1.4700000  
H    2.2509283    1.8888011    0.8310761  
H   -0.0229599   -0.0187323    5.5027230  
H    3.3143982    2.7817323    3.1139444  
H    2.0889452    1.7545833    5.0442112  
