58

C    1.0638789   -0.0261250   -4.6315341  
C   -0.2005807   -0.0053673   -5.1262929  
C   -0.0894688   -0.0091042   -6.5659026  
C    1.3537202   -0.0339477   -6.8714825  
N    1.9982070   -0.0428849   -5.6559800  
C    1.8742061   -0.0447766   -8.1247509  
C    0.9514187   -0.0308206   -9.2476061  
O    1.3217486   -0.0388954  -10.4142645  
C   -0.5812055   -0.0042211   -8.9473393  
O   -1.3677419    0.0080121   -9.8846070  
C   -1.0214431    0.0051780   -7.5545166  
H   -1.1076191    0.0109081   -4.5486867  
H   -2.0842863    0.0234068   -7.3551297  
H    2.9938898   -0.0610481   -5.5321521  
C   -1.1317766    0.0183633   -0.8009272  
C   -0.7969292    0.0105380   -2.1169407  
C    0.6451711   -0.0149319   -2.1842674  
C    1.1264815   -0.0213791   -0.7896027  
N    0.0000000    0.0000000    0.0000000  
C    2.4342112   -0.0442594   -0.4276299  
C    3.4344237   -0.0636162   -1.4820183  
O    4.6376880   -0.0847604   -1.2583917  
C    2.9473504   -0.0569495   -2.9661073  
O    3.7802426   -0.0727868   -3.8623776  
C    1.5110547   -0.0319169   -3.2312126  
H   -1.4819735    0.0215542   -2.9459192  
H    2.7660275   -0.0487287    0.6013447  
H   -2.1101211    0.0362168   -0.3488060  
C    5.2333909   -2.1932591   -6.2283517  
C    4.0069069   -1.7103187   -6.5548188  
C    4.1902385   -0.8185701   -7.6755363  
C    5.6344172   -0.8216166   -7.9774120  
N    6.2105180   -1.6742551   -7.0641732  
C    6.2134483   -0.1030108   -8.9724164  
C    5.3571605    0.7291165   -9.8011920  
O    5.7831512    1.4135864  -10.7222428  
C    3.8247490    0.7478164   -9.4992470  
O    3.0939211    1.4448489  -10.1901137  
C    3.3180173   -0.0697578   -8.3998620  
H    3.0796230   -1.9511342   -6.0661819  
H    7.2749163   -0.1195228   -9.1771712  
H    5.5056662   -2.8844827   -5.4473482  
H    7.1896650   -1.8882675   -7.0140024  
C    2.3971438    2.0127888    3.1728260  
C    1.9431056    1.6308205    1.9564670  
C    0.8496017    0.7127664    2.2356185  
C    0.7794028    0.6545384    3.7115134  
N    1.6840587    1.4146091    4.2663826  
C   -0.1885723   -0.1578550    4.3957118  
C   -1.0476298   -0.8789867    3.6398520  
O   -2.0015663   -1.6796266    4.1448486  
C   -1.0022026   -0.8410666    2.1483229  
O   -1.8147390   -1.5232959    1.5241687  
C    0.0000000    0.0000000    1.4700000  
H    2.3054237    1.9346118    0.9892483  
H   -0.2170646   -0.1815267    5.4753125  
H   -2.4487139   -2.0549881    3.3649027  
H    3.2048689    2.6911772    3.3971983  
