58

C    9.1199937    0.0016836   -0.8363905  
C   10.1286586    0.0012850   -1.7456042  
C   11.3661004    0.0015792   -1.0015788  
C   10.9930008    0.0021569    0.4258620  
N    9.6175503    0.0025920    0.4578952  
C   11.8804893    0.0021703    1.4525412  
C   13.2977379    0.0018024    1.1301415  
O   14.1750317    0.0018445    1.9837543  
C   13.7156420    0.0014408   -0.3749039  
O   14.9059332    0.0014360   -0.6585704  
C   12.6674326    0.0011819   -1.3923076  
H   10.0184188    0.0010186   -2.8153985  
H   11.5858379    0.0024690    2.4927769  
H   12.9651460    0.0007267   -2.4320626  
H    9.0609088    0.0014775    1.2928780  
C    6.4690067    0.0019755   -4.4192259  
C    7.5790592    0.0025229   -3.6450419  
C    7.0826137    0.0021760   -2.2775472  
C    5.6103549    0.0015082   -2.4155218  
N    5.2447492    0.0013071   -3.6686472  
C    4.7390840    0.0009613   -1.2727298  
C    5.3125318    0.0006873   -0.0477839  
O    4.6211392    0.0001824    1.1046125  
C    6.7952873    0.0009744    0.1242520  
O    7.2479830    0.0008233    1.2689297  
C    7.6676529    0.0015790   -1.0635621  
H    8.6077291    0.0030016   -3.9627138  
H    5.3014942    0.0000717    1.8019436  
H    6.4103389    0.0020015   -5.4960416  
C    3.2798077    0.0005856   -1.4499661  
C    2.5571132    0.0005565   -2.5996564  
C    1.1637425    0.0001547   -2.2210366  
C    1.1336959   -0.0000200   -0.7459475  
N    2.4483509   -0.0001429   -0.3402730  
C    0.0000000    0.0000000    0.0000000  
C   -1.2757370   -0.0000187   -0.6964411  
O   -2.3524597   -0.0000640   -0.1142306  
C   -1.2676502   -0.0000874   -2.2584078  
O   -2.3355774   -0.0004102   -2.8557287  
C    0.0181551    0.0001758   -2.9516297  
H    2.9547342    0.0006074   -3.5989118  
H    0.0150776    0.0003317   -4.0331632  
H    2.7563626    0.0012823    0.6148051  
C    0.8175213    0.6860729    2.3021913  
C    0.0000000    0.0000000    1.4700000  
C   -0.8887526   -0.7456559    2.3478473  
C   -0.4549825   -0.3816753    3.7138435  
N    0.5448156    0.4573574    3.6934124  
C   -1.0945674   -0.9182058    4.8835240  
C   -2.1210866   -1.7789155    4.6970523  
O   -2.8083856   -2.3554314    5.6976972  
C   -2.5824069   -2.1655116    3.3310774  
O   -3.5227682   -2.9541547    3.2362962  
C   -1.9100805   -1.6015804    2.1470656  
H   -0.7567140   -0.6349833    5.8697035  
H   -3.4728268   -2.9124471    5.2533954  
H   -2.2742832   -1.9066565    1.1752040  
H    1.6189533    1.3585343    2.0405121  
