60

C   -1.1161981    0.1354435   -0.7919011  
C   -0.7441679    0.0733656   -2.1148550  
C    0.6700108   -0.1109971   -2.1414706  
C    1.1094998   -0.1545893   -0.7935551  
N    0.0000000    0.0000000    0.0000000  
C    2.4515050   -0.3260304   -0.4408249  
C    3.3664775   -0.4561343   -1.4675063  
O    4.6897574   -0.6261590   -1.1793473  
C    2.9474649   -0.4148716   -2.8186330  
O    3.9778337   -0.5584406   -3.7247629  
C    1.6237441   -0.2454987   -3.1673488  
H   -1.4099939    0.1524629   -2.9571211  
H    2.7929174   -0.3599703    0.5845955  
H    5.1473126   -0.6943433   -2.0274392  
H    3.6096329   -0.5192289   -4.6127349  
H   -2.0892548    0.2670523   -0.3505407  
C    1.2290815   -0.2078080   -4.5828772  
C   -0.0069890   -0.0516188   -5.1230711  
C    0.1530310   -0.0866173   -6.5576454  
C    1.5939785   -0.2773961   -6.8107563  
N    2.1906524   -0.3427887   -5.5727768  
C    2.1532295   -0.3629890   -8.0442944  
C    1.2775393   -0.2601401   -9.1997704  
O    1.6849788   -0.3249993  -10.3521965  
C   -0.2518360   -0.0576403   -8.9552088  
O   -0.9988798    0.0306170   -9.9202980  
C   -0.7364171    0.0193411   -7.5793066  
H   -0.9259636    0.0739784   -4.5787136  
H   -1.7967243    0.1594390   -7.4185425  
H    3.1730258   -0.4710556   -5.4129719  
C    4.4440901   -1.3497532   -7.5780589  
C    3.5937185   -0.5535765   -8.2669344  
C    4.4159894    0.0806686   -9.2858074  
C    5.7730792   -0.4615877   -9.0603081  
N    5.7957254   -1.3006732   -8.0606024  
C    6.8919555   -0.0749778   -9.8750079  
C    6.6653238    0.8126885  -10.8700055  
O    7.6165142    1.2613288  -11.7066645  
C    5.3070135    1.3776363  -11.1229649  
O    5.1739380    2.1811134  -12.0459695  
C    4.1755005    0.9653947  -10.2734590  
H    7.8727943   -0.4869753   -9.6875969  
H    7.1527010    1.8777495  -12.3016901  
H    3.2075343    1.3974629  -10.4893011  
H    4.2218793   -1.9904541   -6.7395492  
C    2.4951002    2.0940188    2.9809380  
C    1.9440701    1.6314916    1.8291961  
C    0.8759964    0.7350050    2.2038498  
C    0.8497377    0.7130254    3.6788474  
N    1.8560616    1.5571714    4.0882609  
C   -0.0205033   -0.0168748    4.4215661  
C   -0.9962600   -0.8356168    3.7214979  
O   -1.8224391   -1.5286685    4.3006425  
C   -0.9864710   -0.8277881    2.1595606  
O   -1.8030528   -1.5133726    1.5592035  
C    0.0000000    0.0000000    1.4700000  
H    2.2509283    1.8888011    0.8310761  
H   -0.0229599   -0.0187323    5.5027230  
H    3.3143982    2.7817323    3.1139444  
H    2.0889452    1.7545833    5.0442112  
