62

C    3.3041272    0.0001177   -1.5420431  
C    2.5845370   -0.0004780   -0.3695856  
C    1.2040004   -0.0000008   -0.7283590  
C    1.1422372    0.0006037   -2.1454372  
N    2.4348639    0.0026111   -2.6077465  
C   -0.0655183    0.0008798   -2.8497916  
C   -1.2321770    0.0002324   -2.1101397  
O   -2.4392813    0.0001147   -2.7472520  
C   -1.1911211   -0.0000007   -0.6955262  
O   -2.4371526   -0.0002320   -0.1032861  
C    0.0000000    0.0000000    0.0000000  
H    3.0031535   -0.0000661    0.6222581  
H    2.7054628   -0.0071098   -3.5745262  
H   -3.1132988   -0.0000650   -2.0551783  
H   -2.3200283   -0.0004072    0.8516412  
C    2.3136480   -2.1180444   -5.9171372  
C    1.6624047   -1.6181595   -7.0209781  
C    0.6419633   -0.7441447   -6.5420230  
C    0.7194920   -0.7504914   -5.1257345  
N    1.7437753   -1.5963711   -4.7793976  
C   -0.1387085    0.0017018   -4.3179686  
C   -1.0923534    0.7746129   -4.9514884  
O   -1.9557355    1.5288503   -4.2107383  
C   -1.1856790    0.7938841   -6.3634854  
O   -2.1870622    1.6126759   -6.8432319  
C   -0.3395509    0.0518697   -7.1609867  
H    1.8935966   -1.8552468   -8.0453476  
H    2.0414319   -1.7936221   -3.8410618  
H   -2.5301612    1.9837417   -4.8403211  
H   -2.1819319    1.5683232   -7.8042785  
H   -0.4351250    0.0866800   -8.2399363  
H    3.1386333   -2.8065415   -5.8513304  
C    6.7370869   -0.0041641    1.2348616  
C    5.4910177   -0.0032945    0.6950598  
C    5.6537434   -0.0009386   -0.7396354  
C    7.1071782   -0.0005331   -0.9932446  
N    7.7077101   -0.0021559    0.2445959  
C    7.6723921    0.0010932   -2.2270334  
C    6.7903710    0.0027669   -3.3822696  
O    7.2023937    0.0043595   -4.5348908  
C    5.2477319    0.0026237   -3.1371780  
O    4.4952268    0.0043301   -4.1020580  
C    4.7577221    0.0005130   -1.7610465  
H    4.5636987   -0.0040178    1.2397545  
H    8.7410248    0.0012322   -2.3911479  
H    7.0279706   -0.0058863    2.2727794  
H    8.6984752   -0.0038795    0.4040600  
C    0.0000000    0.0000000    1.4700000  
C    1.0541688    0.0001722    2.3260392  
C    0.5103138    0.0000454    3.6635956  
C   -0.9576371   -0.0002459    3.5155732  
N   -1.2018458    0.0001392    2.1615969  
C   -1.8348311   -0.0008317    4.5510609  
C   -1.2972847   -0.0009736    5.9014604  
O   -2.0050672   -0.0014265    6.9001319  
C    0.2542623   -0.0004184    6.0817573  
O    0.7184670   -0.0002256    7.2139121  
C    1.0974552   -0.0000873    4.8889129  
H    2.0940752    0.0005483    2.0517982  
H   -2.9081052   -0.0011668    4.4207061  
H    2.1707277    0.0000911    5.0223670  
H   -2.1128194   -0.0014912    1.7406791  
