60

C    3.3041274    0.0001178   -1.5420427  
C    2.5845370   -0.0004777   -0.3695849  
C    1.2040005   -0.0000008   -0.7283588  
C    1.1422374    0.0006038   -2.1454369  
N    2.4348641    0.0026111   -2.6077456  
C   -0.0655181    0.0008797   -2.8497914  
C   -1.2321769    0.0002323   -2.1101395  
O   -2.4392816    0.0001145   -2.7472518  
C   -1.1911209   -0.0000008   -0.6955257  
O   -2.4371527   -0.0002320   -0.1032859  
C    0.0000000    0.0000000    0.0000000  
H    3.0031535   -0.0000657    0.6222587  
H    2.7054629   -0.0071097   -3.5745255  
H   -3.1132987   -0.0000652   -2.0551785  
H   -2.3200283   -0.0004071    0.8516418  
H    4.3686620    0.0004073   -1.7024283  
C    2.2805268   -2.0884672   -5.9525539  
C    1.7869814   -1.6272475   -4.7745193  
C    0.7005266   -0.7318379   -5.0949767  
C    0.6008358   -0.7090653   -6.5668236  
N    1.5865179   -1.5517704   -7.0263547  
C   -0.3061616    0.0202020   -7.2648416  
C   -1.2468133    0.8373773   -6.5165546  
O   -2.1016165    1.5297580   -7.0534179  
C   -1.1592596    0.8286871   -4.9570465  
O   -1.9457420    1.5129525   -4.3163540  
C   -0.1387081    0.0017015   -4.3179681  
H    2.1434566   -1.8847455   -3.7930749  
H   -0.3624474    0.0226610   -8.3445345  
H    3.0929934   -2.7751196   -6.1266117  
C    2.6659862   -5.1823870   -9.3753570  
C    2.3484029   -4.3735978   -8.3377728  
C    2.1745857   -3.0557469   -8.9290056  
C    2.4320884   -3.2573167  -10.3711034  
N    2.7205716   -4.5019544  -10.6387686  
C    2.3587287   -2.1765871  -11.3154170  
C    2.0421217   -0.9503112  -10.8407141  
O    1.9385987    0.1479294  -11.6083024  
C    1.7763148   -0.7149608   -9.3908466  
O    1.4937043    0.4272392   -9.0292790  
C    1.8578526   -1.8397549   -8.4421030  
H    2.2447897   -4.6385831   -7.2994462  
H    2.5519715   -2.3525174  -12.3635653  
H    1.7024621    0.8619432  -10.9889661  
H    2.8736857   -6.2403797   -9.3533097  
C    2.5128556    2.1077716    2.9199648  
C    1.9592212    1.6432552    4.0696553  
C    0.8915788    0.7479214    3.6910360  
C    0.8684491    0.7287414    2.2159470  
N    1.8754542    1.5738793    1.8102719  
C    0.0000000    0.0000000    1.4700000  
C   -0.9772830   -0.8200135    2.1664417  
O   -1.8021297   -1.5120829    1.5842315  
C   -0.9711318   -0.8147624    3.7284083  
O   -1.7894187   -1.5009653    4.3257297  
C    0.0140216    0.0115358    4.4216297  
H    2.2638494    1.8988021    5.0689105  
H    0.0117648    0.0094386    5.5031631  
H    3.3327358    2.7953732    2.7900019  
H    2.1123206    1.7707734    0.8551938  
