58

C    5.9945976    0.0077636   -4.5566444  
C    6.2656579    0.0069282   -3.2260052  
C    7.7030561    0.0069230   -3.0891801  
C    8.2511225    0.0078595   -4.4590024  
N    7.1638405    0.0079360   -5.3020373  
C    9.5749905    0.0085312   -4.7574606  
C   10.5233618    0.0080914   -3.6560393  
O   11.7361975    0.0085701   -3.8213523  
C    9.9652221    0.0068479   -2.1971758  
O   10.7540590    0.0061618   -1.2617627  
C    8.5175925    0.0064868   -2.0016752  
H    5.5413341    0.0061961   -2.4310408  
H    9.9560848    0.0093439   -5.7692295  
H    8.1392468    0.0058300   -0.9884733  
H    7.2122491    0.0100544   -6.3043842  
C    1.7334697    0.0049246   -3.2500361  
C    3.0863259    0.0047399   -3.2131613  
C    3.4995616    0.0065860   -4.6080570  
C    2.2333973    0.0076345   -5.3718701  
N    1.1947442    0.0067485   -4.5811809  
C    2.2116357    0.0095937   -6.8087452  
C    3.4007181    0.0108548   -7.4532716  
O    3.5293452    0.0127184   -8.7909908  
C    4.6955642    0.0102163   -6.7106177  
O    5.7398288    0.0113189   -7.3623315  
C    4.6914549    0.0081553   -5.2368793  
H    3.7249597    0.0035938   -2.3464312  
H    1.2717197    0.0101182   -7.3411618  
H    4.4909169    0.0132674   -8.9476192  
C    1.1319247    0.0015655   -0.8009267  
C    0.7969916    0.0034943   -2.1169401  
C   -0.6453337    0.0035710   -2.1842668  
C   -1.1266832    0.0015433   -0.7896026  
N    0.0000000    0.0000000    0.0000000  
C   -2.4346130    0.0013964   -0.4276294  
C   -3.4350109    0.0031408   -1.4820183  
O   -4.6384610    0.0030973   -1.2583915  
C   -2.9478956    0.0050505   -2.9661075  
O   -3.7809378    0.0062218   -3.8623775  
C   -1.5113821    0.0053090   -3.2312122  
H   -2.7664565    0.0000232    0.6013446  
H   -1.1823527    0.0068407   -4.2614846  
H    2.1104317    0.0009391   -0.3488056  
C    2.5128556    2.1077716    2.9199648  
C    1.9592212    1.6432552    4.0696553  
C    0.8915788    0.7479214    3.6910360  
C    0.8684491    0.7287414    2.2159470  
N    1.8754542    1.5738793    1.8102719  
C    0.0000000    0.0000000    1.4700000  
C   -0.9772830   -0.8200135    2.1664417  
O   -1.8021297   -1.5120829    1.5842315  
C   -0.9711318   -0.8147624    3.7284083  
O   -1.7894187   -1.5009653    4.3257297  
C    0.0140216    0.0115358    4.4216297  
H    2.2638494    1.8988021    5.0689105  
H    0.0117648    0.0094386    5.5031631  
H    3.3327358    2.7953732    2.7900019  
H    2.1123206    1.7707734    0.8551938  
