58

C    8.2506923   -0.7255553    0.7012830  
C    9.0197831   -0.5082634    1.7991716  
C   10.0573621    0.4173160    1.4098534  
C    9.8280515    0.7236657   -0.0150523  
N    8.7184379   -0.0010002   -0.3845224  
C   10.5969004    1.5625441   -0.7545519  
C   11.7257141    2.2065138   -0.1036935  
O   12.4776325    2.9785264   -0.6841398  
C   11.9874516    1.8964352    1.4046663  
O   12.9350286    2.4324724    1.9632575  
C   11.0890509    0.9750699    2.0959056  
H    8.8766973   -0.9465110    2.7708087  
H   10.4113292    1.7737146   -1.7985252  
H   11.2770272    0.7658270    3.1402268  
H    7.3816846   -1.3542087    0.5939988  
C    4.5679461   -0.0016854   -2.0086701  
C    5.6049853   -0.0016935   -1.1391130  
C    6.7955416   -0.0024722   -1.9752193  
C    6.2781458   -0.0029787   -3.3604575  
N    4.9730339   -0.0024401   -3.3863778  
C    7.1539718   -0.0037587   -4.4997622  
C    8.4861199   -0.0036316   -4.2658482  
O    9.4181587   -0.0043060   -5.2340138  
C    9.0391358   -0.0027531   -2.8793658  
O   10.2622858   -0.0028100   -2.7410729  
C    8.1201342   -0.0020069   -1.7272552  
H    5.5667631   -0.0011381   -0.0631881  
H    6.7483989   -0.0043224   -5.5009717  
H   10.2688728   -0.0039801   -4.7592100  
C    3.1301149   -0.0010311   -1.7028252  
C    2.5367768   -0.0002767   -0.4864665  
C    1.1089904    0.0001028   -0.7656183  
C    1.0177872   -0.0004148   -2.2415132  
N    2.1993578   -0.0011611   -2.7963820  
C   -0.2459209   -0.0002877   -2.9257118  
C   -1.3675319   -0.0000605   -2.1698524  
O   -2.6129313    0.0000867   -2.6748490  
C   -1.3083584    0.0000910   -0.6783232  
O   -2.3693261    0.0004206   -0.0541692  
C    0.0000000    0.0000000    0.0000000  
H    3.0096017   -0.0001007    0.4807525  
H   -0.2829630   -0.0004687   -4.0053125  
H   -3.1967441    0.0002094   -1.8949034  
C    2.5528530    2.1414826    2.8079335  
C    2.0663498    1.7338582    4.0032312  
C    0.9804344    0.8229586    3.6752840  
C    0.9495562    0.7966882    2.1971295  
N    1.8690446    1.5676019    1.6831036  
C    0.0000000    0.0000000    1.4700000  
C   -0.8785127   -0.7372425    2.1869543  
O   -1.8187535   -1.5261249    1.6395491  
C   -0.8723269   -0.7321790    3.6796354  
O   -1.7010379   -1.4274584    4.2670412  
C    0.1115397    0.0933559    4.4024240  
H    2.4028853    2.0163452    4.9860947  
H   -2.2861435   -1.9184361    2.3990168  
H    0.0832434    0.0693689    5.4835595  
H    3.3664920    2.8238276    2.6198634  
