60

C    3.3003538    0.0005277   -1.4739000  
C    2.5232805    0.0003501   -2.6090752  
C    1.1623192   -0.0001315   -2.1820103  
C    1.1711879    0.0000585   -0.7636141  
N    2.4852298   -0.0014918   -0.3662362  
C    0.0000000    0.0000000    0.0000000  
C   -1.2020385    0.0000521   -0.6806474  
O   -2.3759249    0.0003497    0.0157757  
C   -1.2314667   -0.0005110   -2.0955503  
O   -2.5054399   -0.0008033   -2.6250170  
C   -0.0764526   -0.0007269   -2.8495190  
H    2.8919941   -0.0005614   -3.6205308  
H    2.8036265    0.0088181    0.5858651  
H   -3.0835641    0.0000349   -0.6418804  
H   -2.4360063   -0.0011522   -3.5845910  
H    4.3715543    0.0004895   -1.3667148  
C    2.2883715   -2.1096663   -5.8898019  
C    1.6780782   -1.6459097   -7.0107599  
C    0.6304122   -0.7505687   -6.5799514  
C    0.6807507   -0.7305564   -5.1055512  
N    1.7068930   -1.5752684   -4.7500468  
C   -0.1496430   -0.0015608   -4.3176959  
C   -1.1605716    0.8178678   -4.9650717  
O   -1.9555611    1.5101069   -4.3429003  
C   -1.2321962    0.8117318   -6.5254043  
O   -2.0793609    1.4974368   -7.0816251  
C   -0.2825959   -0.0147682   -7.2663560  
H    1.9326332   -1.9019641   -8.0238007  
H   -0.3386993   -0.0132848   -8.3464369  
H    1.9910620   -1.7715746   -3.8078371  
C    4.6653914   -4.2272484   -8.9145272  
C    5.5147502   -4.9041551   -8.0993814  
C    5.1650569   -4.5540270   -6.7429299  
C    4.0342199   -3.6109118   -6.8352986  
N    3.7802309   -3.4543815   -8.1783841  
C    3.4141296   -3.0470653   -5.7679328  
C    3.8925606   -3.3919324   -4.4395105  
O    3.4003586   -2.9368800   -3.4153205  
C    5.0891412   -4.3885537   -4.3180748  
O    5.5008069   -4.6861442   -3.2048667  
C    5.6752208   -4.9308263   -5.5413094  
H    6.2970898   -5.5723335   -8.4125840  
H    6.5032501   -5.6203855   -5.4485760  
H    4.6117606   -4.2278147   -9.9911010  
H    3.0611593   -2.8703913   -8.5643096  
C    0.0000000    0.0000000    1.4700000  
C    1.0541688    0.0001722    2.3260392  
C    0.5103138    0.0000454    3.6635956  
C   -0.9576371   -0.0002459    3.5155732  
N   -1.2018458    0.0001392    2.1615969  
C   -1.8348311   -0.0008317    4.5510609  
C   -1.2972847   -0.0009736    5.9014604  
O   -2.0050672   -0.0014265    6.9001319  
C    0.2542623   -0.0004184    6.0817573  
O    0.7184670   -0.0002256    7.2139121  
C    1.0974552   -0.0000873    4.8889129  
H    2.0940752    0.0005483    2.0517982  
H   -2.9081052   -0.0011668    4.4207061  
H    2.1707277    0.0000911    5.0223670  
H   -2.1128194   -0.0014912    1.7406791  
