60

C    0.0000000    0.0000000    0.0000000  
C    0.8621497    0.6031213   -0.8862343  
C    0.4032859    0.2813405   -2.1979132  
C   -0.7524054   -0.5272325   -2.0478683  
N   -0.9683057   -0.6801648   -0.7007911  
C   -1.4703979   -1.0298385   -3.1372088  
C   -1.0135774   -0.7101231   -4.4010420  
O   -1.6772179   -1.1742570   -5.4997579  
C    0.1378032    0.0949773   -4.5711965  
O    0.4657094    0.3240488   -5.8915550  
C    0.8467704    0.5909314   -3.4969891  
H    1.7173002    1.2004981   -0.6200565  
H   -1.7244247   -1.1967334   -0.2891825  
H   -2.3518927   -1.6467489   -3.0295510  
H   -1.1986111   -0.8397205   -6.2693595  
H    1.2538358    0.8751930   -5.9180047  
C    4.7655181    0.7793126   -1.4710666  
C    3.5001386    0.4582432   -1.8449712  
C    3.1604362    1.3128293   -2.9581290  
C    4.3401017    2.1641756   -3.2038716  
N    5.2777827    1.7913287   -2.2686556  
C    4.4181769    3.1078593   -4.1760189  
C    3.2631954    3.2978709   -5.0376728  
O    3.2351615    4.1224991   -5.9418318  
C    2.0029598    2.4074446   -4.7952825  
O    1.0244141    2.5585815   -5.5142169  
C    2.0381675    1.4237045   -3.7159924  
H    2.8758788   -0.2915423   -1.3924951  
H    5.2930645    3.7216578   -4.3395231  
H    5.3668374    0.3619060   -0.6798167  
C    9.2335781    0.0223327   -1.4208546  
C    7.9094689    0.2164260   -1.6513712  
C    7.7230877    1.6315658   -1.8692613  
C    9.0567180    2.2504444   -1.7459339  
N    9.9281808    1.2212952   -1.4733634  
C    9.3044306    3.5774318   -1.8853886  
C    8.1826470    4.4546986   -2.1761460  
O    8.3027762    5.6643724   -2.3195338  
C    6.7613794    3.8209168   -2.3107678  
O    5.8092177    4.5495767   -2.5551103  
C    6.6198204    2.3771365   -2.1395629  
H    7.1499604   -0.5448374   -1.6668121  
H   10.2903315    4.0110538   -1.7911501  
H    9.7603611   -0.8956867   -1.2168204  
H   10.9168313    1.3249177   -1.3359634  
C    0.0000000    0.0000000    1.4700000  
C    1.0541688    0.0001722    2.3260392  
C    0.5103138    0.0000454    3.6635956  
C   -0.9576371   -0.0002459    3.5155732  
N   -1.2018458    0.0001392    2.1615969  
C   -1.8348311   -0.0008317    4.5510609  
C   -1.2972847   -0.0009736    5.9014604  
O   -2.0050672   -0.0014265    6.9001319  
C    0.2542623   -0.0004184    6.0817573  
O    0.7184670   -0.0002256    7.2139121  
C    1.0974552   -0.0000873    4.8889129  
H    2.0940752    0.0005483    2.0517982  
H   -2.9081052   -0.0011668    4.4207061  
H    2.1707277    0.0000911    5.0223670  
H   -2.1128194   -0.0014912    1.7406791  
