62

C    1.1243411    0.0099243   -0.7919006  
C    0.7474080    0.0234091   -2.1148544  
C   -0.6787376    0.0234901   -2.1414695  
C   -1.1201742    0.0099270   -0.7935543  
N    0.0000000    0.0000000    0.0000000  
C   -2.4730817    0.0065204   -0.4408231  
C   -3.3971953    0.0173039   -1.4675054  
O   -4.7313513    0.0149120   -1.1793453  
C   -2.9763642    0.0305307   -2.8186311  
O   -4.0166464    0.0397549   -3.7247608  
C   -1.6418558    0.0336257   -3.1673474  
H   -2.8160166   -0.0039406    0.5845978  
H   -5.1938814    0.0234010   -2.0274364  
H   -3.6464663    0.0484503   -4.6127329  
H   -1.3497461    0.0436686   -4.2109227  
H    2.1062466    0.0051544   -0.3505413  
C    4.5316458   -2.0782506   -2.8537113  
C    4.8145576   -1.6024192   -4.0937195  
C    3.7435725   -0.7035952   -4.4541939  
C    2.8068217   -0.6946980   -3.3143653  
N    3.3419281   -1.5485144   -2.3775898  
C    1.6628959    0.0337896   -3.2649305  
C    1.3321238    0.8643634   -4.4109115  
O    0.3242791    1.5570833   -4.4627600  
C    2.3096985    0.8701065   -5.6291562  
O    2.0415749    1.5652518   -6.5997971  
C    3.5120828    0.0430159   -5.5655543  
H    5.6751772   -1.8526685   -4.6881292  
H    4.1838754    0.0527636   -6.4130938  
H    2.9324186   -1.7535205   -1.4846613  
C    8.3414164   -4.2055471   -3.5742248  
C    8.3950166   -4.8805073   -2.3767179  
C    7.2332526   -4.5091711   -1.6371136  
C    6.5018231   -3.5977089   -2.4409627  
N    7.2035545   -3.4339391   -3.6094530  
C    5.2959352   -3.0236743   -2.0273119  
C    4.8195923   -3.3764108   -0.7795733  
O    3.6465965   -2.8456703   -0.3263518  
C    5.5351942   -4.2838873    0.0372606  
O    4.9307390   -4.5340399    1.2519217  
C    6.7250341   -4.8503651   -0.3700601  
H    9.1760123   -5.5564160   -2.0730961  
H    6.9232550   -2.8519905   -4.3780551  
H    3.4999472   -3.2183253    0.5527881  
H    5.4777764   -5.1558328    1.7415416  
H    7.2508375   -5.5422118    0.2775182  
H    9.0255447   -4.2123824   -4.4054171  
C    2.4951002    2.0940188    2.9809380  
C    1.9440701    1.6314916    1.8291961  
C    0.8759964    0.7350050    2.2038498  
C    0.8497377    0.7130254    3.6788474  
N    1.8560616    1.5571714    4.0882609  
C   -0.0205033   -0.0168748    4.4215661  
C   -0.9962600   -0.8356168    3.7214979  
O   -1.8224391   -1.5286685    4.3006425  
C   -0.9864710   -0.8277881    2.1595606  
O   -1.8030528   -1.5133726    1.5592035  
C    0.0000000    0.0000000    1.4700000  
H    2.2509283    1.8888011    0.8310761  
H   -0.0229599   -0.0187323    5.5027230  
H    3.3143982    2.7817323    3.1139444  
H    2.0889452    1.7545833    5.0442112  
