58

C   -0.2896386   -0.7038690   -9.5707102  
C    0.0368194   -0.6978516  -10.8888394  
C   -0.1365935    0.6561847  -11.3593175  
C   -0.5940933    1.4441799  -10.1989087  
N   -0.6668592    0.5611808   -9.1463363  
C   -0.8702624    2.7724595  -10.2321915  
C   -0.7061573    3.4726669  -11.4952502  
O   -0.9294700    4.6688738  -11.6276217  
C   -0.2229065    2.6579353  -12.7372184  
O   -0.0813950    3.2366097  -13.8060358  
C    0.0433366    1.2305448  -12.5774601  
H    0.3618249   -1.5452777  -11.4657742  
H   -1.2045791    3.3317368   -9.3694342  
H    0.3777929    0.6736643  -13.4421839  
H   -0.2865931   -1.5260766   -8.8736777  
C    0.8518586   -0.7041560   -5.2251428  
C    0.0139741    0.0003876   -4.4216236  
C   -0.8729885    0.7427328   -5.2859483  
C   -0.4803617    0.4105162   -6.6687954  
N    0.5709015   -0.4706746   -6.5627862  
C   -1.0793692    0.9102631   -7.7792674  
C   -2.1843877    1.8373740   -7.6005638  
O   -2.7886789    2.3420360   -8.5378202  
C   -2.6168946    2.2035196   -6.1449952  
O   -3.5457350    2.9832468   -5.9820787  
C   -1.8948203    1.6002142   -5.0276394  
H   -2.2006130    1.8587647   -4.0229673  
H    1.6510908   -1.3741285   -4.9526464  
H    1.0576099   -0.8824763   -7.3377577  
C    3.2798085    0.0005853   -1.4499648  
C    2.5571144    0.0005562   -2.5996554  
C    1.1637436    0.0001546   -2.2210360  
C    1.1336965   -0.0000201   -0.7459470  
N    2.4483513   -0.0001430   -0.3402717  
C    0.0000000    0.0000000    0.0000000  
C   -1.2757367   -0.0000188   -0.6964414  
O   -2.3524597   -0.0000640   -0.1142313  
C   -1.2676494   -0.0000875   -2.2584081  
O   -2.3355762   -0.0004102   -2.8557294  
C    0.0181562    0.0001757   -2.9516296  
H    2.9547357    0.0006072   -3.5989105  
H    4.3498550    0.0008609   -1.3200021  
H    2.7563627    0.0012824    0.6148063  
C    0.0000000    0.0000000    1.4700000  
C    1.0541688    0.0001722    2.3260392  
C    0.5103138    0.0000454    3.6635956  
C   -0.9576371   -0.0002459    3.5155732  
N   -1.2018458    0.0001392    2.1615969  
C   -1.8348311   -0.0008317    4.5510609  
C   -1.2972847   -0.0009736    5.9014604  
O   -2.0050672   -0.0014265    6.9001319  
C    0.2542623   -0.0004184    6.0817573  
O    0.7184670   -0.0002256    7.2139121  
C    1.0974552   -0.0000873    4.8889129  
H    2.0940752    0.0005483    2.0517982  
H   -2.9081052   -0.0011668    4.4207061  
H    2.1707277    0.0000911    5.0223670  
H   -2.1128194   -0.0014912    1.7406791  
