58

C    5.1353934   -0.7055193   -8.6944929  
C    5.9744180   -0.6997173   -9.7622379  
C    6.0094009    0.6541818  -10.2628068  
C    5.1155945    1.4423314   -9.3929094  
N    4.6170335    0.5595433   -8.4628486  
C    4.8773287    2.7705464   -9.5370551  
C    5.5456375    3.4705165  -10.6214644  
O    5.3962747    4.6666484  -10.8342097  
C    6.4964229    2.6556183  -11.5551410  
O    7.0643665    3.2340924  -12.4716932  
C    6.6737034    1.2283176  -11.2997283  
H    6.5077869   -1.5472000  -10.1545446  
H    4.2181088    3.3299397   -8.8878887  
H    7.3338581    0.6713207  -11.9506310  
H    4.8519732   -1.5275765   -8.0574811  
C    4.3913908   -0.7046356   -4.2635301  
C    3.2973506   -0.0000934   -3.8752374  
C    2.8435635    0.7418820   -5.0277935  
C    3.7695332    0.4094498   -6.1272747  
N    4.6845877   -0.4715001   -5.5986045  
C    3.6794138    0.9088337   -7.3859249  
C    2.5984069    1.8357536   -7.6770941  
O    2.4323277    2.3400889   -8.7799838  
C    1.6062052    2.2021221   -6.5276973  
O    0.6923303    2.9816918   -6.7608615  
C    1.8057158    1.5992067   -5.2121969  
H    1.1142471    1.8579096   -4.4218379  
H    5.0082528   -1.3743838   -3.6866343  
H    5.4466834   -0.8833671   -6.1051831  
C    3.3321174    0.0004714   -1.3379332  
C    2.6974186    0.0000115   -2.5332308  
C    1.2800441   -0.0002119   -2.2052838  
C    1.2395035    0.0000643   -0.7271293  
N    2.4394063    0.0005458   -0.2131034  
C    0.0000000    0.0000000    0.0000000  
C   -1.1468701    0.0000634   -0.7169542  
O   -2.3742201    0.0000072   -0.1695492  
C   -1.1388767    0.0001606   -2.2096354  
O   -2.2206229    0.0000903   -2.7970413  
C    0.1454526    0.0001815   -2.9324239  
H   -2.9844344    0.0001023   -0.9290168  
H    0.1083580    0.0003680   -4.0135594  
H    4.3940040    0.0007617   -1.1498630  
C    2.5128556    2.1077716    2.9199648  
C    1.9592212    1.6432552    4.0696553  
C    0.8915788    0.7479214    3.6910360  
C    0.8684491    0.7287414    2.2159470  
N    1.8754542    1.5738793    1.8102719  
C    0.0000000    0.0000000    1.4700000  
C   -0.9772830   -0.8200135    2.1664417  
O   -1.8021297   -1.5120829    1.5842315  
C   -0.9711318   -0.8147624    3.7284083  
O   -1.7894187   -1.5009653    4.3257297  
C    0.0140216    0.0115358    4.4216297  
H    2.2638494    1.8988021    5.0689105  
H    0.0117648    0.0094386    5.5031631  
H    3.3327358    2.7953732    2.7900019  
H    2.1123206    1.7707734    0.8551938  
