62

C    3.3041272    0.0001176   -1.5420426  
C    2.5845370   -0.0004780   -0.3695849  
C    1.2040006   -0.0000008   -0.7283588  
C    1.1422377    0.0006038   -2.1454369  
N    2.4348637    0.0026109   -2.6077460  
C   -0.0655181    0.0008799   -2.8497914  
C   -1.2321767    0.0002325   -2.1101399  
O   -2.4392818    0.0001148   -2.7472518  
C   -1.1911205   -0.0000008   -0.6955263  
O   -2.4371530   -0.0002319   -0.1032860  
C    0.0000000    0.0000000    0.0000000  
H    3.0031532   -0.0000662    0.6222586  
H    2.7054628   -0.0071099   -3.5745256  
H   -0.1193548    0.0014845   -3.9297467  
H   -3.1132990   -0.0000647   -2.0551782  
H   -2.3200288   -0.0004070    0.8516411  
C    6.7068649   -0.0034180    1.2828898  
C    7.7136022   -0.0021477    0.3453691  
C    7.0885453   -0.0007422   -0.9367781  
C    5.6873002   -0.0009464   -0.7166934  
N    5.4901250   -0.0045364    0.6418817  
C    4.7577218    0.0005127   -1.7610454  
C    5.2516915    0.0025159   -3.0510719  
O    4.3881533    0.0043527   -4.1081018  
C    6.6464203    0.0023762   -3.2909665  
O    6.9801796    0.0040999   -4.6296017  
C    7.5640508    0.0006640   -2.2611712  
H    8.7687020   -0.0033297    0.5592783  
H    4.5960834    0.0050495    1.0985860  
H    4.9330452    0.0052558   -4.9058215  
H    7.9393887    0.0039068   -4.7039027  
H    8.6263221    0.0004194   -2.4757839  
C    6.7800550   -0.0056608    2.7510650  
C    7.8865199   -0.0057991    3.5303692  
C    7.3837631   -0.0084583    4.8955536  
C    5.9121573   -0.0095751    4.7507777  
N    5.5523441   -0.0080250    3.4959787  
C    5.0356180   -0.0122590    5.8895308  
C    5.6034013   -0.0141480    7.1171111  
O    4.9066946   -0.0167241    8.2662994  
C    7.0853464   -0.0134594    7.2959946  
O    7.5327499   -0.0151568    8.4427500  
C    7.9631889   -0.0106484    6.1122258  
H    8.9166451   -0.0043737    3.2174536  
H    3.9638758   -0.0128167    5.7543354  
H    5.5838210   -0.0175955    8.9667648  
H    9.0311809   -0.0103479    6.2843364  
C    0.8681109    0.7263879    2.2709268  
C    0.6127770    0.5096195    3.5869401  
C   -0.4920590   -0.4175482    3.6542670  
C   -0.8620974   -0.7254003    2.2596025  
N    0.0000000    0.0000000    1.4700000  
C   -1.8641242   -1.5660088    1.8976294  
C   -2.6293522   -2.2103885    2.9520183  
O   -3.5512764   -2.9839180    2.7283916  
C   -2.2549728   -1.8987399    4.4361073  
O   -2.8923672   -2.4351063    5.3323774  
C   -1.1543735   -0.9755647    4.7012123  
H    1.1382914    0.9492124    4.4159191  
H   -2.1192137   -1.7782617    0.8686553  
H   -0.9013378   -0.7652422    5.7314848  
H    1.6172880    1.3558399    1.8188057  
