58

C    4.7002295   -1.1669577   -8.9244747  
C    5.0112373   -0.8097445  -10.1971678  
C    4.7796273    0.6114395  -10.3040706  
C    4.3048142    1.0561082   -8.9798297  
N    4.2786088   -0.0695405   -8.1891848  
C    3.9764977    2.3360922   -8.6707132  
C    4.0987360    3.3429331   -9.7118016  
O    3.8272788    4.5229460   -9.5324091  
C    4.5994007    2.8944152  -11.1217562  
O    4.7060240    3.7331495  -12.0062984  
C    4.9231130    1.4858758  -11.3340747  
H    5.3626074   -1.4668646  -10.9726326  
H    3.6303448    2.6412586   -7.6929799  
H    5.2692888    1.1835343  -12.3130916  
H    4.7433624   -2.1396160   -8.4619123  
C    5.7075976   -2.1458901   -4.5134262  
C    5.6080286   -1.7400307   -5.8006494  
C    4.4743458   -0.8284976   -5.8198979  
C    3.9952578   -0.7999673   -4.4212399  
N    4.7143360   -1.5702093   -3.6507568  
C    2.8699641   -0.0020530   -4.0185824  
C    2.2516356    0.7342028   -4.9698617  
O    1.1898872    1.5240358   -4.7355640  
C    2.7116332    0.7268602   -6.3899000  
O    2.1013096    1.4213445   -7.2025606  
C    3.8682737   -0.0998984   -6.7779432  
H    6.2274583   -2.0240590   -6.6341425  
H    0.9759272    1.9152451   -5.6017797  
H    6.4250583   -2.8280479   -4.0857758  
C    3.2573670   -0.0002921   -1.5109382  
C    2.5379468   -0.0001711   -0.3591962  
C    1.1435043    0.0000330   -0.7338498  
C    1.1092608   -0.0000085   -2.2088474  
N    2.4227562    0.0001906   -2.6182610  
C   -0.0265533   -0.0002525   -2.9515663  
C   -1.3003033   -0.0002641   -2.2514979  
O   -2.3786785   -0.0004132   -2.8306425  
C   -1.2877724    0.0000310   -0.6895608  
O   -2.3539956    0.0003306   -0.0892035  
C    0.0000000    0.0000000    0.0000000  
H    2.9384091   -0.0000370    0.6389240  
H   -0.0296290   -0.0004088   -4.0327231  
H    4.3270394   -0.0004767   -1.6439445  
C    0.0000000    0.0000000    1.4700000  
C    1.0662921    0.0000102    2.3034270  
C    0.4961870   -0.0000064    3.6418889  
C   -0.9663858    0.0000850    3.4240247  
N   -1.2632773    0.0000084    2.1528658  
C   -1.8985362    0.0000517    4.5177257  
C   -1.3925775   -0.0004564    5.7720543  
O   -2.1456383   -0.0005410    6.8851312  
C    0.0786232   -0.0009323    6.0245000  
O    0.4683759   -0.0012588    7.1921102  
C    1.0143166   -0.0008442    4.8859032  
H    2.1107198   -0.0000632    2.0421868  
H   -2.9622183    0.0003270    4.3293377  
H   -1.5042274   -0.0009692    7.6184419  
H    2.0724152   -0.0013148    5.1109744  
