58

C    2.7831249    0.0022106   -7.2781320  
C    3.4495173    0.0033613   -6.0949179  
C    4.8595301    0.0039185   -6.4058813  
C    4.9606992    0.0030206   -7.8778030  
N    3.6671448    0.0016061   -8.3464230  
C    6.1290597    0.0035988   -8.5681944  
C    7.3697158    0.0049870   -7.8110236  
O    8.4732690    0.0055358   -8.3406152  
C    7.2862892    0.0057036   -6.2512660  
O    8.3241583    0.0065657   -5.6031236  
C    5.9685403    0.0052563   -5.6208772  
H    3.0041560    0.0035905   -5.1160067  
H    6.1812139    0.0030506   -9.6480961  
H    5.9194412    0.0059631   -4.5404547  
H    3.4055636    0.0022927   -9.3152489  
C   -0.8712823    0.0001712   -4.7267111  
C    0.4275915    0.0003835   -5.1068516  
C    0.3927417    0.0003247   -6.5612537  
C   -1.0467457   -0.0000491   -6.8995728  
N   -1.7925759   -0.0000598   -5.8282523  
C   -1.5084807   -0.0001657   -8.2604132  
C   -0.5746200    0.0004689   -9.2387986  
O   -0.8627916    0.0004379  -10.5514290  
C    0.8856694    0.0012296   -8.9294208  
O    1.6794965    0.0016586   -9.8701967  
C    1.3340973    0.0012910   -7.5255561  
H    1.3014270    0.0006485   -4.4779741  
H   -2.5664446   -0.0006472   -8.4786405  
H    0.0042915    0.0010056  -10.9956353  
C    1.0965515    0.0001358   -0.8010304  
C    0.0000000    0.0000000    0.0000000  
C   -1.1546562    0.0001470   -0.8669514  
C   -0.6372012    0.0003520   -2.2486282  
N    0.7342873    0.0007338   -2.1395014  
C   -1.4147737    0.0001354   -3.3608717  
C   -2.8576047   -0.0001047   -3.1854463  
O   -3.6427778   -0.0002491   -4.1244908  
C   -3.4275837   -0.0000725   -1.7311667  
O   -4.6406828    0.0000333   -1.5710061  
C   -2.4891866   -0.0001090   -0.6116745  
H   -2.8919121   -0.0002919    0.3920865  
H    2.1388272    0.0000662   -0.5261647  
H    1.3735873   -0.0006098   -2.9130261  
C    0.8400945    0.7047457    2.2710304  
C    0.0000000    0.0000000    1.4700000  
C   -0.8844236   -0.7423113    2.3369512  
C   -0.4878984   -0.4098547    3.7186280  
N    0.5629682    0.4714286    3.6095011  
C   -1.0836927   -0.9095027    4.8308716  
C   -2.1891196   -1.8367527    4.6554461  
O   -2.7906899   -2.3413415    5.5944904  
C   -2.6257283   -2.2031529    3.2011665  
O   -3.5549479   -2.9829990    3.0410059  
C   -1.9068976   -1.5999348    2.0816745  
H   -0.7774656   -0.6525820    5.8354244  
H   -2.2155208   -1.8586617    1.0779135  
H    1.6384792    1.3747609    1.9961646  
H    1.0518368    0.8833920    4.3830260  
