58

C    6.7719812    0.0228172   -4.6650012  
C    7.7800551   -0.6532835   -4.0561088  
C    8.9993965   -0.3006158   -4.7443446  
C    8.6163242    0.6431555   -5.8117441  
N    7.2529124    0.7969663   -5.7100553  
C    9.4862769    1.2098553   -6.6856646  
C   10.8937978    0.8672395   -6.5672014  
O   11.7552535    1.3248295   -7.3066659  
C   11.3219643   -0.1304153   -5.4441861  
O   12.5041660   -0.4265998   -5.3349349  
C   10.2926859   -0.6753967   -4.5624651  
H    7.6807806   -1.3228039   -3.2203459  
H    9.1845793    1.8999281   -7.4613506  
H   10.5974343   -1.3653414   -3.7873340  
H    6.6936800    1.3830485   -6.3023507  
C    4.4498803   -2.0927814   -1.5965442  
C    3.2085346   -1.6305559   -1.8956810  
C    3.3524547   -0.7335190   -3.0179322  
C    4.7897030   -0.7108880   -3.3504911  
N    5.3998262   -1.5552207   -2.4517466  
C    5.3348522    0.0196507   -4.3558917  
C    4.4468030    0.8384415   -5.1642761  
O    4.8411378    1.5320449   -6.0925628  
C    2.9210858    0.8299298   -4.8297316  
O    2.1637303    1.5155489   -5.5032295  
C    2.4521483    0.0014840   -3.7217481  
H    2.2961914   -1.8884108   -1.3879858  
H    4.7506785   -2.7807339   -0.8231546  
H    6.3833793   -1.7523009   -2.4229400  
C    0.0000000    0.0000000    0.0000000  
C    1.0662923   -0.0000101   -0.8334270  
C    0.4961873    0.0000065   -2.1718887  
C   -0.9663854   -0.0000848   -1.9540250  
N   -1.2632773   -0.0000083   -0.6828660  
C   -1.8985359   -0.0000514   -3.0477261  
C   -1.3925770    0.0004566   -4.3020547  
O   -2.1456378    0.0005414   -5.4151314  
C    0.0786240    0.0009326   -4.5545000  
O    0.4683767    0.0012591   -5.7221100  
C    1.0143171    0.0008444   -3.4159031  
H    2.1107200    0.0000633   -0.5721865  
H   -2.9622181   -0.0003268   -2.8593381  
H   -1.5042265    0.0009697   -6.1484419  
C    1.0965515   -0.0001358    2.2710304  
C    0.0000000    0.0000000    1.4700000  
C   -1.1546562   -0.0001469    2.3369512  
C   -0.6372014   -0.0003519    3.7186280  
N    0.7342871   -0.0007337    3.6095011  
C   -1.4147739   -0.0001353    4.8308716  
C   -2.8576048    0.0001048    4.6554461  
O   -3.6427778    0.0002493    5.5944904  
C   -3.4275839    0.0000726    3.2011665  
O   -4.6406829   -0.0000333    3.0410059  
C   -2.4891866    0.0001091    2.0816745  
H   -1.0150448   -0.0001615    5.8354244  
H   -2.8919121    0.0002919    1.0779135  
H    2.1388271   -0.0000662    1.9961646  
H    1.3735872    0.0006099    4.3830260  
