60

C    1.1188649    0.0008221   -0.8003802  
C    0.0000000    0.0000000    0.0000000  
C   -1.1323859    0.0008896   -0.8673533  
C   -0.6382652    0.0019677   -2.1969281  
N    0.7324026    0.0038479   -2.1202233  
C   -1.4770899    0.0027312   -3.3154813  
C   -2.8395462    0.0020934   -3.0876865  
O   -3.7039184    0.0024415   -4.1440362  
C   -3.3517863    0.0013921   -1.7684342  
O   -4.7300485    0.0012355   -1.7073142  
C   -2.5248541    0.0009117   -0.6644823  
H    1.3576328   -0.0056170   -2.9057035  
H   -4.5940013    0.0021811   -3.7685148  
H   -4.9934594    0.0007251   -0.7819936  
H   -2.9462582    0.0005599    0.3339643  
H    2.1619894    0.0009359   -0.5342059  
C    0.0908008   -0.6992464   -5.1618156  
C   -0.9736275    0.0040455   -4.6965765  
C   -1.5084774    0.7463560   -5.8136025  
C   -0.6623457    0.4154826   -6.9760886  
N    0.2885861   -0.4649760   -6.5141241  
C   -0.8417373    0.9156024   -8.2248497  
C   -1.9414381    1.8417252   -8.4381333  
O   -2.1855815    2.3466256   -9.5261459  
C   -2.8501332    2.2064419   -7.2211451  
O   -3.7788887    2.9853289   -7.3885002  
C   -2.5575116    1.6028535   -5.9234911  
H   -3.1915414    1.8604119   -5.0859984  
H    0.7475173   -1.3688065   -4.6304947  
H    1.0132794   -0.8758185   -7.0736555  
C    0.5342877   -0.6429201   -9.6797327  
C    0.0176259    0.5678670   -9.3656721  
C    0.4979076    1.4623315  -10.4076708  
C    1.3125007    0.6012503  -11.2917307  
N    1.3374496   -0.6339066  -10.8701217  
C    1.9725688    1.1176345  -12.4590970  
C    1.8252275    2.4343029  -12.7311446  
O    2.3846824    3.0498071  -13.7867038  
C    1.0093264    3.3291608  -11.8583938  
O    0.9189098    4.5174646  -12.1665809  
C    0.3421342    2.7756176  -10.6666010  
H    2.5617406    0.4655635  -13.0872606  
H    2.1000728    3.9785272  -13.7116776  
H   -0.2397958    3.4567829  -10.0602998  
H    0.4109446   -1.5749088   -9.1513793  
C    2.5128556    2.1077716    2.9199648  
C    1.9592212    1.6432552    4.0696553  
C    0.8915788    0.7479214    3.6910360  
C    0.8684491    0.7287414    2.2159470  
N    1.8754542    1.5738793    1.8102719  
C    0.0000000    0.0000000    1.4700000  
C   -0.9772830   -0.8200135    2.1664417  
O   -1.8021297   -1.5120829    1.5842315  
C   -0.9711318   -0.8147624    3.7284083  
O   -1.7894187   -1.5009653    4.3257297  
C    0.0140216    0.0115358    4.4216297  
H    2.2638494    1.8988021    5.0689105  
H    0.0117648    0.0094386    5.5031631  
H    3.3327358    2.7953732    2.7900019  
H    2.1123206    1.7707734    0.8551938  
