58

C    3.2798086    0.0005860   -1.4499646  
C    2.5571147    0.0005569   -2.5996555  
C    1.1637436    0.0001551   -2.2210361  
C    1.1336965   -0.0000198   -0.7459476  
N    2.4483514   -0.0001426   -0.3402723  
C    0.0000000    0.0000000    0.0000000  
C   -1.2757367   -0.0000185   -0.6964415  
O   -2.3524594   -0.0000640   -0.1142315  
C   -1.2676491   -0.0000871   -2.2584082  
O   -2.3355760   -0.0004099   -2.8557300  
C    0.0181560    0.0001764   -2.9516299  
H    0.0150794    0.0003323   -4.0331631  
H    4.3498550    0.0008616   -1.3200019  
H    2.7563626    0.0012824    0.6148062  
C    5.9694212   -2.1380306   -4.2640191  
C    5.9589015   -1.7308757   -5.5546365  
C    4.8277513   -0.8211661   -5.6517373  
C    4.2525283   -0.7949995   -4.2897469  
N    4.9176048   -1.5649429   -3.4719146  
C    3.1006058    0.0006268   -3.9654948  
C    2.5486627    0.7369531   -4.9567145  
O    1.4718516    1.5247924   -4.7960052  
C    3.1062923    0.7319673   -6.3413395  
O    2.5527682    1.4263781   -7.1937626  
C    4.2885186   -0.0924689   -6.6488625  
H    6.6352657   -2.0129519   -6.3433318  
H    1.3179707    1.9166340   -5.6746028  
H    6.6565709   -2.8195040   -3.7882126  
C    5.8599385   -3.2560481   -9.2576449  
C    6.1327103   -2.5191531  -10.3651902  
C    5.7624796   -1.1560593  -10.0656245  
C    5.2479926   -1.1592496   -8.6828434  
N    5.3335070   -2.4623567   -8.2498437  
C    4.7959302   -0.0598451   -8.0281268  
C    4.8173319    1.2113813   -8.7324427  
O    4.4315066    2.2583260   -8.2291071  
C    5.3578127    1.2380731  -10.1976973  
O    5.3803901    2.3024886  -10.8008325  
C    5.8180463   -0.0121808  -10.7967825  
H    6.5459291   -2.8883667  -11.2868979  
H    6.1909834    0.0148778  -11.8116272  
H    5.9990033   -4.3121859   -9.0929532  
H    5.0580197   -2.7864951   -7.3409497  
C    2.4951002    2.0940188    2.9809380  
C    1.9440701    1.6314916    1.8291961  
C    0.8759964    0.7350050    2.2038498  
C    0.8497377    0.7130254    3.6788474  
N    1.8560616    1.5571714    4.0882609  
C   -0.0205033   -0.0168748    4.4215661  
C   -0.9962600   -0.8356168    3.7214979  
O   -1.8224391   -1.5286685    4.3006425  
C   -0.9864710   -0.8277881    2.1595606  
O   -1.8030528   -1.5133726    1.5592035  
C    0.0000000    0.0000000    1.4700000  
H    2.2509283    1.8888011    0.8310761  
H   -0.0229599   -0.0187323    5.5027230  
H    3.3143982    2.7817323    3.1139444  
H    2.0889452    1.7545833    5.0442112  
