60

C    3.3003549    0.0005280   -1.4738980  
C    2.5232820    0.0003502   -2.6090743  
C    1.1623202   -0.0001315   -2.1820098  
C    1.1711886    0.0000585   -0.7636141  
N    2.4852302   -0.0014917   -0.3662354  
C    0.0000000    0.0000000    0.0000000  
C   -1.2020383    0.0000521   -0.6806484  
O   -2.3759250    0.0003495    0.0157736  
C   -1.2314652   -0.0005109   -2.0955513  
O   -2.5054384   -0.0008033   -2.6250187  
C   -0.0764509   -0.0007269   -2.8495196  
H    2.8036263    0.0088183    0.5858669  
H   -3.0835633    0.0000348   -0.6418822  
H   -2.4360041   -0.0011522   -3.5845929  
H   -0.1304089   -0.0013416   -3.9319087  
H    4.3715550    0.0004899   -1.3667126  
C    5.8843132   -2.1416050   -4.3706061  
C    5.8364449   -1.7353557   -5.6606640  
C    4.7035117   -0.8249887   -5.7254243  
C    4.1682347   -0.7974897   -4.3472709  
N    4.8563802   -1.5672820   -3.5486063  
C    3.0267444   -0.0008945   -3.9901697  
C    2.4466112    0.7350856   -4.9654197  
O    1.3754302    1.5237296   -4.7739748  
C    2.9636557    0.7287627   -6.3657006  
O    2.3859605    1.4229262   -7.2021369  
C    4.1359067   -0.0966501   -6.7069423  
H    1.1962576    1.9150489   -5.6479992  
H    4.4795915   -0.0735996   -7.7324081  
H    6.5846116   -2.8231835   -3.9145295  
C    6.7279457   -2.1218583   -6.7637246  
C    7.7854017   -2.9655395   -6.7241340  
C    8.3019959   -2.9835254   -8.0840263  
C    7.4126398   -2.0696626   -8.8326814  
N    6.4880741   -1.5614881   -8.0639635  
C    7.5933749   -1.8112262  -10.2346915  
C    8.6163199   -2.4369807  -10.8602691  
O    8.9015514   -2.2884950  -12.1651201  
C    9.5313474   -3.3646949  -10.1320989  
O   10.4414320   -3.8997246  -10.7651155  
C    9.3251863   -3.6134443   -8.6942027  
H    8.1677142   -3.5085331   -5.8767433  
H    6.9282893   -1.1388904  -10.7567411  
H    9.6785942   -2.8566577  -12.3152807  
H   10.0097455   -4.2920047   -8.2031180  
C    0.0000000    0.0000000    1.4700000  
C    1.0541688    0.0001722    2.3260392  
C    0.5103138    0.0000454    3.6635956  
C   -0.9576371   -0.0002459    3.5155732  
N   -1.2018458    0.0001392    2.1615969  
C   -1.8348311   -0.0008317    4.5510609  
C   -1.2972847   -0.0009736    5.9014604  
O   -2.0050672   -0.0014265    6.9001319  
C    0.2542623   -0.0004184    6.0817573  
O    0.7184670   -0.0002256    7.2139121  
C    1.0974552   -0.0000873    4.8889129  
H    2.0940752    0.0005483    2.0517982  
H   -2.9081052   -0.0011668    4.4207061  
H    2.1707277    0.0000911    5.0223670  
H   -2.1128194   -0.0014912    1.7406791  
