58

C    0.4770118   -0.8916706   -9.6256167  
C    0.7879497   -0.5308498  -10.8973080  
C    0.5572574    0.8908017  -10.9998926  
C    0.0830594    1.3318129   -9.6742093  
N    0.0562974    0.2038165   -8.8869372  
C   -0.2443326    2.6110817   -9.3611764  
C   -0.1216767    3.6209583  -10.3992724  
O   -0.3923071    4.8006083  -10.2162770  
C    0.3783498    3.1763375  -11.8106863  
O    0.4853165    4.0176496  -12.6927358  
C    0.7010758    1.7682269  -12.0273065  
H    1.1386962   -1.1858748  -11.6748248  
H   -0.5900467    2.9135446   -8.3824494  
H    1.0468144    1.4685926  -13.0073089  
H    0.5196097   -1.8657400   -9.1659812  
C    1.7371422   -2.0043750   -5.5274505  
C    0.9346266   -1.6238670   -4.5062936  
C   -0.0220098   -0.7047840   -5.1034811  
C    0.3601280   -0.6444241   -6.5306852  
N    1.3906155   -1.4042325   -6.7851963  
C   -0.3537176    0.1694996   -7.4756927  
C   -1.4019189    0.8900579   -7.0159054  
O   -2.1569101    1.6919658   -7.7859521  
C   -1.8124079    0.8499980   -5.5813134  
O   -2.7762301    1.5318137   -5.2328955  
C   -1.0641734    0.0073898   -4.6315339  
H    0.9854833   -1.9292388   -3.4751597  
H   -2.8200953    2.0664814   -7.1784361  
H    2.5747583   -2.6829136   -5.4964944  
C    1.1319248    0.0015675   -0.8009270  
C    0.7969916    0.0034959   -2.1169404  
C   -0.6453336    0.0035703   -2.1842672  
C   -1.1266831    0.0015415   -0.7896027  
N    0.0000000    0.0000000    0.0000000  
C   -2.4346129    0.0013924   -0.4276297  
C   -3.4350110    0.0031352   -1.4820184  
O   -4.6384610    0.0030897   -1.2583919  
C   -2.9478958    0.0050460   -2.9661075  
O   -3.7809377    0.0062160   -3.8623775  
C   -1.5113821    0.0053068   -3.2312125  
H    1.4821240    0.0045436   -2.9459192  
H   -2.7664565    0.0000185    0.6013447  
H    2.1104318    0.0009428   -0.3488058  
C    0.8681109    0.7263879    2.2709268  
C    0.6127770    0.5096195    3.5869401  
C   -0.4920590   -0.4175482    3.6542670  
C   -0.8620974   -0.7254003    2.2596025  
N    0.0000000    0.0000000    1.4700000  
C   -1.8641242   -1.5660088    1.8976294  
C   -2.6293522   -2.2103885    2.9520183  
O   -3.5512764   -2.9839180    2.7283916  
C   -2.2549728   -1.8987399    4.4361073  
O   -2.8923672   -2.4351063    5.3323774  
C   -1.1543735   -0.9755647    4.7012123  
H    1.1382914    0.9492124    4.4159191  
H   -2.1192137   -1.7782617    0.8686553  
H   -0.9013378   -0.7652422    5.7314848  
H    1.6172880    1.3558399    1.8188057  
