58

C    3.2798082    0.0005856   -1.4499651  
C    2.5571141    0.0005564   -2.5996557  
C    1.1637430    0.0001547   -2.2210361  
C    1.1336957   -0.0000201   -0.7459470  
N    2.4483511   -0.0001429   -0.3402721  
C    0.0000000    0.0000000    0.0000000  
C   -1.2757373   -0.0000187   -0.6964409  
O   -2.3524598   -0.0000640   -0.1142310  
C   -1.2676502   -0.0000875   -2.2584078  
O   -2.3355770   -0.0004103   -2.8557291  
C    0.0181554    0.0001757   -2.9516296  
H    2.9547346    0.0006074   -3.5989107  
H    0.0150783    0.0003316   -4.0331629  
H    2.7563625    0.0012824    0.6148059  
C    6.4690078    0.0019755   -4.4192243  
C    7.5790602    0.0025231   -3.6450395  
C    7.0826139    0.0021761   -2.2775451  
C    5.6103552    0.0015082   -2.4155205  
N    5.2447502    0.0013071   -3.6686456  
C    4.7390845    0.0009614   -1.2727285  
C    5.3125314    0.0006874   -0.0477823  
O    4.6211391    0.0001824    1.1046138  
C    6.7952867    0.0009744    0.1242535  
O    7.2479824    0.0008235    1.2689314  
C    7.6676532    0.0015791   -1.0635602  
H    8.6077289    0.0030018   -3.9627114  
H    5.3014935    0.0000717    1.8019448  
H    8.7364289    0.0016562   -0.8963845  
C    6.3890374    0.0020110   -5.8870477  
C    7.4084108    0.0025783   -6.7772480  
C    6.7663356    0.0023292   -8.0827132  
C    5.3177808    0.0014680   -7.7856055  
N    5.0904818    0.0013587   -6.5001778  
C    4.3275118    0.0010404   -8.8269768  
C    4.7644834    0.0018433  -10.1069720  
O    3.9519851    0.0015611  -11.1774331  
C    6.2197717    0.0030943  -10.4390799  
O    6.5454269    0.0036528  -11.6261642  
C    7.2160208    0.0034679   -9.3530727  
H    8.4655037    0.0031914   -6.5732134  
H    3.2756539    0.0002046   -8.5810009  
H    4.5525525    0.0023423  -11.9445516  
H    8.2603076    0.0044970   -9.6353725  
C    2.5128556    2.1077716    2.9199648  
C    1.9592212    1.6432552    4.0696553  
C    0.8915788    0.7479214    3.6910360  
C    0.8684491    0.7287414    2.2159470  
N    1.8754542    1.5738793    1.8102719  
C    0.0000000    0.0000000    1.4700000  
C   -0.9772830   -0.8200135    2.1664417  
O   -1.8021297   -1.5120829    1.5842315  
C   -0.9711318   -0.8147624    3.7284083  
O   -1.7894187   -1.5009653    4.3257297  
C    0.0140216    0.0115358    4.4216297  
H    2.2638494    1.8988021    5.0689105  
H    0.0117648    0.0094386    5.5031631  
H    3.3327358    2.7953732    2.7900019  
H    2.1123206    1.7707734    0.8551938  
