58

C   -0.0307357   -0.0004648   -4.4215605  
C    1.0209936   -0.0006525   -5.2805953  
C    0.4733354   -0.0007748   -6.6165992  
C   -0.9941884   -0.0006127   -6.4644009  
N   -1.2345441   -0.0008272   -5.1097354  
C   -1.8743250   -0.0002665   -7.4973890  
C   -1.3406225   -0.0002646   -8.8493125  
O   -2.0512434   -0.0000286   -9.8459665  
C    0.2104050   -0.0006867   -9.0340228  
O    0.6713870   -0.0009954  -10.1674933  
C    1.0569883   -0.0007589   -7.8435821  
H    2.0616756   -0.0008823   -5.0093139  
H    2.1298764   -0.0008465   -7.9800891  
H   -2.1443168    0.0007705   -4.6862276  
C    3.2573671   -0.0002921   -1.5109385  
C    2.5379468   -0.0001709   -0.3591966  
C    1.1435043    0.0000332   -0.7338505  
C    1.1092606   -0.0000083   -2.2088481  
N    2.4227561    0.0001908   -2.6182617  
C   -0.0265535   -0.0002524   -2.9515665  
C   -1.3003038   -0.0002640   -2.2514985  
O   -2.3786788   -0.0004132   -2.8306428  
C   -1.2877726    0.0000312   -0.6895607  
O   -2.3539957    0.0003306   -0.0892034  
C    0.0000000    0.0000000    0.0000000  
H    2.9384092   -0.0000368    0.6389229  
H    4.3270393   -0.0004765   -1.6439450  
H    2.7280488   -0.0013408   -3.5742119  
C   -3.3330910    0.0000650   -7.3160013  
C   -4.0525113    0.0002834   -6.1642594  
C   -5.4469539    0.0005340   -6.5389128  
C   -5.4811974    0.0004138   -8.0139103  
N   -4.1677020    0.0005276   -8.4233245  
C   -6.6170114    0.0001837   -8.7566293  
C   -7.8907616    0.0002714   -8.0565613  
O   -8.9691365    0.0001423   -8.6357051  
C   -7.8782305    0.0006512   -6.4946234  
O   -8.9444532    0.0010346   -5.8942667  
C   -6.5904578    0.0005958   -5.8050632  
H   -3.6520486    0.0004528   -5.1661394  
H   -6.6200877   -0.0000313   -9.8377857  
H   -6.5904579    0.0006548   -4.7235253  
H   -3.8624091   -0.0010709   -9.3792747  
C    0.8400945    0.7047457    2.2710304  
C    0.0000000    0.0000000    1.4700000  
C   -0.8844236   -0.7423113    2.3369512  
C   -0.4878984   -0.4098547    3.7186280  
N    0.5629682    0.4714286    3.6095011  
C   -1.0836927   -0.9095027    4.8308716  
C   -2.1891196   -1.8367527    4.6554461  
O   -2.7906899   -2.3413415    5.5944904  
C   -2.6257283   -2.2031529    3.2011665  
O   -3.5549479   -2.9829990    3.0410059  
C   -1.9068976   -1.5999348    2.0816745  
H   -0.7774656   -0.6525820    5.8354244  
H   -2.2155208   -1.8586617    1.0779135  
H    1.6384792    1.3747609    1.9961646  
H    1.0518368    0.8833920    4.3830260  
