58

C    4.7131956    0.0202321   -8.0825703  
C    5.7793989   -0.6557603   -8.5828896  
C    5.8834058   -0.3038404   -9.9793750  
C    4.7825217    0.6393746  -10.2535832  
N    4.1104381    0.7936096   -9.0630348  
C    4.5380896    1.2053049  -11.4625825  
C    5.4178617    0.8623890  -12.5675457  
O    5.2806065    1.3192946  -13.6947992  
C    6.5900565   -0.1346871  -12.2999567  
O    7.3371081   -0.4311180  -13.2226185  
C    6.7525524   -0.6788521  -10.9541000  
H    6.4198103   -1.3247393   -8.0361235  
H    3.7251293    1.8949796  -11.6424569  
H    7.5667440   -1.3683999  -10.7770715  
H    3.3071574    1.3794752   -8.9268393  
C    5.9779326   -2.0928591   -4.4468277  
C    5.0400352   -1.6304885   -3.5804345  
C    4.1859904   -0.7341816   -4.3234534  
C    4.7069274   -0.7121369   -5.7036455  
N    5.7934746   -1.5560773   -5.7119683  
C    4.1728105    0.0176375   -6.7155015  
C    3.0072078    0.8361656   -6.4258171  
O    2.4535609    1.5290919   -7.2693982  
C    2.4388222    0.8282646   -4.9709355  
O    1.4580061    1.5136694   -4.7150426  
C    3.1006054    0.0006263   -3.9654951  
H    4.9561723   -1.8877887   -2.5395805  
H    6.7884827   -2.7804145   -4.2674807  
H    6.3633296   -1.7534007   -6.5140749  
C    3.2798083    0.0005857   -1.4499652  
C    2.5571142    0.0005565   -2.5996556  
C    1.1637432    0.0001548   -2.2210361  
C    1.1336964   -0.0000200   -0.7459473  
N    2.4483512   -0.0001428   -0.3402723  
C    0.0000000    0.0000000    0.0000000  
C   -1.2757368   -0.0000186   -0.6964415  
O   -2.3524598   -0.0000639   -0.1142311  
C   -1.2676497   -0.0000872   -2.2584083  
O   -2.3355766   -0.0004101   -2.8557295  
C    0.0181558    0.0001758   -2.9516296  
H    0.0150788    0.0003319   -4.0331631  
H    4.3498547    0.0008612   -1.3200026  
H    2.7563626    0.0012823    0.6148059  
C    2.5528530    2.1414826    2.8079335  
C    2.0663498    1.7338582    4.0032312  
C    0.9804344    0.8229586    3.6752840  
C    0.9495562    0.7966882    2.1971295  
N    1.8690446    1.5676019    1.6831036  
C    0.0000000    0.0000000    1.4700000  
C   -0.8785127   -0.7372425    2.1869543  
O   -1.8187535   -1.5261249    1.6395491  
C   -0.8723269   -0.7321790    3.6796354  
O   -1.7010379   -1.4274584    4.2670412  
C    0.1115397    0.0933559    4.4024240  
H    2.4028853    2.0163452    4.9860947  
H   -2.2861435   -1.9184361    2.3990168  
H    0.0832434    0.0693689    5.4835595  
H    3.3664920    2.8238276    2.6198634  
