62

C    3.8878171   -0.7221148   -4.5427236  
C    3.9719337   -0.4862747   -5.8954138  
C    2.9171614    0.4147688   -6.2273415  
C    2.2168612    0.6962704   -5.0263989  
N    2.8310664   -0.0116219   -4.0232752  
C    1.1122536    1.5520021   -4.9778752  
C    0.7074032    2.1344024   -6.1632379  
O   -0.3652170    2.9784456   -6.1726998  
C    1.3930197    1.8656306   -7.3717527  
O    0.8682192    2.5214017   -8.4662354  
C    2.4826540    1.0213229   -7.4204129  
H    4.7028569   -0.9122317   -6.5612259  
H    0.5741181    1.7705381   -4.0658152  
H   -0.4758800    3.2691039   -7.0873239  
H    1.3885192    2.2856102   -9.2403773  
H    4.4971337   -1.3420430   -3.9076007  
C    3.3041274    0.0001177   -1.5420430  
C    2.5845373   -0.0004778   -0.3695855  
C    1.2040006   -0.0000008   -0.7283592  
C    1.1422375    0.0006035   -2.1454376  
N    2.4348638    0.0026109   -2.6077464  
C   -0.0655181    0.0008796   -2.8497921  
C   -1.2321767    0.0002321   -2.1101403  
O   -2.4392814    0.0001145   -2.7472524  
C   -1.1911210   -0.0000008   -0.6955263  
O   -2.4371527   -0.0002321   -0.1032858  
C    0.0000000    0.0000000    0.0000000  
H    3.0031536   -0.0000661    0.6222578  
H   -0.1193548    0.0014841   -3.9297472  
H   -3.1132988   -0.0000651   -2.0551785  
H   -2.3200279   -0.0004072    0.8516404  
H    4.3686625    0.0004071   -1.7024291  
C    4.1764329   -2.6436915   -9.1472948  
C    4.6387283   -2.1453625  -10.3228908  
C    4.3205807   -0.7370266  -10.3373085  
C    3.6301152   -0.4536828   -9.0646088  
N    3.5744014   -1.6509768   -8.3891293  
C    3.1675459    0.7677847   -8.6961645  
C    3.3625566    1.8773857   -9.6144737  
O    2.9819983    3.0156809   -9.3741393  
C    4.0910567    1.6001760  -10.9680783  
O    4.2607063    2.5264965  -11.7493668  
C    4.5447450    0.2412369  -11.2532170  
H    5.1446871   -2.7009783  -11.0922478  
H    5.0484700    0.0576969  -12.1925243  
H    4.2247055   -3.6526723   -8.7711069  
H    3.1619262   -1.7828629   -7.4838573  
C    2.5528530    2.1414826    2.8079335  
C    2.0663498    1.7338582    4.0032312  
C    0.9804344    0.8229586    3.6752840  
C    0.9495562    0.7966882    2.1971295  
N    1.8690446    1.5676019    1.6831036  
C    0.0000000    0.0000000    1.4700000  
C   -0.8785127   -0.7372425    2.1869543  
O   -1.8187535   -1.5261249    1.6395491  
C   -0.8723269   -0.7321790    3.6796354  
O   -1.7010379   -1.4274584    4.2670412  
C    0.1115397    0.0933559    4.4024240  
H    2.4028853    2.0163452    4.9860947  
H   -2.2861435   -1.9184361    2.3990168  
H    0.0832434    0.0693689    5.4835595  
H    3.3664920    2.8238276    2.6198634  
