64

C    3.3041270    0.0001178   -1.5420432  
C    2.5845372   -0.0004779   -0.3695853  
C    1.2040007   -0.0000006   -0.7283591  
C    1.1422373    0.0006039   -2.1454374  
N    2.4348636    0.0026110   -2.6077466  
C   -0.0655186    0.0008800   -2.8497915  
C   -1.2321770    0.0002326   -2.1101397  
O   -2.4392818    0.0001149   -2.7472515  
C   -1.1911209   -0.0000006   -0.6955262  
O   -2.4371522   -0.0002319   -0.1032858  
C    0.0000000    0.0000000    0.0000000  
H    3.0031535   -0.0000661    0.6222580  
H    2.7054625   -0.0071097   -3.5745263  
H   -3.1132993   -0.0000646   -2.0551781  
H   -2.3200286   -0.0004070    0.8516413  
C    6.7068652   -0.0034178    1.2828889  
C    7.7136018   -0.0021475    0.3453677  
C    7.0885452   -0.0007420   -0.9367793  
C    5.6872999   -0.0009462   -0.7166943  
N    5.4901250   -0.0045361    0.6418810  
C    4.7577214    0.0005130   -1.7610465  
C    5.2516912    0.0025160   -3.0510726  
O    4.3881527    0.0043529   -4.1081026  
C    6.6464190    0.0023764   -3.2909673  
O    6.9801786    0.0041003   -4.6296031  
C    7.5640504    0.0006643   -2.2611726  
H    8.7687023   -0.0033295    0.5592768  
H    4.5960834    0.0050496    1.0985853  
H    4.9330445    0.0052560   -4.9058225  
H    7.9393885    0.0039071   -4.7039037  
H    8.6263216    0.0004197   -2.4757855  
H    6.7604653   -0.0050603    2.3581021  
C    2.2783843   -2.0910258   -5.9524486  
C    1.7853120   -1.6292411   -4.7744375  
C    0.6997743   -0.7327361   -5.0949397  
C    0.6001061   -0.7099363   -6.5667877  
N    1.5849246   -1.5536734   -7.0262765  
C   -0.3061448    0.0202236   -7.2648426  
C   -1.2459588    0.8383997   -6.5165965  
O   -2.1000527    1.5316276   -7.0534948  
C   -1.1584133    0.8296993   -4.9570884  
O   -1.9441944    1.5148021   -4.3164303  
C   -0.1387086    0.0017020   -4.3179679  
H    2.1415240   -1.8870539   -3.7929799  
H   -0.3624284    0.0226852   -8.3445354  
H    3.0901474   -2.7785186   -6.1264724  
H    1.7699533   -1.7505092   -7.9927481  
C    0.8676693    0.7151171    2.2619005  
C    0.5875920    0.4624972    3.5848544  
C   -0.5048400   -0.4542819    3.6114698  
C   -0.8517165   -0.7276451    2.2635546  
N    0.0000000    0.0000000    1.4700000  
C   -1.8902865   -1.5946756    1.9108239  
C   -2.5912627   -2.1969500    2.9375057  
O   -3.6148162   -3.0527051    2.6493466  
C   -2.2603868   -1.9365747    4.2886322  
O   -3.0513550   -2.6123276    5.1947621  
C   -1.2361111   -1.0811317    4.6373480  
H    1.1060808    0.8876438    4.4271209  
H   -2.1597133   -1.8070987    0.8854031  
H   -3.9636755   -3.3565188    3.4974381  
H   -2.7621927   -2.3810384    6.0827341  
H   -1.0058879   -0.9010589    5.6809233  
H    1.6167816    1.3499334    1.8205408  
