62

C    0.0000000    0.0000000    0.0000000  
C    1.0521665   -0.0011901   -0.8862342  
C    0.4917217   -0.0011956   -2.1979130  
C   -0.9187428    0.0003148   -2.0478683  
N   -1.1833173   -0.0009411   -0.7007911  
C   -1.7951703    0.0010349   -3.1372088  
C   -1.2375840    0.0005224   -4.4010424  
O   -2.0474220    0.0015359   -5.4997576  
C    0.1673578   -0.0013566   -4.5711965  
O    0.5673521   -0.0020688   -5.8915549  
C    1.0325768   -0.0023412   -3.4969890  
H    2.0953059   -0.0030648   -0.6200563  
H   -2.0989774    0.0102371   -0.2891826  
H   -1.4634888    0.0006496   -6.2693593  
H    1.5290706   -0.0033152   -5.9180048  
C    4.3850067   -2.1302626   -1.4420384  
C    3.1441272   -1.6664980   -1.8129924  
C    3.3426798   -0.7794194   -2.9122052  
C    4.7370097   -0.7413797   -3.1697394  
N    5.3406655   -1.5712835   -2.2578860  
C    5.2968237    0.0339845   -4.1896446  
C    4.4333108    0.7843870   -4.9638663  
O    4.9266682    1.5591317   -5.9735109  
C    3.0391102    0.7599365   -4.7221539  
O    2.3124198    1.5614494   -5.5782152  
C    2.4861699   -0.0045381   -3.7159922  
H    2.2107766   -1.9337380   -1.3477689  
H    6.3263421   -1.7540855   -2.2030555  
H    6.3586901    0.0674338   -4.3909477  
H    4.1660102    1.9932088   -6.3812376  
H    1.3813911    1.4874682   -5.3473121  
H    4.6641251   -2.8144409   -0.6591256  
C   -3.9706155    0.7078467   -2.0752016  
C   -3.2578657    0.0024038   -2.9908504  
C   -4.2092570   -0.7390489   -3.7845363  
C   -5.5442784   -0.4053287   -3.2524286  
N   -5.3302445    0.4757921   -2.2176797  
C   -6.7107803   -0.9039064   -3.7345060  
C   -6.6471512   -1.8312557   -4.8518733  
O   -7.6418943   -2.3349351   -5.3569424  
C   -5.2439104   -2.1989847   -5.4310930  
O   -5.1777891   -2.9789262   -6.3716137  
C   -4.0578496   -1.5968509   -4.8273156  
H   -7.6796127   -0.6460680   -3.3297926  
H   -3.0900455   -1.8564946   -5.2343343  
H   -3.6170011    1.3775596   -1.3081742  
H   -6.0508679    0.8884474   -1.6542400  
C    1.0672568    0.0000697    2.3021913  
C    0.0000000    0.0000000    1.4700000  
C   -1.1601224    0.0000736    2.3478473  
C   -0.5938729    0.0000769    3.7138435  
N    0.7113367    0.0001554    3.6934124  
C   -1.4286986    0.0001879    4.8835240  
C   -2.7683114    0.0006799    4.6970523  
O   -3.6653903    0.0008304    5.6976972  
C   -3.3702025    0.0010610    3.3310774  
O   -4.5974910    0.0013779    3.2362962  
C   -2.4926826    0.0008943    2.1470656  
H   -0.9878360   -0.0000190    5.8697035  
H   -4.5324246    0.0012261    5.2533954  
H   -2.9677772    0.0012974    1.1752040  
H    2.1134392    0.0000545    2.0405121  
