62

C    1.1243411    0.0099384   -0.7919005  
C    0.7474078    0.0234185   -2.1148545  
C   -0.6787380    0.0234814   -2.1414695  
C   -1.1201744    0.0099129   -0.7935545  
N    0.0000000    0.0000000    0.0000000  
C   -2.4730816    0.0064892   -0.4408227  
C   -3.3971956    0.0172606   -1.4675042  
O   -4.7313519    0.0148525   -1.1793452  
C   -2.9763646    0.0304928   -2.8186314  
O   -4.0166473    0.0397038   -3.7247606  
C   -1.6418560    0.0336045   -3.1673474  
H    1.4178719    0.0310291   -2.9571215  
H   -2.8160170   -0.0039761    0.5845978  
H   -5.1938815    0.0233353   -2.0274368  
H   -3.6464666    0.0484034   -4.6127327  
H    2.1062466    0.0051810   -0.3505416  
C    1.5730300   -2.0887848   -5.2038814  
C    1.4267762   -1.6687573   -6.4820699  
C    0.2927987   -0.7579470   -6.4501483  
C   -0.1353540   -0.7452959   -5.0348361  
N    0.6114327   -1.5234734   -4.2994866  
C   -1.2456325    0.0472319   -4.5828760  
C   -1.8982682    0.7935083   -5.5029158  
O   -2.9511347    1.5798712   -5.2215853  
C   -1.4899754    0.8022658   -6.9386666  
O   -2.1295772    1.5052428   -7.7209412  
C   -0.3478308   -0.0192423   -7.3774776  
H    2.0157328   -1.9430474   -7.3405396  
H   -3.1964582    1.9804925   -6.0750903  
H   -0.0836671    0.0148443   -8.4259461  
C    4.8729807   -4.3042505   -7.1431901  
C    5.3382878   -4.9461146   -6.0189277  
C    4.5123190   -4.5331106   -4.9318192  
C    3.5519663   -3.6315094   -5.4579028  
N    3.8005432   -3.5134307   -6.8028504  
C    2.5718208   -3.0242898   -4.6670879  
C    2.5607579   -3.3330870   -3.3207228  
O    1.6249829   -2.7686210   -2.5029714  
C    3.5108701   -4.2300524   -2.7770710  
O    3.3689649   -4.4349305   -1.4201510  
C    4.4782603   -4.8292500   -3.5565866  
H    6.1713254   -5.6272661   -5.9861616  
H    3.2726756   -2.9483483   -7.4431776  
H    1.7932751   -3.1136744   -1.6164724  
H    4.0485141   -5.0525209   -1.1330990  
H    5.1928153   -5.5120260   -3.1119443  
H    5.2221351   -4.3468729   -8.1606543  
C    0.8681109    0.7263879    2.2709268  
C    0.6127770    0.5096195    3.5869401  
C   -0.4920590   -0.4175482    3.6542670  
C   -0.8620974   -0.7254003    2.2596025  
N    0.0000000    0.0000000    1.4700000  
C   -1.8641242   -1.5660088    1.8976294  
C   -2.6293522   -2.2103885    2.9520183  
O   -3.5512764   -2.9839180    2.7283916  
C   -2.2549728   -1.8987399    4.4361073  
O   -2.8923672   -2.4351063    5.3323774  
C   -1.1543735   -0.9755647    4.7012123  
H    1.1382914    0.9492124    4.4159191  
H   -2.1192137   -1.7782617    0.8686553  
H   -0.9013378   -0.7652422    5.7314848  
H    1.6172880    1.3558399    1.8188057  
