58

C    0.0884287   -1.0922987   -9.6294456  
C   -0.0159532   -0.7596425  -10.9418931  
C   -0.2688156    0.6608586  -10.9973266  
C   -0.3034122    1.1318882   -9.5995689  
N   -0.0804007    0.0206014   -8.8196987  
C   -0.5174594    2.4191894   -9.2270866  
C   -0.7280232    3.4066496  -10.2726113  
O   -0.9288827    4.5913421  -10.0392429  
C   -0.6958108    2.9300906  -11.7597763  
O   -0.8720941    3.7523445  -12.6486416  
C   -0.4557820    1.5159998  -12.0365154  
H    0.0737491   -1.4325916  -11.7759828  
H   -0.5388186    2.7437949   -8.1960259  
H   -0.4348031    1.1941958  -13.0688556  
H    0.2742713   -2.0568679   -9.1856447  
C    2.5365543   -2.0936800   -5.9975191  
C    2.0254115   -1.6312727   -4.8274817  
C    0.9452521   -0.7345686   -5.1651398  
C    0.8684333   -0.7123309   -6.6383662  
N    1.8600005   -1.5565503   -7.0821879  
C   -0.0266556    0.0178220   -7.3506841  
C   -0.9777108    0.8365827   -6.6174311  
O   -1.8231599    1.5298524   -7.1677885  
C   -0.9143686    0.8284832   -5.0567494  
O   -1.7097813    1.5140809   -4.4286293  
C    0.0950446    0.0004351   -4.4015596  
H    2.3662772   -1.8887984   -3.8405142  
H    3.3507072   -2.7814877   -6.1586571  
H    2.0599377   -1.7538306   -8.0455943  
C    3.3321173    0.0004713   -1.3379338  
C    2.6974181    0.0000116   -2.5332314  
C    1.2800438   -0.0002119   -2.2052841  
C    1.2395034    0.0000643   -0.7271299  
N    2.4394062    0.0005460   -0.2131038  
C    0.0000000    0.0000000    0.0000000  
C   -1.1468702    0.0000634   -0.7169543  
O   -2.3742203    0.0000074   -0.1695487  
C   -1.1388770    0.0001607   -2.2096355  
O   -2.2206234    0.0000905   -2.7970411  
C    0.1454522    0.0001815   -2.9324241  
H    3.1367984   -0.0000653   -3.5160950  
H   -2.9844346    0.0001026   -0.9290167  
H    4.3940038    0.0007618   -1.1498640  
C    0.8400945    0.7047457    2.2710304  
C    0.0000000    0.0000000    1.4700000  
C   -0.8844236   -0.7423113    2.3369512  
C   -0.4878984   -0.4098547    3.7186280  
N    0.5629682    0.4714286    3.6095011  
C   -1.0836927   -0.9095027    4.8308716  
C   -2.1891196   -1.8367527    4.6554461  
O   -2.7906899   -2.3413415    5.5944904  
C   -2.6257283   -2.2031529    3.2011665  
O   -3.5549479   -2.9829990    3.0410059  
C   -1.9068976   -1.5999348    2.0816745  
H   -0.7774656   -0.6525820    5.8354244  
H   -2.2155208   -1.8586617    1.0779135  
H    1.6384792    1.3747609    1.9961646  
H    1.0518368    0.8833920    4.3830260  
