60

C    3.3041270    0.0001178   -1.5420432  
C    2.5845372   -0.0004779   -0.3695853  
C    1.2040007   -0.0000006   -0.7283591  
C    1.1422373    0.0006039   -2.1454374  
N    2.4348636    0.0026110   -2.6077466  
C   -0.0655186    0.0008800   -2.8497915  
C   -1.2321770    0.0002326   -2.1101397  
O   -2.4392818    0.0001149   -2.7472515  
C   -1.1911209   -0.0000006   -0.6955262  
O   -2.4371522   -0.0002319   -0.1032858  
C    0.0000000    0.0000000    0.0000000  
H    3.0031535   -0.0000661    0.6222580  
H    2.7054625   -0.0071097   -3.5745263  
H   -3.1132993   -0.0000646   -2.0551781  
H   -2.3200286   -0.0004070    0.8516413  
C    4.7577214    0.0005130   -1.7610465  
C    5.7612594   -0.0009797   -0.8461777  
C    7.0028643    0.0003067   -1.5832343  
C    6.6377953    0.0027174   -3.0127478  
N    5.2625468    0.0023276   -3.0525136  
C    7.5310403    0.0048719   -4.0344194  
C    8.9464544    0.0045861   -3.7040574  
O    9.8285345    0.0063486   -4.5527232  
C    9.3558925    0.0017971   -2.1966893  
O   10.5445699    0.0012259   -1.9063364  
C    8.3019806   -0.0000949   -1.1851958  
H    5.6450062   -0.0029591    0.2229782  
H    7.2422424    0.0067506   -5.0762934  
H    8.5938435   -0.0018161   -0.1437848  
H    4.7106076    0.0051848   -3.8906083  
C    0.6605675   -0.7024456   -5.1602323  
C   -0.1387086    0.0017020   -4.3179679  
C   -1.0653118    0.7443399   -5.1393883  
C   -0.7380207    0.4127269   -6.5392824  
N    0.3171086   -0.4684296   -6.4831128  
C   -1.3885289    0.9128903   -7.6201989  
C   -2.4839900    1.8398446   -7.3894268  
O   -3.1316444    2.3448509   -8.2970686  
C   -2.8477053    2.2053534   -5.9150050  
O   -3.7679154    2.9849439   -5.7083353  
C   -2.0739367    1.6016380   -4.8330337  
H   -1.1326587    0.6565861   -8.6388987  
H   -2.3322398    1.8597483   -3.8150049  
H    1.4717483   -1.3724717   -4.9258385  
H    0.7669198   -0.8798730   -7.2802521  
C    0.8175213    0.6860729    2.3021913  
C    0.0000000    0.0000000    1.4700000  
C   -0.8887526   -0.7456559    2.3478473  
C   -0.4549825   -0.3816753    3.7138435  
N    0.5448156    0.4573574    3.6934124  
C   -1.0945674   -0.9182058    4.8835240  
C   -2.1210866   -1.7789155    4.6970523  
O   -2.8083856   -2.3554314    5.6976972  
C   -2.5824069   -2.1655116    3.3310774  
O   -3.5227682   -2.9541547    3.2362962  
C   -1.9100805   -1.6015804    2.1470656  
H   -0.7567140   -0.6349833    5.8697035  
H   -3.4728268   -2.9124471    5.2533954  
H   -2.2742832   -1.9066565    1.1752040  
H    1.6189533    1.3585343    2.0405121  
