60

C    0.0000000    0.0000000    0.0000000  
C    1.0521665   -0.0011901   -0.8862342  
C    0.4917217   -0.0011956   -2.1979130  
C   -0.9187428    0.0003148   -2.0478683  
N   -1.1833173   -0.0009411   -0.7007911  
C   -1.7951703    0.0010349   -3.1372088  
C   -1.2375840    0.0005224   -4.4010424  
O   -2.0474220    0.0015359   -5.4997576  
C    0.1673578   -0.0013566   -4.5711965  
O    0.5673521   -0.0020688   -5.8915549  
C    1.0325768   -0.0023412   -3.4969890  
H    2.0953059   -0.0030648   -0.6200563  
H   -2.0989774    0.0102371   -0.2891826  
H   -1.4634888    0.0006496   -6.2693593  
H    1.5290706   -0.0033152   -5.9180048  
C    3.4024819   -0.7096509   -3.0037684  
C    2.4861699   -0.0045381   -3.7159922  
C    3.2126683    0.7356038   -4.7205944  
C    4.6375569    0.4014741   -4.5339408  
N    4.6850371   -0.4786080   -3.4774888  
C    5.6492882    0.8988713   -5.2893883  
C    5.3123646    1.8252912   -6.3574540  
O    6.1519756    2.3278822   -7.0928154  
C    3.8097566    2.1934334   -6.5729676  
O    3.5139835    2.9726009   -7.4688899  
C    2.8090505    1.5925986   -5.6946531  
H    6.6879099    0.6407517   -5.1359313  
H    1.7708571    1.8525206   -5.8505993  
H    3.2487385   -1.3784666   -2.1725414  
H    5.5222133   -0.8912444   -3.1088239  
C   -3.2578657    0.0024038   -2.9908504  
C   -4.0046939    0.0033124   -1.8566891  
C   -5.3897519    0.0044625   -2.2646701  
C   -5.3886200    0.0041179   -3.7400646  
N   -4.0656859    0.0032562   -4.1178667  
C   -6.5062987    0.0045469   -4.5098031  
C   -7.7964679    0.0056315   -3.8404773  
O   -8.8606470    0.0061494   -4.4453114  
C   -7.8213908    0.0062652   -2.2786886  
O   -8.9017017    0.0074855   -1.7040690  
C   -6.5505223    0.0054370   -1.5584490  
H   -3.6282786    0.0033732   -0.8492543  
H   -6.4834513    0.0041522   -5.5907229  
H   -6.5764545    0.0056778   -0.4772223  
H   -3.7375608    0.0012864   -5.0662218  
C    0.0000000    0.0000000    1.4700000  
C    1.0541688    0.0001722    2.3260392  
C    0.5103138    0.0000454    3.6635956  
C   -0.9576371   -0.0002459    3.5155732  
N   -1.2018458    0.0001392    2.1615969  
C   -1.8348311   -0.0008317    4.5510609  
C   -1.2972847   -0.0009736    5.9014604  
O   -2.0050672   -0.0014265    6.9001319  
C    0.2542623   -0.0004184    6.0817573  
O    0.7184670   -0.0002256    7.2139121  
C    1.0974552   -0.0000873    4.8889129  
H    2.0940752    0.0005483    2.0517982  
H   -2.9081052   -0.0011668    4.4207061  
H    2.1707277    0.0000911    5.0223670  
H   -2.1128194   -0.0014912    1.7406791  
