60

C    3.3041286    0.0001177   -1.5420405  
C    2.5845377   -0.0004779   -0.3695834  
C    1.2040013   -0.0000007   -0.7283580  
C    1.1422395    0.0006038   -2.1454365  
N    2.4348658    0.0026110   -2.6077446  
C   -0.0655157    0.0008800   -2.8497917  
C   -1.2321756    0.0002327   -2.1101405  
O   -2.4392796    0.0001150   -2.7472537  
C   -1.1911200   -0.0000007   -0.6955273  
O   -2.4371524   -0.0002319   -0.1032878  
C    0.0000000    0.0000000    0.0000000  
H    3.0031532   -0.0000662    0.6222604  
H    2.7054651   -0.0071097   -3.5745243  
H   -0.1193524    0.0014848   -3.9297472  
H   -3.1132973   -0.0000645   -2.0551807  
H   -2.3200290   -0.0004070    0.8516394  
C    6.5771485   -0.0035574    1.3345587  
C    7.6645483   -0.0027623    0.5288665  
C    7.1290988   -0.0009889   -0.8238311  
C    5.6614008   -0.0010505   -0.6437016  
N    5.3318743   -0.0024721    0.6193897  
C    4.7577233    0.0005129   -1.7610426  
C    5.2958140    0.0024561   -3.0019248  
O    4.5716659    0.0040582   -4.1340236  
C    6.7730280    0.0029429   -3.2164016  
O    7.1927183    0.0046218   -4.3735869  
C    7.6790911    0.0012688   -2.0540887  
H    8.7019025   -0.0032211    0.8169145  
H    5.2317480    0.0052553   -4.8505732  
H    6.5493783   -0.0048795    2.4126125  
C   11.2370387   -2.0138021   -0.2806913  
C    9.9581039   -1.6317041   -0.5040899  
C   10.0324831   -0.7117603   -1.6286657  
C   11.4706654   -0.6526942   -1.9673799  
N   12.1817025   -1.4139419   -1.1806664  
C   11.9662329    0.1615870   -3.0427613  
C   11.0659347    0.8837239   -3.7479684  
O   11.3878892    1.6861410   -4.7768093  
C    9.6078502    0.8449978   -3.4307168  
O    8.8455505    1.5282225   -4.1143275  
C    9.1243215    0.0019915   -2.3228064  
H    9.0734735   -1.9365516    0.0284250  
H   13.0224288    0.1858351   -3.2680862  
H   10.5392744    2.0618358   -5.0732211  
H   11.6054133   -2.6933747    0.4712760  
C    0.8681109    0.7263879    2.2709268  
C    0.6127770    0.5096195    3.5869401  
C   -0.4920590   -0.4175482    3.6542670  
C   -0.8620974   -0.7254003    2.2596025  
N    0.0000000    0.0000000    1.4700000  
C   -1.8641242   -1.5660088    1.8976294  
C   -2.6293522   -2.2103885    2.9520183  
O   -3.5512764   -2.9839180    2.7283916  
C   -2.2549728   -1.8987399    4.4361073  
O   -2.8923672   -2.4351063    5.3323774  
C   -1.1543735   -0.9755647    4.7012123  
H    1.1382914    0.9492124    4.4159191  
H   -2.1192137   -1.7782617    0.8686553  
H   -0.9013378   -0.7652422    5.7314848  
H    1.6172880    1.3558399    1.8188057  
