62

C   -4.7630506   -0.0017261   -1.3275389  
C   -5.7496382   -0.0041248   -2.2862394  
C   -6.9989995   -0.0038895   -1.5979835  
C   -6.7092697   -0.0009933   -0.2094684  
N   -5.3425445   -0.0016914   -0.0803276  
C   -7.7059384    0.0003208    0.7710617  
C   -9.0190065   -0.0010117    0.3420785  
O  -10.0316333    0.0005299    1.2572836  
C   -9.3281955   -0.0042756   -1.0389385  
O  -10.6818176   -0.0056693   -1.3054849  
C   -8.3454697   -0.0058468   -2.0068093  
H   -5.5886403   -0.0069392   -3.3506946  
H   -4.8418176    0.0104574    0.7897908  
H   -7.4916930    0.0023831    1.8309189  
H  -10.8555486   -0.0010899    0.7528775  
H  -10.8038881   -0.0078436   -2.2597896  
C   -3.3003548   -0.0013941   -1.4738977  
C   -2.5232815   -0.0010120   -2.6090739  
C   -1.1623206   -0.0001731   -2.1820097  
C   -1.1711886   -0.0003658   -0.7636136  
N   -2.4852304    0.0008394   -0.3662353  
C    0.0000000    0.0000000    0.0000000  
C    1.2020380    0.0002638   -0.6806477  
O    2.3759255    0.0002744    0.0157743  
C    1.2314650    0.0008347   -2.0955509  
O    2.5054380    0.0014616   -2.6250181  
C    0.0764505    0.0007474   -2.8495190  
H   -2.8919962   -0.0001972   -3.6205292  
H   -2.8036244   -0.0095543    0.5858671  
H    3.0835632    0.0007749   -0.6418820  
H    2.4360040    0.0017925   -3.5845923  
H    0.1304089    0.0013765   -3.9319086  
C   -8.0638786   -0.7377446   -4.4199804  
C   -8.6361318   -0.5242676   -5.6328402  
C   -9.7241104    0.4025899   -5.4277254  
C   -9.7388842    0.7138471   -3.9856116  
N   -8.7081089   -0.0094864   -3.4313725  
C  -10.6212622    1.5552217   -3.3896230  
C  -11.6234226    2.1968914   -4.2241699  
O  -12.4622543    2.9708549   -3.7818535  
C  -11.6265002    1.8816170   -5.7540050  
O  -12.4656931    2.4156815   -6.4666008  
C  -10.6246390    0.9579283   -6.2802425  
H   -8.3310401   -0.9658448   -6.5647968  
H  -10.6147828    1.7699891   -2.3300274  
H  -10.6334307    0.7450878   -7.3405932  
H   -7.2258585   -1.3659798   -4.1651618  
C    2.5528530    2.1414826    2.8079335  
C    2.0663498    1.7338582    4.0032312  
C    0.9804344    0.8229586    3.6752840  
C    0.9495562    0.7966882    2.1971295  
N    1.8690446    1.5676019    1.6831036  
C    0.0000000    0.0000000    1.4700000  
C   -0.8785127   -0.7372425    2.1869543  
O   -1.8187535   -1.5261249    1.6395491  
C   -0.8723269   -0.7321790    3.6796354  
O   -1.7010379   -1.4274584    4.2670412  
C    0.1115397    0.0933559    4.4024240  
H    2.4028853    2.0163452    4.9860947  
H   -2.2861435   -1.9184361    2.3990168  
H    0.0832434    0.0693689    5.4835595  
H    3.3664920    2.8238276    2.6198634  
