58

C   -0.5007833   -0.5553648   -9.5513884  
C   -0.2439657   -0.4890329  -10.8832001  
C   -0.4410091    0.8846264  -11.2820343  
C   -0.8364818    1.6184061  -10.0646769  
N   -0.8544336    0.6884806   -9.0508689  
C   -1.1132057    2.9463382  -10.0231477  
C   -1.0152017    3.7033618  -11.2600178  
O   -1.2444240    4.9039414  -11.3261010  
C   -0.5983112    2.9466158  -12.5613021  
O   -0.5127473    3.5733873  -13.6087251  
C   -0.3249214    1.5139249  -12.4806358  
H    0.0497884   -1.3088626  -11.5142319  
H   -1.4014298    3.4653447   -9.1195613  
H   -0.0366594    0.9974023  -13.3860823  
H   -0.4616544   -1.4083130   -8.8934845  
C    0.8351697   -0.7268778   -5.2248488  
C    0.5760704   -0.5103264   -6.5401621  
C   -0.5290498    0.4167164   -6.6044789  
C   -0.8951514    0.7247316   -5.2088119  
N   -0.0307352   -0.0004646   -4.4215603  
C   -1.8962323    1.5652877   -4.8441110  
C   -2.6645245    2.2094353   -5.8964112  
O   -3.5858897    2.9829009   -5.6702747  
C   -2.2943358    1.8976110   -7.3815147  
O   -2.9343337    2.4337813   -8.2760453  
C   -1.1943983    0.9745125   -7.6496164  
H    1.0992703   -0.9499842   -7.3705689  
H   -2.1484159    1.7776630   -3.8144458  
H    1.5856962   -1.3561862   -4.7747704  
C    3.2573670   -0.0002920   -1.5109380  
C    2.5379468   -0.0001709   -0.3591961  
C    1.1435043    0.0000332   -0.7338500  
C    1.1092609   -0.0000082   -2.2088477  
N    2.4227562    0.0001909   -2.6182613  
C   -0.0265532   -0.0002522   -2.9515663  
C   -1.3003035   -0.0002639   -2.2514981  
O   -2.3786784   -0.0004131   -2.8306429  
C   -1.2877725    0.0000312   -0.6895608  
O   -2.3539958    0.0003307   -0.0892036  
C    0.0000000    0.0000000    0.0000000  
H    2.9384091   -0.0000369    0.6389239  
H    4.3270394   -0.0004765   -1.6439446  
H    2.7280494   -0.0013406   -3.5742113  
C    2.5528530    2.1414826    2.8079335  
C    2.0663498    1.7338582    4.0032312  
C    0.9804344    0.8229586    3.6752840  
C    0.9495562    0.7966882    2.1971295  
N    1.8690446    1.5676019    1.6831036  
C    0.0000000    0.0000000    1.4700000  
C   -0.8785127   -0.7372425    2.1869543  
O   -1.8187535   -1.5261249    1.6395491  
C   -0.8723269   -0.7321790    3.6796354  
O   -1.7010379   -1.4274584    4.2670412  
C    0.1115397    0.0933559    4.4024240  
H    2.4028853    2.0163452    4.9860947  
H   -2.2861435   -1.9184361    2.3990168  
H    0.0832434    0.0693689    5.4835595  
H    3.3664920    2.8238276    2.6198634  
