58

C    0.2970120    0.5329592   -9.3800055  
C    1.3608527   -0.3098173   -9.3347749  
C    1.9296782   -0.3413269  -10.6615304  
C    1.1041242    0.5586508  -11.4893542  
N    0.1314591    1.0564679  -10.6532975  
C    1.3170812    0.8021706  -12.8073264  
C    2.4337772    0.1330614  -13.4537153  
O    2.7080912    0.2867688  -14.6366882  
C    3.3211757   -0.8246070  -12.5962773  
O    4.2639660   -1.3937547  -13.1296413  
C    2.9925507   -1.0067461  -11.1846528  
H    1.7074377   -0.8481336   -8.4706527  
H    0.6996581    1.4660726  -13.3963375  
H    3.6120130   -1.6713387  -10.5978766  
H   -0.5867013    1.7023302  -10.9256115  
C    0.1961174   -0.6857267   -5.1976474  
C   -0.8712826    0.0001710   -4.7267111  
C   -1.3726389    0.7456799   -5.8709830  
C   -0.4644986    0.3818146   -6.9797965  
N    0.4570578   -0.4570291   -6.5911260  
C   -0.6264069    0.9182525   -8.3030901  
C   -1.6492912    1.7787630   -8.5093991  
O   -1.9180366    2.3551729   -9.6932771  
C   -2.5830260    2.1652385   -7.4107925  
O   -3.4919442    2.9537008   -7.6704362  
C   -2.3959898    1.6014058   -6.0620761  
H   -2.6997683    2.9120521   -9.5261426  
H   -3.0937612    1.9063894   -5.2937465  
H    0.8441378   -1.3580426   -4.6581711  
C    1.0965514    0.0001359   -0.8010305  
C    0.0000000    0.0000000    0.0000000  
C   -1.1546563    0.0001470   -0.8669513  
C   -0.6372014    0.0003519   -2.2486282  
N    0.7342871    0.0007337   -2.1395014  
C   -1.4147739    0.0001352   -3.3608717  
C   -2.8576049   -0.0001048   -3.1854462  
O   -3.6427779   -0.0002494   -4.1244907  
C   -3.4275840   -0.0000725   -1.7311666  
O   -4.6406831    0.0000333   -1.5710060  
C   -2.4891867   -0.0001091   -0.6116744  
H   -2.8919122   -0.0002918    0.3920866  
H    2.1388272    0.0000663   -0.5261648  
H    1.3735872   -0.0006099   -2.9130262  
C    0.8175213    0.6860729    2.3021913  
C    0.0000000    0.0000000    1.4700000  
C   -0.8887526   -0.7456559    2.3478473  
C   -0.4549825   -0.3816753    3.7138435  
N    0.5448156    0.4573574    3.6934124  
C   -1.0945674   -0.9182058    4.8835240  
C   -2.1210866   -1.7789155    4.6970523  
O   -2.8083856   -2.3554314    5.6976972  
C   -2.5824069   -2.1655116    3.3310774  
O   -3.5227682   -2.9541547    3.2362962  
C   -1.9100805   -1.6015804    2.1470656  
H   -0.7567140   -0.6349833    5.8697035  
H   -3.4728268   -2.9124471    5.2533954  
H   -2.2742832   -1.9066565    1.1752040  
H    1.6189533    1.3585343    2.0405121  
