58

C    4.5746039   -0.5533269   -8.9015329  
C    5.3088607   -0.4867181  -10.0419288  
C    5.2742963    0.8870016  -10.4852512  
C    4.4538557    1.6205151   -9.5025899  
N    4.0598268    0.6903933   -8.5685100  
C    4.1813716    2.9484165   -9.5668919  
C    4.7327815    3.7056857  -10.6782088  
O    4.5444731    4.9062596  -10.8247175  
C    5.6043549    2.9492239  -11.7307917  
O    6.0736955    3.5762037  -12.6709377  
C    5.8282586    1.5165399  -11.5543376  
H    5.8165846   -1.3064024  -10.5183198  
H    3.5773347    3.4672257   -8.8355319  
H    6.4330223    1.0002150  -12.2874087  
H    4.3660647   -1.4063982   -8.2764960  
C    4.2034631   -0.7255618   -4.3886923  
C    4.4527393   -0.5087788   -5.7058645  
C    3.4509042    0.4181858   -6.1769257  
C    2.5913890    0.7259028   -5.0179029  
N    3.1006054    0.0006263   -3.9654951  
C    1.5263736    1.5663069   -5.0520708  
C    1.2050748    2.2105938   -6.3146857  
O    0.2656485    2.9839405   -6.4477801  
C    2.1016869    1.8990850   -7.5551920  
O    1.8407248    2.4353746   -8.6236268  
C    3.2224919    0.9761281   -7.3945733  
H    5.2475925   -0.9482343   -6.2817985  
H    0.9088838    1.7784637   -4.1903244  
H    4.7325170   -1.3548952   -3.6916046  
C    3.2798083    0.0005857   -1.4499652  
C    2.5571142    0.0005565   -2.5996556  
C    1.1637432    0.0001548   -2.2210361  
C    1.1336964   -0.0000200   -0.7459473  
N    2.4483512   -0.0001428   -0.3402723  
C    0.0000000    0.0000000    0.0000000  
C   -1.2757368   -0.0000186   -0.6964415  
O   -2.3524598   -0.0000639   -0.1142311  
C   -1.2676497   -0.0000872   -2.2584083  
O   -2.3355766   -0.0004101   -2.8557295  
C    0.0181558    0.0001758   -2.9516296  
H    0.0150788    0.0003319   -4.0331631  
H    4.3498547    0.0008612   -1.3200026  
H    2.7563626    0.0012823    0.6148059  
C    0.8681109    0.7263879    2.2709268  
C    0.6127770    0.5096195    3.5869401  
C   -0.4920590   -0.4175482    3.6542670  
C   -0.8620974   -0.7254003    2.2596025  
N    0.0000000    0.0000000    1.4700000  
C   -1.8641242   -1.5660088    1.8976294  
C   -2.6293522   -2.2103885    2.9520183  
O   -3.5512764   -2.9839180    2.7283916  
C   -2.2549728   -1.8987399    4.4361073  
O   -2.8923672   -2.4351063    5.3323774  
C   -1.1543735   -0.9755647    4.7012123  
H    1.1382914    0.9492124    4.4159191  
H   -2.1192137   -1.7782617    0.8686553  
H   -0.9013378   -0.7652422    5.7314848  
H    1.6172880    1.3558399    1.8188057  
