58

C    3.2573673   -0.0002921   -1.5109381  
C    2.5379471   -0.0001710   -0.3591960  
C    1.1435044    0.0000331   -0.7338500  
C    1.1092605   -0.0000084   -2.2088475  
N    2.4227563    0.0001908   -2.6182611  
C   -0.0265529   -0.0002525   -2.9515660  
C   -1.3003036   -0.0002641   -2.2514983  
O   -2.3786782   -0.0004134   -2.8306425  
C   -1.2877727    0.0000311   -0.6895607  
O   -2.3539958    0.0003306   -0.0892036  
C    0.0000000    0.0000000    0.0000000  
H    2.9384089   -0.0000367    0.6389237  
H   -0.0296289   -0.0004087   -4.0327234  
H    2.7280494   -0.0013408   -3.5742113  
C    6.4550019   -0.0009258    1.4492358  
C    7.5628472   -0.0014713    0.6718961  
C    7.0625123   -0.0013727   -0.6941805  
C    5.5906520   -0.0008360   -0.5520170  
N    5.2286137   -0.0004914    0.7021431  
C    4.7161334   -0.0005437   -1.6923256  
C    5.2860930   -0.0003878   -2.9188984  
O    4.5914248   -0.0001202   -4.0693228  
C    6.7683529   -0.0005475   -3.0951520  
O    7.2177900   -0.0005155   -4.2411132  
C    7.6440953   -0.0008911   -1.9098250  
H    8.5924161   -0.0017985    0.9866401  
H    5.2697924   -0.0000405   -4.7685866  
H    8.7123916   -0.0008826   -2.0800407  
C    7.4329991   -0.0012537    3.7737843  
C    6.3792079   -0.0007574    2.9172805  
C    5.1813870   -0.0003289    3.7235439  
C    5.6269137   -0.0005890    5.1300630  
N    7.0022044   -0.0015489    5.0917959  
C    4.7930276    0.0000756    6.2007351  
C    3.3611612    0.0008907    5.9511498  
O    2.5286152    0.0014665    6.8484612  
C    2.8669236    0.0009270    4.4694158  
O    1.6636965    0.0013030    4.2469207  
C    3.8617946    0.0004483    3.3997976  
H    5.1404299   -0.0000004    7.2245621  
H    3.5113591    0.0006822    2.3766069  
H    8.4880608   -0.0016454    3.5530243  
H    7.6007710   -0.0003804    5.8972548  
C    2.4951002    2.0940188    2.9809380  
C    1.9440701    1.6314916    1.8291961  
C    0.8759964    0.7350050    2.2038498  
C    0.8497377    0.7130254    3.6788474  
N    1.8560616    1.5571714    4.0882609  
C   -0.0205033   -0.0168748    4.4215661  
C   -0.9962600   -0.8356168    3.7214979  
O   -1.8224391   -1.5286685    4.3006425  
C   -0.9864710   -0.8277881    2.1595606  
O   -1.8030528   -1.5133726    1.5592035  
C    0.0000000    0.0000000    1.4700000  
H    2.2509283    1.8888011    0.8310761  
H   -0.0229599   -0.0187323    5.5027230  
H    3.3143982    2.7817323    3.1139444  
H    2.0889452    1.7545833    5.0442112  
