58

C    3.2573672   -0.0002920   -1.5109380  
C    2.5379470   -0.0001710   -0.3591959  
C    1.1435044    0.0000331   -0.7338498  
C    1.1092609   -0.0000083   -2.2088475  
N    2.4227564    0.0001909   -2.6182609  
C   -0.0265532   -0.0002524   -2.9515660  
C   -1.3003037   -0.0002640   -2.2514978  
O   -2.3786783   -0.0004133   -2.8306423  
C   -1.2877723    0.0000311   -0.6895608  
O   -2.3539957    0.0003306   -0.0892035  
C    0.0000000    0.0000000    0.0000000  
H    2.9384091   -0.0000368    0.6389235  
H    2.7280494   -0.0013407   -3.5742112  
C    6.6174609    0.0016339    1.3537082  
C    5.3857491    0.0013495    0.7819026  
C    5.5854753    0.0003216   -0.6481124  
C    7.0449755   -0.0000008   -0.8640984  
N    7.6133367    0.0012282    0.3888398  
C    7.6418663   -0.0013232   -2.0828783  
C    6.7899767   -0.0022819   -3.2605105  
O    7.2316313   -0.0034333   -4.4021063  
C    5.2415223   -0.0017089   -3.0553434  
O    4.5141883   -0.0021996   -4.0393383  
C    4.7161333   -0.0005436   -1.6923256  
H    4.4446717    0.0019900    1.3024652  
H    8.7143818   -0.0016670   -2.2193376  
H    6.8814410    0.0023224    2.3987939  
H    8.5996527   -0.0002112    0.5738435  
C    2.4782023   -2.1081880   -5.8783641  
C    1.9212516   -1.6438943   -7.0265419  
C    0.8545983   -0.7486155   -6.6450160  
C    0.8356633   -0.7292248   -5.1698698  
N    1.8439055   -1.5742006   -4.7669391  
C   -0.0307352   -0.0004647   -4.4215603  
C   -1.0100801    0.8193479   -5.1153371  
O   -1.8333384    1.5114168   -4.5308820  
C   -1.0083720    0.8138718   -6.6773139  
O   -1.8284256    1.4999045   -7.2724039  
C   -0.0251096   -0.0124254   -7.3732162  
H    2.2230622   -1.8995542   -8.0266229  
H   -0.0304435   -0.0104847   -8.4547392  
H    3.2985198   -2.7956866   -5.7506350  
H    2.0835084   -1.7709325   -3.8125106  
C    0.8175213    0.6860729    2.3021913  
C    0.0000000    0.0000000    1.4700000  
C   -0.8887526   -0.7456559    2.3478473  
C   -0.4549825   -0.3816753    3.7138435  
N    0.5448156    0.4573574    3.6934124  
C   -1.0945674   -0.9182058    4.8835240  
C   -2.1210866   -1.7789155    4.6970523  
O   -2.8083856   -2.3554314    5.6976972  
C   -2.5824069   -2.1655116    3.3310774  
O   -3.5227682   -2.9541547    3.2362962  
C   -1.9100805   -1.6015804    2.1470656  
H   -0.7567140   -0.6349833    5.8697035  
H   -3.4728268   -2.9124471    5.2533954  
H   -2.2742832   -1.9066565    1.1752040  
H    1.6189533    1.3585343    2.0405121  
