58

C   -4.3359692    2.1064015   -0.0635816  
C   -5.5644950    1.6417187   -0.4083563  
C   -5.3776805    0.7467253   -1.5259085  
C   -3.9292259    0.7279267   -1.8059378  
N   -3.3543293    1.5729380   -0.8848842  
C   -3.3460098   -0.0004261   -2.7913644  
C   -4.2020398   -0.8203938   -3.6324361  
O   -3.7724548   -1.5121261   -4.5463635  
C   -5.7389990   -0.8155424   -3.3539780  
O   -6.4697274   -1.5017105   -4.0557394  
C   -6.2499650    0.0103540   -2.2628040  
H   -6.4953651    1.8969411    0.0659379  
H   -7.3153175    0.0079816   -2.0764123  
H   -4.0651604    2.7938487    0.7212548  
H   -2.3726201    1.7700214   -0.8181559  
C    0.0000000    0.0000000    0.0000000  
C    1.0662918   -0.0000103   -0.8334272  
C    0.4961866    0.0000066   -2.1718888  
C   -0.9663862   -0.0000848   -1.9540246  
N   -1.2632777   -0.0000084   -0.6828658  
C   -1.8985367   -0.0000514   -3.0477256  
C   -1.3925783    0.0004569   -4.3020543  
O   -2.1456389    0.0005417   -5.4151310  
C    0.0786225    0.0009329   -4.5544999  
O    0.4683752    0.0012595   -5.7221105  
C    1.0143159    0.0008446   -3.4159033  
H    2.1107193    0.0000632   -0.5721869  
H   -1.5042282    0.0009699   -6.1484418  
C    2.4521470    0.0014842   -3.7217487  
C    3.4891862    0.0014500   -2.8521921  
C    4.6797426    0.0022557   -3.6882989  
C    4.1623460    0.0025999   -5.0735370  
N    2.8572342    0.0022310   -5.0994564  
C    5.0381712    0.0034470   -6.2128418  
C    6.3703193    0.0043175   -5.9789284  
O    7.3023583    0.0051594   -6.9470943  
C    6.9233359    0.0043698   -4.5924458  
O    8.1464856    0.0050630   -4.4541529  
C    6.0043346    0.0034470   -3.4403348  
H    3.4509648    0.0010311   -1.7762669  
H    4.6325983    0.0034755   -7.2140512  
H    8.1530722    0.0056742   -6.4722908  
H    6.4446261    0.0036318   -2.4522189  
C    1.0672568    0.0000697    2.3021913  
C    0.0000000    0.0000000    1.4700000  
C   -1.1601224    0.0000736    2.3478473  
C   -0.5938729    0.0000769    3.7138435  
N    0.7113367    0.0001554    3.6934124  
C   -1.4286986    0.0001879    4.8835240  
C   -2.7683114    0.0006799    4.6970523  
O   -3.6653903    0.0008304    5.6976972  
C   -3.3702025    0.0010610    3.3310774  
O   -4.5974910    0.0013779    3.2362962  
C   -2.4926826    0.0008943    2.1470656  
H   -0.9878360   -0.0000190    5.8697035  
H   -4.5324246    0.0012261    5.2533954  
H   -2.9677772    0.0012974    1.1752040  
H    2.1134392    0.0000545    2.0405121  
