62

C   -3.3040701    0.0193704   -1.5420434  
C   -2.5844890    0.0157219   -0.3695854  
C   -1.2039796    0.0071021   -0.7283590  
C   -1.1422210    0.0061332   -2.1454375  
N   -2.4348367    0.0117501   -2.6077468  
C    0.0655123   -0.0012665   -2.8497919  
C    1.2321540   -0.0075002   -2.1101397  
O    2.4392393   -0.0145023   -2.7472518  
C    1.1910997   -0.0070247   -0.6955264  
O    2.4371116   -0.0141429   -0.1032860  
C    0.0000000    0.0000000    0.0000000  
H   -3.0031007    0.0177791    0.6222579  
H   -2.7053735    0.0230667   -3.5745263  
H    0.1193443   -0.0021886   -3.9297471  
H    3.1132457   -0.0182981   -2.0551780  
H    2.3199910   -0.0132769    0.8516412  
C   -5.7157637    0.0332964   -0.7739106  
C   -4.7576421    0.0275487   -1.7610464  
C   -5.4466114    0.0293419   -3.0100136  
C   -6.8349444    0.0365958   -2.7194898  
N   -6.9633016    0.0368824   -1.3526899  
C   -7.8160387    0.0404679   -3.7155965  
C   -7.3878158    0.0372602   -5.0289100  
O   -8.3035933    0.0411536   -6.0410119  
C   -6.0069925    0.0296528   -5.3388883  
O   -5.7412296    0.0268613   -6.6926633  
C   -5.0385670    0.0255562   -4.3567166  
H   -8.8757610    0.0458536   -3.5007448  
H   -7.7996672    0.0376401   -6.8652155  
H   -4.7870058    0.0217254   -6.8152787  
H   -3.9884979    0.0195561   -4.6246668  
H   -5.6079629    0.0336760    0.2972277  
C   -8.2095275    2.1843930    2.2692509  
C   -9.4883234    1.7379414    2.3663948  
C   -9.7056121    0.8386173    1.2578652  
C   -8.4394947    0.7974090    0.5015326  
N   -7.5737028    1.6349006    1.1662893  
C   -8.2368205    0.0588707   -0.6188197  
C   -9.3393317   -0.7491938   -1.1128195  
O   -9.2562377   -1.4486793   -2.1138771  
C  -10.6893824   -0.7205884   -0.3277393  
O  -11.6248077   -1.3965742   -0.7342901  
C  -10.7867755    0.1145352    0.8668043  
H  -10.1984276    2.0079577    3.1276165  
H  -11.7249059    0.1286192    1.4047978  
H   -7.6781787    2.8687657    2.9104937  
H   -6.6253246    1.8171376    0.8934971  
C    0.8400945    0.7047457    2.2710304  
C    0.0000000    0.0000000    1.4700000  
C   -0.8844236   -0.7423113    2.3369512  
C   -0.4878984   -0.4098547    3.7186280  
N    0.5629682    0.4714286    3.6095011  
C   -1.0836927   -0.9095027    4.8308716  
C   -2.1891196   -1.8367527    4.6554461  
O   -2.7906899   -2.3413415    5.5944904  
C   -2.6257283   -2.2031529    3.2011665  
O   -3.5549479   -2.9829990    3.0410059  
C   -1.9068976   -1.5999348    2.0816745  
H   -0.7774656   -0.6525820    5.8354244  
H   -2.2155208   -1.8586617    1.0779135  
H    1.6384792    1.3747609    1.9961646  
H    1.0518368    0.8833920    4.3830260  
