58

C    6.0424322   -0.7252989    2.8979814  
C    5.9026288   -0.5087688    4.2312639  
C    6.9399270    0.4180863    4.6182885  
C    7.7009502    0.7260147    3.3923952  
N    7.1066610    0.0009523    2.3854224  
C    8.7651851    1.5663937    3.3387862  
C    9.1895272    2.2104283    4.5707309  
O   10.1367559    2.9837329    4.6260545  
C    8.3982525    1.8986933    5.8808882  
O    8.7464484    2.4347697    6.9242680  
C    7.2679892    0.9757871    5.8130608  
H    5.1579600   -0.9483228    4.8706973  
H    9.3095167    1.7787075    2.4290968  
H    6.7252429    0.7654026    6.7245917  
H    5.4576769   -1.3544872    2.2467723  
C    4.7390840    0.0009613   -1.2727298  
C    5.6949931    0.0015506   -2.2307576  
C    6.9549534    0.0016801   -1.5034347  
C    6.5623380    0.0012139   -0.0777990  
N    5.2646567    0.0007106    0.0636644  
C    7.5356720    0.0011400    0.9794176  
C    8.8418533    0.0011261    0.6283828  
O    9.8560149    0.0010676    1.5101523  
C    9.2698380    0.0012197   -0.8016485  
O   10.4759225    0.0013251   -1.0477805  
C    8.2523630    0.0013382   -1.8677951  
H    5.5615837    0.0017690   -3.2990633  
H   10.6613103    0.0010471    0.9618351  
H    8.6033668    0.0012881   -2.8910384  
C    3.2798077    0.0005856   -1.4499661  
C    2.5571132    0.0005565   -2.5996564  
C    1.1637425    0.0001547   -2.2210366  
C    1.1336959   -0.0000200   -0.7459475  
N    2.4483509   -0.0001429   -0.3402730  
C    0.0000000    0.0000000    0.0000000  
C   -1.2757370   -0.0000187   -0.6964411  
O   -2.3524597   -0.0000640   -0.1142306  
C   -1.2676502   -0.0000874   -2.2584078  
O   -2.3355774   -0.0004102   -2.8557287  
C    0.0181551    0.0001758   -2.9516297  
H    2.9547342    0.0006074   -3.5989118  
H    0.0150776    0.0003317   -4.0331632  
H    2.7563626    0.0012823    0.6148051  
C    0.8175213    0.6860729    2.3021913  
C    0.0000000    0.0000000    1.4700000  
C   -0.8887526   -0.7456559    2.3478473  
C   -0.4549825   -0.3816753    3.7138435  
N    0.5448156    0.4573574    3.6934124  
C   -1.0945674   -0.9182058    4.8835240  
C   -2.1210866   -1.7789155    4.6970523  
O   -2.8083856   -2.3554314    5.6976972  
C   -2.5824069   -2.1655116    3.3310774  
O   -3.5227682   -2.9541547    3.2362962  
C   -1.9100805   -1.6015804    2.1470656  
H   -0.7567140   -0.6349833    5.8697035  
H   -3.4728268   -2.9124471    5.2533954  
H   -2.2742832   -1.9066565    1.1752040  
H    1.6189533    1.3585343    2.0405121  
