62

C    3.3041270    0.0001178   -1.5420432  
C    2.5845372   -0.0004779   -0.3695853  
C    1.2040007   -0.0000006   -0.7283591  
C    1.1422373    0.0006039   -2.1454374  
N    2.4348636    0.0026110   -2.6077466  
C   -0.0655186    0.0008800   -2.8497915  
C   -1.2321770    0.0002326   -2.1101397  
O   -2.4392818    0.0001149   -2.7472515  
C   -1.1911209   -0.0000006   -0.6955262  
O   -2.4371522   -0.0002319   -0.1032858  
C    0.0000000    0.0000000    0.0000000  
H    3.0031535   -0.0000661    0.6222580  
H    2.7054625   -0.0071097   -3.5745263  
H   -3.1132993   -0.0000646   -2.0551781  
H   -2.3200286   -0.0004070    0.8516413  
C    4.7577214    0.0005130   -1.7610465  
C    5.7908194   -0.0019867   -0.8526577  
C    7.0043637   -0.0008151   -1.6022635  
C    6.6458591    0.0027297   -2.9746294  
N    5.2743991    0.0015008   -3.0355627  
C    7.5924709    0.0050319   -4.0035658  
C    8.9252705    0.0040389   -3.6404916  
O    9.8910728    0.0065391   -4.6049778  
C    9.3028369    0.0001391   -2.2765834  
O   10.6680518   -0.0008065   -2.0777636  
C    8.3695203   -0.0024070   -1.2609855  
H    5.6830208   -0.0054673    0.2184915  
H    4.7309664    0.0139153   -3.8796649  
H    7.3257212    0.0075925   -5.0514401  
H   10.7390815    0.0050008   -4.1422200  
H   10.8374850   -0.0034605   -1.1307212  
H    8.6888286   -0.0055595   -0.2253647  
C    2.2783843   -2.0910258   -5.9524486  
C    1.7853120   -1.6292411   -4.7744375  
C    0.6997743   -0.7327361   -5.0949397  
C    0.6001061   -0.7099363   -6.5667877  
N    1.5849246   -1.5536734   -7.0262765  
C   -0.3061448    0.0202236   -7.2648426  
C   -1.2459588    0.8383997   -6.5165965  
O   -2.1000527    1.5316276   -7.0534948  
C   -1.1584133    0.8296993   -4.9570884  
O   -1.9441944    1.5148021   -4.3164303  
C   -0.1387086    0.0017020   -4.3179679  
H    2.1415240   -1.8870539   -3.7929799  
H   -0.3624284    0.0226852   -8.3445354  
H    3.0901474   -2.7785186   -6.1264724  
H    1.7699533   -1.7505092   -7.9927481  
C    0.8681109    0.7263879    2.2709268  
C    0.6127770    0.5096195    3.5869401  
C   -0.4920590   -0.4175482    3.6542670  
C   -0.8620974   -0.7254003    2.2596025  
N    0.0000000    0.0000000    1.4700000  
C   -1.8641242   -1.5660088    1.8976294  
C   -2.6293522   -2.2103885    2.9520183  
O   -3.5512764   -2.9839180    2.7283916  
C   -2.2549728   -1.8987399    4.4361073  
O   -2.8923672   -2.4351063    5.3323774  
C   -1.1543735   -0.9755647    4.7012123  
H    1.1382914    0.9492124    4.4159191  
H   -2.1192137   -1.7782617    0.8686553  
H   -0.9013378   -0.7652422    5.7314848  
H    1.6172880    1.3558399    1.8188057  
