60

C   -2.4230947    2.2463020   -1.5420426  
C   -1.8949929    1.7575085   -0.3695846  
C   -0.8829291    0.8185687   -0.7283585  
C   -0.8380475    0.7761344   -2.1454372  
N   -1.7873335    1.6534847   -2.6077461  
C    0.0474476   -0.0451884   -2.8497921  
C    0.9034335   -0.8378945   -2.1101402  
O    1.7887189   -1.6584859   -2.7472525  
C    0.8734845   -0.8098110   -0.6955265  
O    1.7873937   -1.6567849   -0.1032869  
C    0.0000000    0.0000000    0.0000000  
H   -2.2022566    2.0418121    0.6222589  
H    0.0865169   -0.0822342   -3.9297471  
H    2.2831179   -2.1166009   -2.0551794  
H    1.7016219   -1.5770266    0.8516404  
H   -3.2039467    2.9698385   -1.7024286  
C   -2.7165354    5.3825691   -4.7819000  
C   -2.4170994    4.4650468   -3.8266170  
C   -2.3348036    3.1828675   -4.4854633  
C   -2.6128049    3.4303926   -5.9131316  
N   -2.8363602    4.7831868   -6.0265378  
C   -2.6289749    2.4693657   -6.8711872  
C   -2.3544591    1.0997966   -6.4693694  
O   -2.3458145    0.1633717   -7.2576175  
C   -2.0576948    0.8146114   -4.9625829  
O   -1.8254650   -0.3345958   -4.6123642  
C   -2.0682040    1.9332898   -4.0232747  
H   -2.2707703    4.6637347   -2.7798483  
H   -2.8350575    2.6721947   -7.9129647  
H   -3.0512518    5.2616922   -6.8820501  
C   -2.9121340    6.8330280   -4.6447469  
C   -2.8401720    7.6048750   -3.5297814  
C   -3.1140750    8.9622100   -3.9389941  
C   -3.3532524    8.9175401   -5.3941880  
N   -3.2157354    7.5984931   -5.7603762  
C   -3.6461296    9.9997856   -6.1588263  
C   -3.7312599   11.2950706   -5.5049735  
O   -3.9892658   12.3293048   -6.1067170  
C   -3.4813937   11.3658493   -3.9647257  
O   -3.5500777   12.4509078   -3.4033078  
C   -3.1738166   10.1306504   -3.2481147  
H   -2.6201283    7.2624823   -2.5343106  
H   -3.8181757    9.9452729   -7.2248175  
H   -3.0023359   10.1881983   -2.1818095  
H   -3.3217922    7.2458744   -6.6938966  
C    2.5128556    2.1077716    2.9199648  
C    1.9592212    1.6432552    4.0696553  
C    0.8915788    0.7479214    3.6910360  
C    0.8684491    0.7287414    2.2159470  
N    1.8754542    1.5738793    1.8102719  
C    0.0000000    0.0000000    1.4700000  
C   -0.9772830   -0.8200135    2.1664417  
O   -1.8021297   -1.5120829    1.5842315  
C   -0.9711318   -0.8147624    3.7284083  
O   -1.7894187   -1.5009653    4.3257297  
C    0.0140216    0.0115358    4.4216297  
H    2.2638494    1.8988021    5.0689105  
H    0.0117648    0.0094386    5.5031631  
H    3.3327358    2.7953732    2.7900019  
H    2.1123206    1.7707734    0.8551938  
