58

C   -3.2798078   -0.0015997   -1.4499647  
C   -2.5571143   -0.0013472   -2.5996554  
C   -1.1637429   -0.0005146   -2.2210360  
C   -1.1336961   -0.0003305   -0.7459470  
N   -2.4483510   -0.0006140   -0.3402721  
C    0.0000000    0.0000000    0.0000000  
C    1.2757371    0.0004131   -0.6964418  
O    2.3524597    0.0007913   -0.1142320  
C    1.2676490    0.0004793   -2.2584085  
O    2.3355765    0.0011322   -2.8557300  
C   -0.0181559   -0.0001815   -2.9516298  
H   -2.9547349   -0.0015211   -3.5989103  
H   -0.0150791   -0.0003365   -4.0331631  
H   -2.7563620   -0.0021346    0.6148065  
C   -6.5739152   -0.0039047   -4.3537886  
C   -7.6280837   -0.0043055   -3.4977493  
C   -7.0842285   -0.0039640   -2.1601929  
C   -5.6162779   -0.0032976   -2.3082156  
N   -5.3720687   -0.0036925   -3.6621917  
C   -4.7390840   -0.0024266   -1.2727278  
C   -5.2766305   -0.0023514    0.0776719  
O   -4.5688481   -0.0016596    1.0763434  
C   -6.8281771   -0.0033018    0.2579686  
O   -7.2923821   -0.0035541    1.3901232  
C   -7.6713704   -0.0039178   -0.9348757  
H   -8.7446431   -0.0043691   -0.8014218  
H   -6.5739151   -0.0039633   -5.4316982  
H   -4.4610963   -0.0018473   -4.0831096  
C   -9.8729595   -2.1000615   -6.6702514  
C   -8.9000850   -1.6368468   -5.8437997  
C   -9.5352536   -0.7406333   -4.9066782  
C  -10.9681987   -0.7195632   -5.2574128  
N  -11.1069556   -1.5639215   -6.3347686  
C  -11.9087164    0.0098451   -4.6054199  
C  -11.4811041    0.8289797   -3.4835012  
O  -12.2521981    1.5216420   -2.8323983  
C   -9.9683017    0.8221134   -3.0946735  
O   -9.5964343    1.5080353   -2.1520780  
C   -9.0494875   -0.0052109   -3.8725976  
H   -7.8565569   -1.8935294   -5.8859638  
H  -12.9547590    0.0110366   -4.8787384  
H   -9.7922320   -2.7878246   -7.4962994  
H  -11.9717982   -1.7619131   -6.8036959  
C    2.4951002    2.0940188    2.9809380  
C    1.9440701    1.6314916    1.8291961  
C    0.8759964    0.7350050    2.2038498  
C    0.8497377    0.7130254    3.6788474  
N    1.8560616    1.5571714    4.0882609  
C   -0.0205033   -0.0168748    4.4215661  
C   -0.9962600   -0.8356168    3.7214979  
O   -1.8224391   -1.5286685    4.3006425  
C   -0.9864710   -0.8277881    2.1595606  
O   -1.8030528   -1.5133726    1.5592035  
C    0.0000000    0.0000000    1.4700000  
H    2.2509283    1.8888011    0.8310761  
H   -0.0229599   -0.0187323    5.5027230  
H    3.3143982    2.7817323    3.1139444  
H    2.0889452    1.7545833    5.0442112  
