62

C    3.3041272    0.0001176   -1.5420426  
C    2.5845370   -0.0004780   -0.3695849  
C    1.2040006   -0.0000008   -0.7283588  
C    1.1422377    0.0006038   -2.1454369  
N    2.4348637    0.0026109   -2.6077460  
C   -0.0655181    0.0008799   -2.8497914  
C   -1.2321767    0.0002325   -2.1101399  
O   -2.4392818    0.0001148   -2.7472518  
C   -1.1911205   -0.0000008   -0.6955263  
O   -2.4371530   -0.0002319   -0.1032860  
C    0.0000000    0.0000000    0.0000000  
H    3.0031532   -0.0000662    0.6222586  
H    2.7054628   -0.0071099   -3.5745256  
H   -0.1193548    0.0014845   -3.9297467  
H   -3.1132990   -0.0000647   -2.0551782  
H   -2.3200288   -0.0004070    0.8516411  
C    6.7068649   -0.0034180    1.2828898  
C    7.7136022   -0.0021477    0.3453691  
C    7.0885453   -0.0007422   -0.9367781  
C    5.6873002   -0.0009464   -0.7166934  
N    5.4901250   -0.0045364    0.6418817  
C    4.7577218    0.0005127   -1.7610454  
C    5.2516915    0.0025159   -3.0510719  
O    4.3881533    0.0043527   -4.1081018  
C    6.6464203    0.0023762   -3.2909665  
O    6.9801796    0.0040999   -4.6296017  
C    7.5640508    0.0006640   -2.2611712  
H    8.7687020   -0.0033297    0.5592783  
H    4.5960834    0.0050495    1.0985860  
H    4.9330452    0.0052558   -4.9058215  
H    7.9393887    0.0039068   -4.7039027  
H    8.6263221    0.0004194   -2.4757839  
C    7.9504542   -0.0072560    3.4946391  
C    7.6814616   -0.0115455    4.8256912  
C    6.2442782   -0.0132442    4.9647444  
C    5.6940848   -0.0095956    3.5957797  
N    6.7800550   -0.0056608    2.7510650  
C    4.3697556   -0.0102742    3.2993749  
C    3.4230975   -0.0146811    4.4022597  
O    2.2100062   -0.0155641    4.2388272  
C    3.9835015   -0.0183421    5.8602509  
O    3.1961188   -0.0217583    6.7968814  
C    5.4314322   -0.0174919    6.0535061  
H    8.4070192   -0.0131351    5.6195284  
H    3.9870904   -0.0076805    2.2882021  
H    5.8113515   -0.0202490    7.0661156  
H    8.9052363   -0.0049091    2.9943628  
C    0.0000000    0.0000000    1.4700000  
C    1.0541688    0.0001722    2.3260392  
C    0.5103138    0.0000454    3.6635956  
C   -0.9576371   -0.0002459    3.5155732  
N   -1.2018458    0.0001392    2.1615969  
C   -1.8348311   -0.0008317    4.5510609  
C   -1.2972847   -0.0009736    5.9014604  
O   -2.0050672   -0.0014265    6.9001319  
C    0.2542623   -0.0004184    6.0817573  
O    0.7184670   -0.0002256    7.2139121  
C    1.0974552   -0.0000873    4.8889129  
H    2.0940752    0.0005483    2.0517982  
H   -2.9081052   -0.0011668    4.4207061  
H    2.1707277    0.0000911    5.0223670  
H   -2.1128194   -0.0014912    1.7406791  
