58

C    0.3024911    3.5204857   -2.8368671  
C   -0.0662272    4.7594619   -3.2528712  
C   -0.9770150    4.5785745   -4.3585748  
C   -1.1096631    3.1222112   -4.5540266  
N   -0.3087805    2.5375027   -3.6003009  
C   -1.8847519    2.5414567   -5.5046402  
C   -2.6384682    3.4086499   -6.3948219  
O   -3.3648188    2.9820869   -7.2829439  
C   -2.5128311    4.9540951   -6.2060925  
O   -3.1424297    5.6942169   -6.9497893  
C   -1.6457537    5.4614618   -5.1456175  
H   -1.9681357    1.4709525   -5.6310418  
H   -1.5644087    6.5327605   -5.0214163  
H    0.9695127    3.2428215   -2.0369456  
C    0.0000000    0.0000000    0.0000000  
C   -0.1272315    1.0464625   -0.8560396  
C   -0.0616294    0.5065786   -2.1935958  
C    0.1154921   -0.9506473   -2.0455731  
N    0.1453883   -1.1930198   -0.6915971  
C    0.2209249   -1.8214826   -3.0810609  
C    0.1558182   -1.2878939   -4.4314605  
O    0.2409085   -1.9905430   -5.4301318  
C   -0.0311441    0.2523476   -4.6117574  
O   -0.0870550    0.7131725   -5.7439123  
C   -0.1327204    1.0894000   -3.4189132  
H   -0.2525371    2.0787919   -0.5817987  
H    0.3503036   -2.8869306   -2.9507060  
H    0.2538666   -2.0975129   -0.2706790  
C    3.8540407    6.1441040   -1.7660301  
C    2.8374107    5.4097750   -2.2868939  
C    1.6636885    6.2506981   -2.2791346  
C    2.0828652    7.5444211   -1.7069791  
N    3.4213490    7.4142643   -1.4164452  
C    1.2606574    8.6095308   -1.5302858  
C   -0.1299857    8.4724933   -1.9301209  
O   -0.9491463    9.3742677   -1.8114629  
C   -0.5958501    7.1112069   -2.5381299  
O   -1.7643776    6.9839330   -2.8781375  
C    0.3830466    6.0361692   -2.6792236  
H    2.9022713    4.3947825   -2.6364611  
H    1.5882844    9.5497131   -1.1088275  
H    4.8828925    5.8641663   -1.6079518  
H    3.9958965    8.1321377   -1.0144490  
C    0.0000000    0.0000000    1.4700000  
C    1.0662921    0.0000102    2.3034270  
C    0.4961870   -0.0000064    3.6418889  
C   -0.9663858    0.0000850    3.4240247  
N   -1.2632773    0.0000084    2.1528658  
C   -1.8985362    0.0000517    4.5177257  
C   -1.3925775   -0.0004564    5.7720543  
O   -2.1456383   -0.0005410    6.8851312  
C    0.0786232   -0.0009323    6.0245000  
O    0.4683759   -0.0012588    7.1921102  
C    1.0143166   -0.0008442    4.8859032  
H    2.1107198   -0.0000632    2.0421868  
H   -2.9622183    0.0003270    4.3293377  
H   -1.5042274   -0.0009692    7.6184419  
H    2.0724152   -0.0013148    5.1109744  
