62

C    2.3136488   -2.1180442   -5.9171371  
C    1.6624056   -1.6181590   -7.0209776  
C    0.6419639   -0.7441442   -6.5420232  
C    0.7194929   -0.7504911   -5.1257346  
N    1.7437761   -1.5963709   -4.7793979  
C   -0.1387079    0.0017022   -4.3179686  
C   -1.0923524    0.7746132   -4.9514889  
O   -1.9557352    1.5288507   -4.2107385  
C   -1.1856784    0.7938845   -6.3634861  
O   -2.1870604    1.6126759   -6.8432319  
C   -0.3395498    0.0518703   -7.1609868  
H    2.0414324   -1.7936218   -3.8410620  
H   -2.5301600    1.9837418   -4.8403212  
H   -2.1819304    1.5683233   -7.8042789  
H   -0.4351241    0.0866807   -8.2399360  
H    3.1386337   -2.8065406   -5.8513306  
C    3.3041272    0.0001178   -1.5420427  
C    2.5845372   -0.0004778   -0.3695854  
C    1.2040006   -0.0000006   -0.7283593  
C    1.1422375    0.0006039   -2.1454375  
N    2.4348641    0.0026112   -2.6077465  
C   -0.0655179    0.0008801   -2.8497914  
C   -1.2321766    0.0002327   -2.1101402  
O   -2.4392815    0.0001149   -2.7472519  
C   -1.1911210   -0.0000006   -0.6955267  
O   -2.4371528   -0.0002319   -0.1032860  
C    0.0000000    0.0000000    0.0000000  
H    3.0031533   -0.0000659    0.6222585  
H    2.7054632   -0.0071094   -3.5745261  
H   -3.1132986   -0.0000647   -2.0551786  
H   -2.3200282   -0.0004071    0.8516411  
H    4.3686624    0.0004073   -1.7024288  
C    2.7864429   -5.3932208   -8.9623132  
C    2.9239286   -4.9562650  -10.2406880  
C    2.6313409   -3.5423319  -10.2360618  
C    2.3098494   -3.1888203   -8.8401882  
N    2.4215898   -4.3549641   -8.1187230  
C    1.9780878   -1.9418905   -8.4197063  
C    1.9345435   -0.8769747   -9.4079337  
O    1.6465045    0.2794747   -9.1287229  
C    2.2711334   -1.2286966  -10.8921186  
O    2.2374623   -0.3404653  -11.7330539  
C    2.6148677   -2.6092185  -11.2235665  
H    3.1987492   -5.5560338  -11.0900208  
H    2.8468116   -2.8444304  -12.2534215  
H    2.9207544   -6.3864101   -8.5655444  
H    2.2644806   -4.4384906   -7.1311060  
C    0.8175213    0.6860729    2.3021913  
C    0.0000000    0.0000000    1.4700000  
C   -0.8887526   -0.7456559    2.3478473  
C   -0.4549825   -0.3816753    3.7138435  
N    0.5448156    0.4573574    3.6934124  
C   -1.0945674   -0.9182058    4.8835240  
C   -2.1210866   -1.7789155    4.6970523  
O   -2.8083856   -2.3554314    5.6976972  
C   -2.5824069   -2.1655116    3.3310774  
O   -3.5227682   -2.9541547    3.2362962  
C   -1.9100805   -1.6015804    2.1470656  
H   -0.7567140   -0.6349833    5.8697035  
H   -3.4728268   -2.9124471    5.2533954  
H   -2.2742832   -1.9066565    1.1752040  
H    1.6189533    1.3585343    2.0405121  
