62

C    3.3003541    0.0005279   -1.4738995  
C    2.5232808    0.0003500   -2.6090755  
C    1.1623195   -0.0001318   -2.1820103  
C    1.1711881    0.0000583   -0.7636142  
N    2.4852299   -0.0014917   -0.3662361  
C    0.0000000    0.0000000    0.0000000  
C   -1.2020385    0.0000519   -0.6806475  
O   -2.3759250    0.0003492    0.0157749  
C   -1.2314661   -0.0005113   -2.0955502  
O   -2.5054394   -0.0008037   -2.6250176  
C   -0.0764521   -0.0007271   -2.8495194  
H    2.8919946   -0.0005617   -3.6205306  
H    2.8036265    0.0088182    0.5858654  
H   -3.0835641    0.0000346   -0.6418810  
H   -2.4360053   -0.0011528   -3.5845915  
H    4.3715547    0.0004896   -1.3667139  
C    2.2883726   -2.1096666   -5.8898014  
C    1.6780794   -1.6459102   -7.0107596  
C    0.6304135   -0.7505693   -6.5799515  
C    0.6807518   -0.7305569   -5.1055513  
N    1.7068938   -1.5752687   -4.7500465  
C   -0.1496422   -0.0015612   -4.3176960  
C   -1.1605707    0.8178672   -4.9650726  
O   -1.9555605    1.5101065   -4.3429007  
C   -1.2321950    0.8117311   -6.5254046  
O   -2.0793598    1.4974361   -7.0816253  
C   -0.2825947   -0.0147688   -7.2663563  
H    1.9326347   -1.9019647   -8.0238006  
H    3.1138595   -2.7970349   -5.8004380  
H    1.9910630   -1.7715751   -3.8078371  
C    0.1382787   -3.2606805  -10.2405455  
C   -0.0557108   -2.4939279  -11.3661242  
C   -0.2703448   -1.1543839  -10.9254949  
C   -0.1950407   -1.1650291   -9.5091115  
N    0.0522149   -2.4598530   -9.1258188  
C   -0.3588487   -0.0127529   -8.7343756  
C   -0.6028240    1.1719029   -9.4016420  
O   -0.7702362    2.3269903   -8.6939977  
C   -0.6818836    1.2027241  -10.8143046  
O   -0.9308460    2.4579512  -11.3298308  
C   -0.5206533    0.0663146  -11.5792263  
H   -0.0450526   -2.8557925  -12.3799949  
H    0.1670286   -2.7729080   -8.1788254  
H   -0.9275332    3.0246886   -9.3434130  
H   -0.9689091    2.3908305  -12.2888151  
H   -0.5867745    0.1208274  -12.6595670  
H    0.3298016   -4.3157041  -10.1446136  
C    0.0000000    0.0000000    1.4700000  
C    1.0541688    0.0001722    2.3260392  
C    0.5103138    0.0000454    3.6635956  
C   -0.9576371   -0.0002459    3.5155732  
N   -1.2018458    0.0001392    2.1615969  
C   -1.8348311   -0.0008317    4.5510609  
C   -1.2972847   -0.0009736    5.9014604  
O   -2.0050672   -0.0014265    6.9001319  
C    0.2542623   -0.0004184    6.0817573  
O    0.7184670   -0.0002256    7.2139121  
C    1.0974552   -0.0000873    4.8889129  
H    2.0940752    0.0005483    2.0517982  
H   -2.9081052   -0.0011668    4.4207061  
H    2.1707277    0.0000911    5.0223670  
H   -2.1128194   -0.0014912    1.7406791  
