58

C   -5.7056668   -0.7243944   -6.6246754  
C   -5.9610423   -0.5077464   -7.9407009  
C   -7.0660545    0.4192073   -8.0080783  
C   -7.4361517    0.7270651   -6.6134306  
N   -6.5739163    0.0018719   -5.8237888  
C   -8.4383384    1.5675026   -6.2515030  
C   -9.2036887    2.2116791   -7.3059275  
O  -10.1257612    2.9850454   -7.0823427  
C   -8.8292504    1.9000208   -8.7899988  
O   -9.4667468    2.4362169   -9.6862983  
C   -7.7284756    0.9770409   -9.0550533  
H   -5.4354441   -0.9472843   -8.7696560  
H   -8.6934681    1.7797632   -5.2225406  
H   -7.4753999    0.7667105  -10.0853148  
H   -4.9563701   -1.3536792   -6.1725199  
C   -3.2941076    0.0012874   -2.9038237  
C   -4.0168015    0.0014139   -1.7541332  
C   -5.4101727    0.0018623   -2.1327525  
C   -5.4402198    0.0019580   -3.6078415  
N   -4.1255647    0.0019953   -4.0135168  
C   -6.5739158    0.0019521   -4.3537883  
C   -7.8496529    0.0020700   -3.6573468  
O   -8.9263750    0.0021356   -4.2395567  
C   -7.8415654    0.0022235   -2.0953801  
O   -8.9094927    0.0026302   -1.4980586  
C   -6.5557597    0.0019360   -1.4021586  
H   -3.6191803    0.0013981   -0.7548779  
H   -6.5588367    0.0018392   -0.3206253  
H   -3.8175535    0.0005033   -4.9685944  
C    0.0000000    0.0000000    0.0000000  
C    1.0541688   -0.0001722   -0.8560393  
C    0.5103135   -0.0000454   -2.1935957  
C   -0.9576374    0.0002459   -2.0455730  
N   -1.2018460   -0.0001391   -0.6915968  
C   -1.8348314    0.0008317   -3.0810607  
C   -1.2972851    0.0009737   -4.4314604  
O   -2.0050676    0.0014265   -5.4301315  
C    0.2542619    0.0004184   -4.6117571  
O    0.7184666    0.0002257   -5.7439121  
C    1.0974550    0.0000874   -3.4189130  
H    2.0940752   -0.0005483   -0.5817984  
H    2.1707276   -0.0000911   -3.5523671  
H   -2.1128194    0.0014912   -0.2706789  
C    3.2573670    0.0002920    2.9809380  
C    2.5379467    0.0001709    1.8291961  
C    1.1435042   -0.0000331    2.2038498  
C    1.1092607    0.0000083    3.6788474  
N    2.4227561   -0.0001909    4.0882609  
C   -0.0265533    0.0002524    4.4215661  
C   -1.3003036    0.0002640    3.7214979  
O   -2.3786784    0.0004133    4.3006425  
C   -1.2877726   -0.0000311    2.1595606  
O   -2.3539958   -0.0003306    1.5592035  
C    0.0000000    0.0000000    1.4700000  
H    2.9384090    0.0000368    0.8310761  
H   -0.0296291    0.0004086    5.5027230  
H    4.3270393    0.0004765    3.1139444  
H    2.7280493    0.0013407    5.0442112  
