60

C   -0.9536164    0.5956998   -0.7919006  
C   -0.6429510    0.3818130   -2.1148545  
C    0.5598355   -0.3844744   -2.1414698  
C    0.9394359   -0.6102039   -0.7935548  
N    0.0000000    0.0000000    0.0000000  
C    2.0823259   -1.3342012   -0.4408233  
C    2.8559419   -1.8397907   -1.4675052  
O    3.9824716   -2.5545700   -1.1793458  
C    2.4939008   -1.6248488   -2.8186318  
O    3.3663330   -2.1915363   -3.7247611  
C    1.3666961   -0.9104731   -3.1673475  
H    2.3771826   -1.5096255    0.5845978  
H    4.3680143   -2.8102312   -2.0274369  
H    3.0494461   -1.9999853   -4.6127335  
H    1.1149312   -0.7620032   -4.2109230  
H   -1.7792052    1.1272666   -0.3505410  
C   -2.8171550    4.1400399   -3.1213380  
C   -2.0801542    3.2253386   -2.4492285  
C   -2.0016982    2.0784518   -3.3408532  
C   -2.7676311    2.4845757   -4.5387653  
N   -3.2479727    3.6921232   -4.4159196  
C   -2.9292811    1.6132228   -5.6700035  
C   -2.3516816    0.3918258   -5.6075336  
O   -2.4214444   -0.5225463   -6.5899277  
C   -1.5720916   -0.0470831   -4.4126446  
O   -1.0738760   -1.1726316   -4.4245744  
C   -1.4206624    0.8649179   -3.2649303  
H   -1.6435827    3.3175401   -1.4694428  
H   -3.4944238    1.9359625   -6.5321888  
H   -1.9163146   -1.2853252   -6.2550165  
C   -2.8718323    6.0621209   -1.4657478  
C   -3.3841448    7.3154183   -1.3615537  
C   -4.1003937    7.5806518   -2.5869001  
C   -3.9624014    6.3704543   -3.4194692  
N   -3.2064710    5.4879974   -2.6827682  
C   -4.4996954    6.2231484   -4.6569349  
C   -5.2647741    7.3305138   -5.2055068  
O   -5.7882063    7.2952863   -6.3114360  
C   -5.4235597    8.6219417   -4.3413278  
O   -6.0652528    9.5609139   -4.7927937  
C   -4.7984457    8.6622363   -3.0216832  
H   -3.2728333    7.9785051   -0.5221854  
H   -4.3867099    5.3269404   -5.2510350  
H   -4.9132699    9.5599729   -2.4295614  
H   -2.2777901    5.5096935   -0.7559394  
C    0.8400945    0.7047457    2.2710304  
C    0.0000000    0.0000000    1.4700000  
C   -0.8844236   -0.7423113    2.3369512  
C   -0.4878984   -0.4098547    3.7186280  
N    0.5629682    0.4714286    3.6095011  
C   -1.0836927   -0.9095027    4.8308716  
C   -2.1891196   -1.8367527    4.6554461  
O   -2.7906899   -2.3413415    5.5944904  
C   -2.6257283   -2.2031529    3.2011665  
O   -3.5549479   -2.9829990    3.0410059  
C   -1.9068976   -1.5999348    2.0816745  
H   -0.7774656   -0.6525820    5.8354244  
H   -2.2155208   -1.8586617    1.0779135  
H    1.6384792    1.3747609    1.9961646  
H    1.0518368    0.8833920    4.3830260  
