60

C   -3.9842536    0.7274601   -1.9451207  
C   -5.3215327    0.5112358   -2.0400276  
C   -5.5219229   -0.4153213   -3.1291426  
C   -4.1821618   -0.7234082   -3.6647868  
N   -3.2941075    0.0012873   -2.9038235  
C   -3.9439561   -1.5635939   -4.7035602  
C   -5.0831558   -2.2072385   -5.3363964  
O   -4.9726034   -2.9803452   -6.2789384  
C   -6.5111638   -1.8953296   -4.7856590  
O   -7.4779449   -2.4310778   -5.3106044  
C   -6.6412925   -0.9726598   -3.6606704  
H   -6.0809397    0.9508052   -1.4181812  
H   -2.9533232   -1.7760295   -5.0809560  
H   -7.6334626   -0.7621530   -3.2851582  
H   -3.4448691    1.3563721   -1.2556109  
C    0.0000000    0.0000000    0.0000000  
C    1.0541688   -0.0001722   -0.8560392  
C    0.5103135   -0.0000454   -2.1935954  
C   -0.9576375    0.0002459   -2.0455728  
N   -1.2018462   -0.0001392   -0.6915966  
C   -1.8348315    0.0008316   -3.0810604  
C   -1.2972851    0.0009737   -4.4314603  
O   -2.0050681    0.0014265   -5.4301316  
C    0.2542617    0.0004185   -4.6117570  
O    0.7184664    0.0002257   -5.7439119  
C    1.0974549    0.0000874   -3.4189129  
H    2.0940751   -0.0005482   -0.5817983  
H   -2.1128195    0.0014911   -0.2706785  
C    4.5414470   -2.0136874   -1.4319375  
C    3.2784302   -1.6314307   -1.7323504  
C    3.4206900   -0.7132117   -2.8517857  
C    4.8766543   -0.6552136   -3.1035534  
N    5.5387693   -1.4155504   -2.2744081  
C    5.4363354    0.1572537   -4.1484175  
C    4.5803855    0.8786758   -4.9075184  
O    4.9639641    1.6794165   -5.9163409  
C    3.1058527    0.8409930   -4.6784008  
O    2.3863352    1.5234821   -5.4075945  
C    2.5562209   -0.0001551   -3.6003007  
H    2.3632537   -1.9351324   -1.2535051  
H    6.5041744    0.1807528   -4.3099031  
H    4.1348737    2.0549929   -6.2637674  
H    4.8636451   -2.6922686   -0.6581874  
C    0.0000000    0.0000000    1.4700000  
C    1.0521667    0.0011902    2.3562342  
C    0.4917218    0.0011957    3.6679131  
C   -0.9187428   -0.0003148    3.5178682  
N   -1.1833171    0.0009411    2.1707914  
C   -1.7951701   -0.0010350    4.6072090  
C   -1.2375837   -0.0005224    5.8710424  
O   -2.0474215   -0.0015360    6.9697579  
C    0.1673580    0.0013566    6.0411963  
O    0.5673524    0.0020687    7.3615553  
C    1.0325770    0.0023412    4.9669890  
H    2.0953057    0.0030649    2.0900562  
H   -2.0989778   -0.0102372    1.7591824  
H   -2.8710934   -0.0020419    4.4995513  
H   -1.4634884   -0.0006497    7.7393593  
H    1.5290710    0.0033153    7.3880045  
H    2.1042148    0.0039609    5.1284455  
