62

C    3.3041274    0.0001179   -1.5420431  
C    2.5845371   -0.0004779   -0.3695859  
C    1.2040005   -0.0000006   -0.7283586  
C    1.1422369    0.0006043   -2.1454370  
N    2.4348639    0.0026114   -2.6077465  
C   -0.0655187    0.0008805   -2.8497915  
C   -1.2321772    0.0002330   -2.1101394  
O   -2.4392819    0.0001153   -2.7472515  
C   -1.1911209   -0.0000005   -0.6955260  
O   -2.4371525   -0.0002317   -0.1032855  
C    0.0000000    0.0000000    0.0000000  
H    3.0031533   -0.0000661    0.6222583  
H    2.7054626   -0.0071092   -3.5745262  
H   -3.1132991   -0.0000643   -2.0551780  
H   -2.3200279   -0.0004071    0.8516418  
H    4.3686617    0.0004074   -1.7024295  
C    0.6887299   -0.7238749   -5.1615446  
C    0.3681053   -0.5064769   -6.4630870  
C   -0.7390730    0.4202672   -6.4747846  
C   -1.0393329    0.7271849   -5.0632479  
N   -0.1387089    0.0017027   -4.3179681  
C   -2.0224210    1.5671727   -4.6513466  
C   -2.8394479    2.2118227   -5.6659539  
O   -3.7493949    2.9848422   -5.3962551  
C   -2.5393033    1.9011604   -7.1670227  
O   -3.2207404    2.4377620   -8.0301352  
C   -1.4529096    0.9785929   -7.4871320  
H    0.8518646   -0.9453868   -7.3174578  
H   -2.2260448    1.7787436   -3.6108254  
H    1.4597337   -1.3532671   -4.7476502  
C   -0.3849758   -2.7663073   -9.5833479  
C   -0.2958303   -2.2389692  -10.8507998  
C   -0.5898558   -0.8472726  -10.7443574  
C   -0.8525456   -0.5808302   -9.3761731  
N   -0.7214744   -1.7679843   -8.6993404  
C   -1.1790261    0.6936545   -8.9030059  
C   -1.2411624    1.7178838   -9.8278139  
O   -1.5552033    2.9820084   -9.4199162  
C   -0.9827176    1.4718204  -11.1972947  
O   -1.0846656    2.5944763  -11.9926521  
C   -0.6608432    0.2147091  -11.6648360  
H   -0.0502903   -2.7898406  -11.7425644  
H   -0.8388038   -1.8876839   -7.7094479  
H   -1.5442419    3.5350965  -10.2119001  
H   -0.8953034    2.3416256  -12.9013948  
H   -0.4682580    0.0566830  -12.7195475  
H   -0.2365537   -3.7758478   -9.2401890  
C    0.8400945    0.7047457    2.2710304  
C    0.0000000    0.0000000    1.4700000  
C   -0.8844236   -0.7423113    2.3369512  
C   -0.4878984   -0.4098547    3.7186280  
N    0.5629682    0.4714286    3.6095011  
C   -1.0836927   -0.9095027    4.8308716  
C   -2.1891196   -1.8367527    4.6554461  
O   -2.7906899   -2.3413415    5.5944904  
C   -2.6257283   -2.2031529    3.2011665  
O   -3.5549479   -2.9829990    3.0410059  
C   -1.9068976   -1.5999348    2.0816745  
H   -0.7774656   -0.6525820    5.8354244  
H   -2.2155208   -1.8586617    1.0779135  
H    1.6384792    1.3747609    1.9961646  
H    1.0518368    0.8833920    4.3830260  
