60

C    3.2798085    0.0005856   -1.4499646  
C    2.5571146    0.0005565   -2.5996553  
C    1.1637436    0.0001548   -2.2210360  
C    1.1336964   -0.0000200   -0.7459468  
N    2.4483512   -0.0001429   -0.3402719  
C    0.0000000    0.0000000    0.0000000  
C   -1.2757371   -0.0000187   -0.6964415  
O   -2.3524597   -0.0000640   -0.1142312  
C   -1.2676493   -0.0000873   -2.2584081  
O   -2.3355761   -0.0004101   -2.8557295  
C    0.0181561    0.0001759   -2.9516296  
H    2.9547354    0.0006074   -3.5989104  
H    2.7563628    0.0012823    0.6148064  
C    6.6317390   -0.0005812   -4.3241589  
C    5.4016593   -0.0005062   -3.7488513  
C    5.6054523    0.0003361   -2.3194099  
C    7.0655611    0.0007779   -2.1075768  
N    7.6303557   -0.0002120   -3.3621271  
C    7.6659168    0.0019860   -0.8905001  
C    6.8173813    0.0026871    0.2895509  
O    7.2622818    0.0037195    1.4298856  
C    5.2683492    0.0019842    0.0887900  
O    4.5438175    0.0022581    1.0748500  
C    4.7390846    0.0009612   -1.2727278  
H    4.4591040   -0.0011684   -4.2667345  
H    8.7388166    0.0024205   -0.7570925  
H    6.8927452   -0.0010919   -5.3699912  
H    8.6161410    0.0013556   -3.5499359  
C    0.0139740    0.0003878   -4.4216236  
C    1.0657033    0.0004477   -5.2806583  
C    0.5180452    0.0007113   -6.6166624  
C   -0.9494787    0.0008300   -6.4644642  
N   -1.1898343    0.0002246   -5.1097987  
C   -1.8296151    0.0014748   -7.4974515  
C   -1.2959126    0.0018667   -8.8493753  
O   -2.0065333    0.0023907   -9.8460291  
C    0.2551152    0.0014974   -9.0340855  
O    0.7160971    0.0015156  -10.1675560  
C    1.1016982    0.0010811   -7.8436448  
H    2.1063857    0.0001392   -5.0093769  
H   -2.9025139    0.0016805   -7.3640447  
H    2.1745868    0.0010326   -7.9801520  
H   -2.0996070    0.0017004   -4.6862906  
C    2.5311839    2.1237619    3.0120429  
C    1.9795631    1.6616747    1.8395852  
C    0.9223175    0.7739173    2.1983588  
C    0.8753926    0.7337535    3.6154372  
N    1.8668922    1.5631002    4.0777464  
C   -0.0496243   -0.0427881    4.3197917  
C   -0.9437528   -0.7922060    3.5801400  
O   -1.8685244   -1.5680278    4.2172520  
C   -0.9124520   -0.7656372    2.1655264  
O   -1.8671164   -1.5663939    1.5732860  
C    0.0000000    0.0000000    1.4700000  
H    2.3005065    1.9304404    0.8477417  
H    2.0679347    1.7444845    5.0445261  
H   -0.0904770   -0.0778569    5.3997470  
H   -2.3849669   -2.0011402    3.5251786  
H   -1.7775064   -1.4909735    0.6183591  
H    3.3468514    2.8078103    3.1724291  
