58

C    2.8497505   -0.7283608   -3.3359964  
C    3.4914347   -0.5134529   -4.5133372  
C    2.6832183    0.4131987   -5.2702641  
C    1.5096744    0.7227757   -4.4313672  
N    1.6707645   -0.0012351   -3.2725971  
C    0.5071672    1.5634827   -4.7917776  
C    0.5893852    2.2061555   -6.0928339  
O   -0.2632806    2.9796294   -6.5087679  
C    1.8232414    1.8926640   -6.9978898  
O    1.9032044    2.4275843   -8.0954898  
C    2.8399733    0.9695582   -6.4999101  
H   -0.3448590    1.7770150   -4.1614087  
H    3.6912445    0.7579535   -7.1325907  
H    3.1388492   -1.3569186   -2.5094211  
C    1.0965515    0.0001357   -0.8010303  
C    0.0000000    0.0000000    0.0000000  
C   -1.1546560    0.0001466   -0.8669515  
C   -0.6372014    0.0003513   -2.2486280  
N    0.7342874    0.0007332   -2.1395011  
C   -1.4147736    0.0001344   -3.3608717  
C   -2.8576045   -0.0001056   -3.1854464  
O   -3.6427775   -0.0002505   -4.1244904  
C   -3.4275838   -0.0000734   -1.7311669  
O   -4.6406825    0.0000325   -1.5710062  
C   -2.4891865   -0.0001094   -0.6116745  
H   -1.0150446    0.0001604   -4.3654245  
H   -2.8919121   -0.0002923    0.3920864  
H    2.1388272    0.0000662   -0.5261646  
C    5.1029396   -4.5686007   -4.0212329  
C    6.3033623   -4.4094748   -4.6358379  
C    6.3663400   -3.0397741   -5.0883745  
C    5.0951043   -2.4094408   -4.6841091  
N    4.3736746   -3.3894170   -4.0421782  
C    4.7666285   -1.1155540   -4.9283741  
C    5.7292963   -0.2886399   -5.6369069  
O    5.5268198    0.8884950   -5.9045973  
C    7.0819682   -0.9354789   -6.0747243  
O    7.9001239   -0.2492141   -6.6721536  
C    7.3220738   -2.3403008   -5.7542929  
H    7.0584702   -5.1653913   -4.7583771  
H    8.2612096   -2.7805645   -6.0607497  
H    4.6895916   -5.4481523   -3.5549472  
H    3.4591876   -3.2663629   -3.6476931  
C    0.0000000    0.0000000    1.4700000  
C    1.0662921    0.0000102    2.3034270  
C    0.4961870   -0.0000064    3.6418889  
C   -0.9663858    0.0000850    3.4240247  
N   -1.2632773    0.0000084    2.1528658  
C   -1.8985362    0.0000517    4.5177257  
C   -1.3925775   -0.0004564    5.7720543  
O   -2.1456383   -0.0005410    6.8851312  
C    0.0786232   -0.0009323    6.0245000  
O    0.4683759   -0.0012588    7.1921102  
C    1.0143166   -0.0008442    4.8859032  
H    2.1107198   -0.0000632    2.0421868  
H   -2.9622183    0.0003270    4.3293377  
H   -1.5042274   -0.0009692    7.6184419  
H    2.0724152   -0.0013148    5.1109744  
