58

C    3.3803171    0.7290613   -7.9914242  
C    3.1230672    0.5125723   -9.3071099  
C    4.1226133   -0.4135342   -9.7846768  
C    4.9894755   -0.7210680   -8.6310900  
N    4.4862643    0.0034850   -7.5753000  
C    6.0548380   -1.5607251   -8.6721297  
C    6.3687813   -2.2043435   -9.9369335  
O    7.3079007   -2.9769951  -10.0760991  
C    5.4643183   -1.8930151  -11.1717722  
O    5.7190500   -2.4287466  -12.2419882  
C    4.3438912   -0.9708883  -11.0039094  
H    2.3243728    0.9516829   -9.8779714  
H    6.6777791   -1.7727601   -7.8142860  
H    3.7223677   -0.7607815  -11.8637285  
H    2.8551429    1.3577833   -7.2908594  
C    2.4521485    0.0014838   -3.7217479  
C    3.4891879    0.0014496   -2.8521911  
C    4.6797445    0.0022555   -3.6882979  
C    4.1623483    0.0025994   -5.0735361  
N    2.8572360    0.0022305   -5.0994557  
C    5.0381738    0.0034465   -6.2128407  
C    6.3703214    0.0043170   -5.9789268  
O    7.3023601    0.0051588   -6.9470923  
C    6.9233380    0.0043694   -4.5924444  
O    8.1464877    0.0050629   -4.4541510  
C    6.0043360    0.0034466   -3.4403333  
H    3.4509659    0.0010307   -1.7762664  
H    8.1530739    0.0056733   -6.4722887  
H    6.4446278    0.0036317   -2.4522171  
C    0.0000000    0.0000000    0.0000000  
C    1.0662924   -0.0000102   -0.8334267  
C    0.4961874    0.0000064   -2.1718888  
C   -0.9663853   -0.0000849   -1.9540250  
N   -1.2632772   -0.0000084   -0.6828660  
C   -1.8985357   -0.0000515   -3.0477261  
C   -1.3925767    0.0004566   -4.3020548  
O   -2.1456375    0.0005411   -5.4151316  
C    0.0786242    0.0009324   -4.5545000  
O    0.4683770    0.0012590   -5.7221099  
C    1.0143173    0.0008443   -3.4159029  
H    2.1107200    0.0000632   -0.5721862  
H   -2.9622180   -0.0003269   -2.8593382  
H   -1.5042262    0.0009694   -6.1484423  
C    3.2573670    0.0002920    2.9809380  
C    2.5379467    0.0001709    1.8291961  
C    1.1435042   -0.0000331    2.2038498  
C    1.1092607    0.0000083    3.6788474  
N    2.4227561   -0.0001909    4.0882609  
C   -0.0265533    0.0002524    4.4215661  
C   -1.3003036    0.0002640    3.7214979  
O   -2.3786784    0.0004133    4.3006425  
C   -1.2877726   -0.0000311    2.1595606  
O   -2.3539958   -0.0003306    1.5592035  
C    0.0000000    0.0000000    1.4700000  
H    2.9384090    0.0000368    0.8310761  
H   -0.0296291    0.0004086    5.5027230  
H    4.3270393    0.0004765    3.1139444  
H    2.7280493    0.0013407    5.0442112  
