58

C    5.9870137   -1.8395315   -4.9503392  
C    7.0481945   -2.6538694   -4.7161935  
C    7.8987005   -2.5824485   -5.8808286  
C    7.2413317   -1.6530633   -6.8193913  
N    6.0872505   -1.2382219   -6.1957788  
C    7.7318260   -1.3176802   -8.0394892  
C    8.9911249   -1.9118817   -8.4561739  
O    9.5150839   -1.6732674   -9.5363723  
C    9.7045411   -2.8990560   -7.4782525  
O   10.7651540   -3.4057630   -7.8182685  
C    9.0779993   -3.1825518   -6.1894840  
H    7.2159258   -3.2380760   -3.8289611  
H    7.2338712   -0.6337406   -8.7126737  
H    9.5784670   -3.8669781   -5.5180550  
H    5.4214739   -0.5958620   -6.5845752  
C    4.6190968   -2.0899186   -2.8279649  
C    3.4606683   -1.6280057   -2.2906061  
C    2.8761397   -0.7301693   -3.2586202  
C    3.7955631   -0.7067284   -4.4122673  
N    4.8319966   -1.5514031   -4.0878913  
C    3.5979916    0.0246977   -5.5381831  
C    2.3999528    0.8436572   -5.6190795  
O    2.1321346    1.5380348   -6.5908891  
C    1.4124499    0.8342975   -4.4088912  
O    0.4006154    1.5200499   -4.4654210  
C    1.7334695    0.0049281   -3.2500363  
H    3.0613134   -1.8865706   -1.3260989  
H    4.2848598    0.0276109   -6.3731160  
H    5.3352944   -2.7782577   -2.4094675  
C    1.1319246    0.0015678   -0.8009268  
C    0.7969914    0.0034958   -2.1169401  
C   -0.6453340    0.0035696   -2.1842669  
C   -1.1266832    0.0015410   -0.7896025  
N    0.0000000    0.0000000    0.0000000  
C   -2.4346129    0.0013913   -0.4276292  
C   -3.4350111    0.0031335   -1.4820181  
O   -4.6384614    0.0030875   -1.2583914  
C   -2.9478961    0.0050442   -2.9661074  
O   -3.7809382    0.0062135   -3.8623773  
C   -1.5113825    0.0053055   -3.2312122  
H   -2.7664565    0.0000174    0.6013448  
H   -1.1823533    0.0068381   -4.2614848  
H    2.1104316    0.0009435   -0.3488059  
C    2.4951002    2.0940188    2.9809380  
C    1.9440701    1.6314916    1.8291961  
C    0.8759964    0.7350050    2.2038498  
C    0.8497377    0.7130254    3.6788474  
N    1.8560616    1.5571714    4.0882609  
C   -0.0205033   -0.0168748    4.4215661  
C   -0.9962600   -0.8356168    3.7214979  
O   -1.8224391   -1.5286685    4.3006425  
C   -0.9864710   -0.8277881    2.1595606  
O   -1.8030528   -1.5133726    1.5592035  
C    0.0000000    0.0000000    1.4700000  
H    2.2509283    1.8888011    0.8310761  
H   -0.0229599   -0.0187323    5.5027230  
H    3.3143982    2.7817323    3.1139444  
H    2.0889452    1.7545833    5.0442112  
