58

C    9.6483262   -0.7295805   -2.7915481  
C   10.9886948   -0.5131603   -2.7660695  
C   11.2859680    0.4129043   -3.8332466  
C    9.9996908    0.7204889   -4.4872133  
N    9.0469772   -0.0039980   -3.8087253  
C    9.8556323    1.5601274   -5.5436027  
C   11.0469791    2.2036707   -6.0718833  
O   11.0214241    2.9763001   -7.0209314  
C   12.4197925    1.8922877   -5.3949571  
O   13.4297421    2.4279560   -5.8312154  
C   12.4484788    0.9701874   -4.2623670  
H   11.6892401   -0.9522903   -2.0783092  
H    8.9028711    1.7722004   -6.0085544  
H   13.4029392    0.7600423   -3.7991534  
H    9.0492779   -1.3582553   -2.1529566  
C    5.6039770   -0.0017519   -1.1379123  
C    4.5679461   -0.0016854   -2.0086701  
C    5.1852103   -0.0025558   -3.3260478  
C    6.6391264   -0.0029687   -3.0563960  
N    6.8907016   -0.0025811   -1.7754982  
C    7.6095177   -0.0038924   -4.1163136  
C    7.1484101   -0.0047705   -5.3878139  
O    7.9405118   -0.0056803   -6.4734530  
C    5.6870989   -0.0047545   -5.6923313  
O    5.3390449   -0.0054589   -6.8730425  
C    4.7115728   -0.0037536   -4.5876722  
H    7.3255396   -0.0061817   -7.2290731  
H    3.6621313   -0.0038906   -4.8501667  
H    5.5656908   -0.0012541   -0.0601800  
C    3.1301149   -0.0010311   -1.7028252  
C    2.5367768   -0.0002767   -0.4864665  
C    1.1089904    0.0001028   -0.7656183  
C    1.0177872   -0.0004148   -2.2415132  
N    2.1993578   -0.0011611   -2.7963820  
C   -0.2459209   -0.0002877   -2.9257118  
C   -1.3675319   -0.0000605   -2.1698524  
O   -2.6129313    0.0000867   -2.6748490  
C   -1.3083584    0.0000910   -0.6783232  
O   -2.3693261    0.0004206   -0.0541692  
C    0.0000000    0.0000000    0.0000000  
H    3.0096017   -0.0001007    0.4807525  
H   -0.2829630   -0.0004687   -4.0053125  
H   -3.1967441    0.0002094   -1.8949034  
C    2.3971438    2.0127888    3.1728260  
C    1.9431056    1.6308205    1.9564670  
C    0.8496017    0.7127664    2.2356185  
C    0.7794028    0.6545384    3.7115134  
N    1.6840587    1.4146091    4.2663826  
C   -0.1885723   -0.1578550    4.3957118  
C   -1.0476298   -0.8789867    3.6398520  
O   -2.0015663   -1.6796266    4.1448486  
C   -1.0022026   -0.8410666    2.1483229  
O   -1.8147390   -1.5232959    1.5241687  
C    0.0000000    0.0000000    1.4700000  
H    2.3054237    1.9346118    0.9892483  
H   -0.2170646   -0.1815267    5.4753125  
H   -2.4487139   -2.0549881    3.3649027  
H    3.2048689    2.6911772    3.3971983  
