58

C   -3.9833917    0.7253521   -1.7965125  
C   -5.3237300    0.5083675   -1.8185364  
C   -5.5825467   -0.4183013   -2.8951674  
C   -4.2737348   -0.7256251   -3.5029138  
N   -3.3460098   -0.0004261   -2.7913644  
C   -4.0919156   -1.5656732   -4.5531348  
C   -5.2634899   -2.2099644   -5.1230805  
O   -5.2039381   -2.9830065   -6.0702668  
C   -6.6595986   -1.8988689   -4.4954634  
O   -7.6532012   -2.4351658   -4.9670550  
C   -6.7288581   -0.9762755   -3.3650313  
H   -6.0484330    0.9475035   -1.1562833  
H   -3.1231601   -1.7775446   -4.9838707  
H   -7.6992492   -0.7663338   -2.9360927  
H   -3.4076529    1.3545694   -1.1373465  
C    0.0000000    0.0000000    0.0000000  
C    1.0662918   -0.0000103   -0.8334272  
C    0.4961866    0.0000066   -2.1718888  
C   -0.9663862   -0.0000848   -1.9540246  
N   -1.2632777   -0.0000084   -0.6828658  
C   -1.8985367   -0.0000514   -3.0477256  
C   -1.3925783    0.0004569   -4.3020543  
O   -2.1456389    0.0005417   -5.4151310  
C    0.0786225    0.0009329   -4.5544999  
O    0.4683752    0.0012595   -5.7221105  
C    1.0143159    0.0008446   -3.4159033  
H    2.1107193    0.0000632   -0.5721869  
H   -1.5042282    0.0009699   -6.1484418  
C    4.4498795   -2.0927815   -1.5965452  
C    3.2085335   -1.6305557   -1.8956818  
C    3.3524531   -0.7335190   -3.0179328  
C    4.7897013   -0.7108880   -3.3504922  
N    5.3998252   -1.5552206   -2.4517479  
C    5.3348503    0.0196507   -4.3558928  
C    4.4468014    0.8384418   -5.1642773  
O    4.8411361    1.5320450   -6.0925637  
C    2.9210843    0.8299300   -4.8297324  
O    2.1637287    1.5155491   -5.5032300  
C    2.4521470    0.0014842   -3.7217487  
H    2.2961906   -1.8884107   -1.3879863  
H    6.3918361    0.0219796   -4.5832383  
H    4.7506774   -2.7807342   -0.8231556  
H    6.3833783   -1.7523011   -2.4229417  
C    0.0000000    0.0000000    1.4700000  
C    1.0541688    0.0001722    2.3260392  
C    0.5103138    0.0000454    3.6635956  
C   -0.9576371   -0.0002459    3.5155732  
N   -1.2018458    0.0001392    2.1615969  
C   -1.8348311   -0.0008317    4.5510609  
C   -1.2972847   -0.0009736    5.9014604  
O   -2.0050672   -0.0014265    6.9001319  
C    0.2542623   -0.0004184    6.0817573  
O    0.7184670   -0.0002256    7.2139121  
C    1.0974552   -0.0000873    4.8889129  
H    2.0940752    0.0005483    2.0517982  
H   -2.9081052   -0.0011668    4.4207061  
H    2.1707277    0.0000911    5.0223670  
H   -2.1128194   -0.0014912    1.7406791  
