60

C    0.0000000    0.0000000    0.0000000  
C    1.0521661   -0.0011860   -0.8862347  
C    0.4917205   -0.0011938   -2.1979135  
C   -0.9187440    0.0003111   -2.0478681  
N   -1.1833179   -0.0009458   -0.7007911  
C   -1.7951715    0.0010280   -3.1372085  
C   -1.2375854    0.0005176   -4.4010421  
O   -2.0474238    0.0015283   -5.4997576  
C    0.1673561   -0.0013560   -4.5711966  
O    0.5673502   -0.0020663   -5.8915552  
C    1.0325752   -0.0023370   -3.4969896  
H    2.0953050   -0.0030567   -0.6200569  
H   -2.0989777    0.0102290   -0.2891820  
H   -2.8710941    0.0020307   -3.0295506  
H   -1.4634910    0.0006436   -6.2693588  
H    1.5290685   -0.0033095   -5.9180051  
C    4.5245128   -2.0170115   -1.5964893  
C    3.2545814   -1.6337686   -1.8647765  
C    3.3688939   -0.7174280   -2.9889440  
C    4.8179331   -0.6614834   -3.2783222  
N    5.5004024   -1.4213079   -2.4653693  
C    5.3513364    0.1487417   -4.3385592  
C    4.4768626    0.8699809   -5.0764243  
O    4.8351410    1.6687359   -6.0960651  
C    3.0086996    0.8343380   -4.8092402  
O    2.2713422    1.5165337   -5.5206709  
C    2.4861685   -0.0045284   -3.7159932  
H    2.3517431   -1.9356885   -1.3619807  
H    3.9977693    2.0447297   -6.4225472  
H    4.8658388   -2.6947758   -0.8302611  
C    8.2833140   -3.0739803   -4.2673737  
C    9.4278555   -2.4249015   -4.5840795  
C    9.0335849   -1.0363954   -4.7660171  
C    7.5765588   -1.0265829   -4.5139020  
N    7.1311135   -2.2181394   -4.2210510  
C    6.7983396    0.1787184   -4.5958187  
C    7.4463025    1.3223040   -4.9147080  
O    6.8456107    2.5193082   -5.0260194  
C    8.9160518    1.3448917   -5.1744941  
O    9.4397511    2.4217059   -5.4598547  
C    9.6922490    0.0953689   -5.0842978  
H   10.4174677   -2.8373889   -4.6820372  
H    7.5624671    3.1354939   -5.2617831  
H   10.7546330    0.1539636   -5.2795803  
H    8.1517400   -4.1230624   -4.0550359  
C    0.0000000    0.0000000    1.4700000  
C    1.0541688    0.0001722    2.3260392  
C    0.5103138    0.0000454    3.6635956  
C   -0.9576371   -0.0002459    3.5155732  
N   -1.2018458    0.0001392    2.1615969  
C   -1.8348311   -0.0008317    4.5510609  
C   -1.2972847   -0.0009736    5.9014604  
O   -2.0050672   -0.0014265    6.9001319  
C    0.2542623   -0.0004184    6.0817573  
O    0.7184670   -0.0002256    7.2139121  
C    1.0974552   -0.0000873    4.8889129  
H    2.0940752    0.0005483    2.0517982  
H   -2.9081052   -0.0011668    4.4207061  
H    2.1707277    0.0000911    5.0223670  
H   -2.1128194   -0.0014912    1.7406791  
