58

C    7.6067842   -1.1176319   -4.6050455  
C    8.8807642   -0.7843842   -4.9367019  
C    8.8903861    0.6359455   -5.1963296  
C    7.5076727    1.1062300   -4.9872165  
N    6.7792935   -0.0052810   -4.6309911  
C    7.1027695    2.3931709   -5.1339839  
C    8.0949892    3.3810013   -5.5241465  
O    7.8294365    4.5654154   -5.6820927  
C    9.5653307    2.9052319   -5.7511796  
O   10.4093649    3.7278028   -6.0801812  
C    9.8805624    1.4914726   -5.5620615  
H    9.7181596   -1.4568340   -4.9932165  
H    6.0835465    2.7172302   -4.9756180  
H   10.9009777    1.1702152   -5.7210268  
H    7.2027670   -2.0822821   -4.3440683  
C    4.3939404   -2.1065671   -1.5664977  
C    5.4031210   -1.6413498   -2.3470119  
C    4.8103418   -0.7457939   -3.3121170  
C    3.3627144   -0.7272474   -3.0278282  
N    3.1757280   -1.5729268   -1.9588325  
C    2.4521483    0.0014840   -3.7217481  
C    2.9297304    0.8221548   -4.8221798  
O    2.1884029    1.5142697   -5.5075343  
C    4.4587975    0.8175813   -5.1411452  
O    4.8725556    1.5043408   -6.0654968  
C    5.3421068   -0.0087723   -4.3221481  
H    6.4439787   -1.8965723   -2.2570666  
H    4.4376455   -2.7945224   -0.7378255  
H    2.2909014   -1.7703225   -1.5285253  
C    0.0000000    0.0000000    0.0000000  
C    1.0662923   -0.0000101   -0.8334270  
C    0.4961873    0.0000065   -2.1718887  
C   -0.9663854   -0.0000848   -1.9540250  
N   -1.2632773   -0.0000083   -0.6828660  
C   -1.8985359   -0.0000514   -3.0477261  
C   -1.3925770    0.0004566   -4.3020547  
O   -2.1456378    0.0005414   -5.4151314  
C    0.0786240    0.0009326   -4.5545000  
O    0.4683767    0.0012591   -5.7221100  
C    1.0143171    0.0008444   -3.4159031  
H    2.1107200    0.0000633   -0.5721865  
H   -2.9622181   -0.0003268   -2.8593381  
H   -1.5042265    0.0009697   -6.1484419  
C    1.0965515   -0.0001358    2.2710304  
C    0.0000000    0.0000000    1.4700000  
C   -1.1546562   -0.0001469    2.3369512  
C   -0.6372014   -0.0003519    3.7186280  
N    0.7342871   -0.0007337    3.6095011  
C   -1.4147739   -0.0001353    4.8308716  
C   -2.8576048    0.0001048    4.6554461  
O   -3.6427778    0.0002493    5.5944904  
C   -3.4275839    0.0000726    3.2011665  
O   -4.6406829   -0.0000333    3.0410059  
C   -2.4891866    0.0001091    2.0816745  
H   -1.0150448   -0.0001615    5.8354244  
H   -2.8919121    0.0002919    1.0779135  
H    2.1388271   -0.0000662    1.9961646  
H    1.3735872    0.0006099    4.3830260  
