58

C    6.7793180   -0.0000198   -4.0582543  
C    7.7853558    0.0004715   -3.1461347  
C    7.1695417    0.0010654   -1.8401455  
C    5.7118172    0.0008492   -2.0678074  
N    5.5416285    0.0005853   -3.4330638  
C    4.7795897    0.0008677   -1.0815734  
C    5.2428770    0.0013430    0.2960697  
O    4.4818132    0.0014589    1.2547581  
C    6.7823187    0.0018306    0.5605056  
O    7.1842447    0.0025397    1.7162368  
C    7.6891548    0.0014827   -0.5847015  
H    8.8386419    0.0006056   -3.3633973  
H    8.7535776    0.0016187   -0.3930577  
H    6.8379582   -0.0005561   -5.1345679  
H    4.6549018   -0.0011620   -3.9029158  
C    3.3321166    0.0004717   -1.3379342  
C    2.6974176    0.0000121   -2.5332317  
C    1.2800432   -0.0002115   -2.2052842  
C    1.2395033    0.0000645   -0.7271297  
N    2.4394059    0.0005461   -0.2131042  
C    0.0000000    0.0000000    0.0000000  
C   -1.1468704    0.0000636   -0.7169540  
O   -2.3742206    0.0000073   -0.1695488  
C   -1.1388774    0.0001610   -2.2096351  
O   -2.2206238    0.0000908   -2.7970408  
C    0.1454514    0.0001820   -2.9324241  
H    3.1367977   -0.0000646   -3.5160953  
H   -2.9844351    0.0001027   -0.9290163  
C    0.8834460   -0.6856105   -5.2614100  
C    0.0950440    0.0004357   -4.4015596  
C   -0.8231769    0.7463701   -5.2482896  
C   -0.4365571    0.3825632   -6.6284178  
N    0.5632287   -0.4566160   -6.6424232  
C   -1.1157953    0.9193870   -7.7753883  
C   -2.1351884    1.7802113   -7.5536826  
O   -2.8563103    2.3569979   -8.5300742  
C   -2.5493397    2.1666375   -6.1726268  
O   -3.4857805    2.9553987   -6.0455238  
C   -1.8368920    1.6024060   -5.0124608  
H   -0.8119995    0.6362863   -8.7726204  
H   -3.5050423    2.9140321   -8.0631564  
H   -2.1675091    1.9073665   -4.0286306  
H    1.6932798   -1.3582316   -5.0274786  
C    2.5128556    2.1077716    2.9199648  
C    1.9592212    1.6432552    4.0696553  
C    0.8915788    0.7479214    3.6910360  
C    0.8684491    0.7287414    2.2159470  
N    1.8754542    1.5738793    1.8102719  
C    0.0000000    0.0000000    1.4700000  
C   -0.9772830   -0.8200135    2.1664417  
O   -1.8021297   -1.5120829    1.5842315  
C   -0.9711318   -0.8147624    3.7284083  
O   -1.7894187   -1.5009653    4.3257297  
C    0.0140216    0.0115358    4.4216297  
H    2.2638494    1.8988021    5.0689105  
H    0.0117648    0.0094386    5.5031631  
H    3.3327358    2.7953732    2.7900019  
H    2.1123206    1.7707734    0.8551938  
