62

C   -3.3000858   -0.0420369   -1.4739007  
C   -2.5230754   -0.0320855   -2.6090763  
C   -1.1622279   -0.0144870   -2.1820107  
C   -1.1710945   -0.0147886   -0.7636148  
N   -2.4850515   -0.0297654   -0.3662375  
C    0.0000000    0.0000000    0.0000000  
C    1.2019447    0.0150663   -0.6806468  
O    2.3757414    0.0295330    0.0157761  
C    1.2313639    0.0159994   -2.0955502  
O    2.5052322    0.0323149   -2.6250163  
C    0.0764385    0.0016885   -2.8495194  
H   -2.8917711   -0.0358114   -3.6205317  
H   -2.8032936   -0.0440792    0.5858646  
H    3.0833215    0.0387477   -0.6418798  
H    2.4358009    0.0317906   -3.5845906  
H    0.1303849    0.0029820   -3.9319085  
C   -6.6258339   -0.0865808   -4.4617214  
C   -5.3876554   -0.0710046   -3.8624401  
C   -5.6072001   -0.0720491   -2.4530434  
C   -7.0109863   -0.0889966   -2.2504990  
N   -7.5996604   -0.0955262   -3.4906752  
C   -7.5915647   -0.0949249   -0.9786176  
C   -6.7395037   -0.0838442    0.1086024  
O   -7.2532385   -0.0893285    1.3731419  
C   -5.3361135   -0.0665118   -0.0730925  
O   -4.6228244   -0.0566848    1.1077829  
C   -4.7626664   -0.0603814   -1.3275431  
H   -4.4424937   -0.0591112   -4.3777273  
H   -8.6607173   -0.1076821   -0.8175253  
H   -6.4975622   -0.0794284    1.9749050  
H   -3.6843739   -0.0451938    0.8961654  
H   -6.8913822   -0.0905719   -5.5049985  
C  -10.2666105   -2.1758921   -6.3930703  
C   -9.1554435   -1.7674161   -5.7372992  
C   -9.6391012   -0.8569936   -4.7107975  
C  -11.1059360   -0.8317321   -4.8961126  
N  -11.4796539   -1.6029932   -5.8807345  
C  -11.9645105   -0.0358304   -4.0627601  
C  -11.3841393    0.7010279   -3.0883150  
O  -12.0635578    1.4891859   -2.2378811  
C   -9.9066258    0.6963907   -2.8759611  
O   -9.4470794    1.3914729   -1.9699267  
C   -9.0473048   -0.1282708   -3.7439621  
H   -8.1337765   -2.0491942   -5.9266994  
H  -13.0331269   -0.0362439   -4.2207792  
H  -11.3808330    1.8813432   -1.6640752  
H  -10.3333688   -2.8582342   -7.2254918  
C    0.0000000    0.0000000    1.4700000  
C    1.0541688    0.0001722    2.3260392  
C    0.5103138    0.0000454    3.6635956  
C   -0.9576371   -0.0002459    3.5155732  
N   -1.2018458    0.0001392    2.1615969  
C   -1.8348311   -0.0008317    4.5510609  
C   -1.2972847   -0.0009736    5.9014604  
O   -2.0050672   -0.0014265    6.9001319  
C    0.2542623   -0.0004184    6.0817573  
O    0.7184670   -0.0002256    7.2139121  
C    1.0974552   -0.0000873    4.8889129  
H    2.0940752    0.0005483    2.0517982  
H   -2.9081052   -0.0011668    4.4207061  
H    2.1707277    0.0000911    5.0223670  
H   -2.1128194   -0.0014912    1.7406791  
