62

C    2.3136488   -2.1180447   -5.9171365  
C    1.6624055   -1.6181595   -7.0209773  
C    0.6419641   -0.7441446   -6.5420234  
C    0.7194930   -0.7504914   -5.1257340  
N    1.7437761   -1.5963713   -4.7793973  
C   -0.1387077    0.0017018   -4.3179681  
C   -1.0923523    0.7746130   -4.9514887  
O   -1.9557348    1.5288504   -4.2107385  
C   -1.1856782    0.7938843   -6.3634860  
O   -2.1870605    1.6126760   -6.8432319  
C   -0.3395497    0.0518699   -7.1609865  
H    1.8935980   -1.8552469   -8.0453471  
H    2.0414325   -1.7936223   -3.8410618  
H   -2.5301599    1.9837418   -4.8403217  
H   -2.1819306    1.5683233   -7.8042787  
H    3.1386336   -2.8065411   -5.8513301  
C    3.3041273    0.0001175   -1.5420425  
C    2.5845373   -0.0004782   -0.3695848  
C    1.2040007   -0.0000008   -0.7283589  
C    1.1422376    0.0006037   -2.1454369  
N    2.4348640    0.0026110   -2.6077459  
C   -0.0655178    0.0008798   -2.8497917  
C   -1.2321766    0.0002325   -2.1101405  
O   -2.4392814    0.0001148   -2.7472519  
C   -1.1911209   -0.0000007   -0.6955264  
O   -2.4371529   -0.0002318   -0.1032864  
C    0.0000000    0.0000000    0.0000000  
H    3.0031534   -0.0000664    0.6222594  
H    2.7054633   -0.0071099   -3.5745258  
H   -3.1132988   -0.0000647   -2.0551789  
H   -2.3200283   -0.0004072    0.8516413  
H    4.3686626    0.0004069   -1.7024286  
C   -0.0452744   -3.0581042  -10.2815459  
C   -0.0667021   -2.3870746   -9.1011505  
C   -0.3381803   -1.0026921   -9.4087522  
C   -0.4741608   -0.9216210  -10.8756299  
N   -0.2852864   -2.2010860  -11.3448687  
C   -0.7342780    0.2199819  -11.5617676  
C   -0.8905338    1.4510292  -10.8050373  
O   -1.1263026    2.5308670  -11.3310261  
C   -0.7503530    1.3885779   -9.2506067  
O   -0.8795820    2.4186486   -8.6029072  
C   -0.4691885    0.0990874   -8.6244972  
H    0.0899866   -2.8132189   -8.1262330  
H   -0.8303045    0.2577093  -12.6379957  
H    0.1258730   -4.1065611  -10.4641296  
H   -0.3188480   -2.4710958  -12.3107965  
C    2.5528530    2.1414826    2.8079335  
C    2.0663498    1.7338582    4.0032312  
C    0.9804344    0.8229586    3.6752840  
C    0.9495562    0.7966882    2.1971295  
N    1.8690446    1.5676019    1.6831036  
C    0.0000000    0.0000000    1.4700000  
C   -0.8785127   -0.7372425    2.1869543  
O   -1.8187535   -1.5261249    1.6395491  
C   -0.8723269   -0.7321790    3.6796354  
O   -1.7010379   -1.4274584    4.2670412  
C    0.1115397    0.0933559    4.4024240  
H    2.4028853    2.0163452    4.9860947  
H   -2.2861435   -1.9184361    2.3990168  
H    0.0832434    0.0693689    5.4835595  
H    3.3664920    2.8238276    2.6198634  
