58

C   -3.2797363   -0.0217545   -1.4499652  
C   -2.5570576   -0.0170609   -2.5996558  
C   -1.1637184   -0.0076659   -2.2210362  
C   -1.1336727   -0.0072972   -0.7459471  
N   -2.4483014   -0.0156595   -0.3402723  
C    0.0000000    0.0000000    0.0000000  
C    1.2757106    0.0082526   -0.6964414  
O    2.3524096    0.0152475   -0.1142312  
C    1.2676218    0.0082691   -2.2584083  
O    2.3355254    0.0154846   -2.8557293  
C   -0.0181541   -0.0002931   -2.9516296  
H   -2.9546693   -0.0196783   -3.5989110  
H   -0.0150758   -0.0004292   -4.0331632  
H   -2.7562970   -0.0190727    0.6148059  
C   -5.6705277   -0.0363191   -2.2998286  
C   -6.9365427   -0.0428629   -1.8086684  
C   -6.8294820   -0.0419612   -0.3687473  
C   -5.3869750   -0.0342716   -0.0590629  
N   -4.7389798   -0.0315488   -1.2727285  
C   -4.8699578   -0.0308518    1.1956825  
C   -5.7960294   -0.0352494    2.3159092  
O   -5.4289435   -0.0327402    3.4836178  
C   -7.3280006   -0.0436579    2.0112828  
O   -8.1172836   -0.0477227    2.9463102  
C   -7.7643624   -0.0464342    0.6172123  
H   -7.8420666   -0.0479448   -2.3888536  
H   -3.8084951   -0.0250762    1.4010427  
H   -5.3396856   -0.0347971   -3.3257091  
C  -10.1514117   -2.1678412   -2.3969160  
C  -11.3868105   -1.7096433   -2.0684050  
C  -11.2193683   -0.8129980   -0.9491077  
C   -9.7747913   -0.7861627   -0.6503306  
N   -9.1834169   -1.6285715   -1.5633001  
C   -9.2083689   -0.0540773    0.3421014  
C  -10.0796749    0.7617137    1.1714664  
O   -9.6657430    1.4563026    2.0904369  
C  -11.6128438    0.7483451    0.8731033  
O  -12.3563276    1.4309388    1.5648826  
C  -12.1051231   -0.0809511   -0.2240665  
H  -12.3100503   -1.9701981   -2.5545645  
H  -13.1679657   -0.0844786   -0.4242596  
H   -9.8667169   -2.8542624   -3.1777262  
H   -8.1998696   -1.8203541   -1.6171635  
C    2.5128556    2.1077716    2.9199648  
C    1.9592212    1.6432552    4.0696553  
C    0.8915788    0.7479214    3.6910360  
C    0.8684491    0.7287414    2.2159470  
N    1.8754542    1.5738793    1.8102719  
C    0.0000000    0.0000000    1.4700000  
C   -0.9772830   -0.8200135    2.1664417  
O   -1.8021297   -1.5120829    1.5842315  
C   -0.9711318   -0.8147624    3.7284083  
O   -1.7894187   -1.5009653    4.3257297  
C    0.0140216    0.0115358    4.4216297  
H    2.2638494    1.8988021    5.0689105  
H    0.0117648    0.0094386    5.5031631  
H    3.3327358    2.7953732    2.7900019  
H    2.1123206    1.7707734    0.8551938  
