58

C    8.6213016   -0.0025477   -0.2574580  
C    7.9052071   -0.0012225    0.8963544  
C    8.8567282   -0.0016413    1.9823760  
C   10.1954685   -0.0033019    1.3622441  
N    9.9832698   -0.0041813    0.0028840  
C   11.3631602   -0.0037391    2.0537646  
C   11.2969932   -0.0027171    3.5057143  
O   12.2925521   -0.0030688    4.2178687  
C    9.8898159   -0.0012062    4.1836932  
O    9.8215534   -0.0006433    5.4054130  
C    8.7027739   -0.0005791    3.3323514  
H    6.8328079   -0.0002643    0.9774213  
H   12.3347238   -0.0048340    1.5794511  
H    7.7322268    0.0006728    3.8095934  
H   10.7064050   -0.0038042   -0.6929051  
C    4.5679461   -0.0016854   -2.0086701  
C    5.6245801   -0.0018694   -1.1556757  
C    6.8197132   -0.0025282   -1.9659181  
C    6.3695112   -0.0026850   -3.3709478  
N    4.9943549   -0.0025530   -3.3281074  
C    7.1998322   -0.0028671   -4.4443873  
C    8.6325205   -0.0031379   -4.1995651  
O    9.4620790   -0.0033773   -5.0996404  
C    9.1316833   -0.0032302   -2.7194835  
O   10.3356446   -0.0037642   -2.5009907  
C    8.1403754   -0.0027352   -1.6465621  
H    5.5727011   -0.0017595   -0.0814681  
H    6.8490268   -0.0028498   -5.4670534  
H    4.3931139   -0.0010543   -4.1315712  
C    3.1301149   -0.0010311   -1.7028252  
C    2.5367768   -0.0002767   -0.4864665  
C    1.1089904    0.0001028   -0.7656183  
C    1.0177872   -0.0004148   -2.2415132  
N    2.1993578   -0.0011611   -2.7963820  
C   -0.2459209   -0.0002877   -2.9257118  
C   -1.3675319   -0.0000605   -2.1698524  
O   -2.6129313    0.0000867   -2.6748490  
C   -1.3083584    0.0000910   -0.6783232  
O   -2.3693261    0.0004206   -0.0541692  
C    0.0000000    0.0000000    0.0000000  
H    3.0096017   -0.0001007    0.4807525  
H   -0.2829630   -0.0004687   -4.0053125  
H   -3.1967441    0.0002094   -1.8949034  
C    2.5128556    2.1077716    2.9199648  
C    1.9592212    1.6432552    4.0696553  
C    0.8915788    0.7479214    3.6910360  
C    0.8684491    0.7287414    2.2159470  
N    1.8754542    1.5738793    1.8102719  
C    0.0000000    0.0000000    1.4700000  
C   -0.9772830   -0.8200135    2.1664417  
O   -1.8021297   -1.5120829    1.5842315  
C   -0.9711318   -0.8147624    3.7284083  
O   -1.7894187   -1.5009653    4.3257297  
C    0.0140216    0.0115358    4.4216297  
H    2.2638494    1.8988021    5.0689105  
H    0.0117648    0.0094386    5.5031631  
H    3.3327358    2.7953732    2.7900019  
H    2.1123206    1.7707734    0.8551938  
