64

C   -3.3003052   -0.0181119   -1.4738981  
C   -2.5232446   -0.0137938   -2.6090742  
C   -1.1623048   -0.0060610   -2.1820099  
C   -1.1711718   -0.0062984   -0.7636137  
N   -2.4852033   -0.0117494   -0.3662354  
C    0.0000000    0.0000000    0.0000000  
C    1.2020214    0.0063524   -0.6806483  
O    2.3758923    0.0123094    0.0157739  
C    1.2314447    0.0070724   -2.0955512  
O    2.5053979    0.0141525   -2.6250185  
C    0.0764461    0.0011344   -2.8495195  
H   -2.8919579   -0.0148467   -3.6205295  
H   -2.8035398   -0.0237557    0.5858669  
H    3.0835204    0.0163944   -0.6418824  
H    2.4359635    0.0141316   -3.5845927  
H    0.1303997    0.0020368   -3.9319086  
C   -5.6629584   -0.0137331   -2.3673672  
C   -6.9418435   -0.0093497   -1.8605132  
C   -6.8262921   -0.0174841   -0.4388305  
C   -5.4410659   -0.0264479   -0.1338823  
N   -4.7629806   -0.0258531   -1.3275394  
C   -4.9553363   -0.0356572    1.1771366  
C   -5.8849175   -0.0355135    2.1989277  
O   -5.4653102   -0.0439417    3.4977239  
C   -7.2712853   -0.0270192    1.9148001  
O   -8.0693385   -0.0284574    3.0401683  
C   -7.7511865   -0.0182049    0.6216858  
H   -3.9008221   -0.0426599    1.4162029  
H   -6.2631504   -0.0425382    4.0424377  
H   -8.9897941   -0.0223428    2.7602972  
H   -8.8187010   -0.0120036    0.4349971  
H   -5.3215670   -0.0106188   -3.3883476  
C   -8.1774138    0.0001577   -2.6568652  
C   -8.3523042    0.0062178   -4.0213593  
C   -9.7584251    0.0138869   -4.2608691  
C  -10.3964271    0.0123913   -2.9940314  
N   -9.4075173    0.0020412   -2.0418937  
C  -11.7868494    0.0188920   -2.8474951  
C  -12.5470587    0.0273581   -4.0008323  
O  -13.9092839    0.0343090   -3.9153444  
C  -11.9289520    0.0286073   -5.2739230  
O  -12.8220499    0.0370121   -6.3254220  
C  -10.5573233    0.0219239   -5.4192382  
H   -7.5634585    0.0041272   -4.7539652  
H   -9.5575619    0.0092356   -1.0492123  
H  -12.2792417    0.0176498   -1.8848161  
H  -14.2398084    0.0392429   -4.8230859  
H  -12.3232714    0.0373246   -7.1481149  
H  -10.1124746    0.0228951   -6.4074626  
C    0.8681109    0.7263879    2.2709268  
C    0.6127770    0.5096195    3.5869401  
C   -0.4920590   -0.4175482    3.6542670  
C   -0.8620974   -0.7254003    2.2596025  
N    0.0000000    0.0000000    1.4700000  
C   -1.8641242   -1.5660088    1.8976294  
C   -2.6293522   -2.2103885    2.9520183  
O   -3.5512764   -2.9839180    2.7283916  
C   -2.2549728   -1.8987399    4.4361073  
O   -2.8923672   -2.4351063    5.3323774  
C   -1.1543735   -0.9755647    4.7012123  
H    1.1382914    0.9492124    4.4159191  
H   -2.1192137   -1.7782617    0.8686553  
H   -0.9013378   -0.7652422    5.7314848  
H    1.6172880    1.3558399    1.8188057  
