64

C    5.6708528    0.0006686   -2.3611558  
C    4.7630507    0.0004755   -1.3275395  
C    5.5133490   -0.0015013   -0.1144244  
C    6.8855146   -0.0021655   -0.4737127  
N    6.9456606   -0.0027644   -1.8452081  
C    7.9149934   -0.0037515    0.4723107  
C    7.5526784   -0.0043769    1.8053169  
O    8.5177184   -0.0055687    2.7705673  
C    6.1889805   -0.0041066    2.1836619  
O    5.9909388   -0.0052337    3.5489900  
C    5.1728469   -0.0028155    1.2509254  
H    8.9627181   -0.0044090    0.2049625  
H    8.0554425   -0.0061260    3.6188400  
H    5.0439893   -0.0049363    3.7189637  
H    4.1374045   -0.0028212    1.5708263  
H    5.5098589    0.0015378   -3.4255988  
C    8.0814141    2.1359520   -5.6036146  
C    7.4001662    1.6654558   -4.5049777  
C    8.2847289    0.7875889   -3.8110758  
C    9.5016401    0.7618483   -4.5393552  
N    9.3434749    1.5898918   -5.6228423  
C   10.6037369   -0.0021428   -4.1437673  
C   10.4751278   -0.7536064   -2.9918386  
O   11.5205660   -1.5175503   -2.5600277  
C    9.2689095   -0.7413430   -2.2517683  
O    9.2975843   -1.5423127   -1.1288394  
C    8.1811659    0.0119068   -2.6415821  
H    6.3895655    1.9224069   -4.2372931  
H   10.0450224    1.7797242   -6.3155007  
H   11.5339551   -0.0261893   -4.6945113  
H   11.2236803   -1.9544880   -1.7511958  
H    8.4455705   -1.4769578   -0.6867943  
H    7.7664234    2.8167334   -6.3758039  
C    3.3003548    0.0005276   -1.4738982  
C    2.5232817    0.0003497   -2.6090743  
C    1.1623204   -0.0001319   -2.1820101  
C    1.1711886    0.0000583   -0.7636140  
N    2.4852302   -0.0014919   -0.3662356  
C    0.0000000    0.0000000    0.0000000  
C   -1.2020379    0.0000520   -0.6806479  
O   -2.3759249    0.0003495    0.0157742  
C   -1.2314652   -0.0005112   -2.0955511  
O   -2.5054384   -0.0008036   -2.6250184  
C   -0.0764510   -0.0007271   -2.8495195  
H    2.8919962   -0.0005619   -3.6205297  
H    2.8036267    0.0088181    0.5858667  
H   -3.0835636    0.0000348   -0.6418823  
H   -2.4360038   -0.0011526   -3.5845925  
H   -0.1304090   -0.0013420   -3.9319089  
C    0.0000000    0.0000000    1.4700000  
C    1.0541688    0.0001722    2.3260392  
C    0.5103138    0.0000454    3.6635956  
C   -0.9576371   -0.0002459    3.5155732  
N   -1.2018458    0.0001392    2.1615969  
C   -1.8348311   -0.0008317    4.5510609  
C   -1.2972847   -0.0009736    5.9014604  
O   -2.0050672   -0.0014265    6.9001319  
C    0.2542623   -0.0004184    6.0817573  
O    0.7184670   -0.0002256    7.2139121  
C    1.0974552   -0.0000873    4.8889129  
H    2.0940752    0.0005483    2.0517982  
H   -2.9081052   -0.0011668    4.4207061  
H    2.1707277    0.0000911    5.0223670  
H   -2.1128194   -0.0014912    1.7406791  
