64

C    6.6264029    0.0033838   -4.4617165  
C    5.3881259    0.0033501   -3.8624359  
C    5.6076651    0.0015731   -2.4530392  
C    7.0115531    0.0008610   -2.2504938  
N    7.6002641    0.0000424   -3.4906694  
C    7.5921594   -0.0005660   -0.9786119  
C    6.7400256   -0.0009802    0.1086075  
O    7.2537882   -0.0020102    1.3731470  
C    5.3365289   -0.0006588   -0.0730883  
O    4.6231718   -0.0015682    1.1077860  
C    4.7630507    0.0004755   -1.3275395  
H    4.4428892    0.0033634   -4.3777240  
H    8.6613878   -0.0012590   -0.8175189  
H    6.4980460   -0.0024348    1.9749099  
H    3.6846505   -0.0012502    0.8961676  
H    6.8919812    0.0040812   -5.5049934  
C    9.6702463    0.7260543   -4.7430743  
C   11.0246032    0.4902450   -4.6923131  
C   11.2499171   -0.4117933   -3.6105732  
C    9.9852331   -0.6939056   -3.0335859  
N    9.0482059    0.0145947   -3.7439546  
C    9.8270217   -1.5506649   -1.9400954  
C   10.9662189   -2.1334843   -1.4197802  
O   10.8688888   -2.9785275   -0.3523336  
C   12.2369762   -1.8641159   -1.9814149  
O   13.2738080   -2.5204146   -1.3508623  
C   12.3938341   -1.0187944   -3.0600037  
H   11.7598554    0.9168596   -5.3529173  
H    8.8659267   -1.7696705   -1.4956458  
H   11.7679672   -3.2693209   -0.1514285  
H   14.0958912   -2.2841656   -1.7912804  
H   13.3799492   -0.8314400   -3.4686034  
H    9.0989090    1.3465728   -5.4120212  
C    3.3003548    0.0005276   -1.4738982  
C    2.5232817    0.0003497   -2.6090743  
C    1.1623204   -0.0001319   -2.1820101  
C    1.1711886    0.0000583   -0.7636140  
N    2.4852302   -0.0014919   -0.3662356  
C    0.0000000    0.0000000    0.0000000  
C   -1.2020379    0.0000520   -0.6806479  
O   -2.3759249    0.0003495    0.0157742  
C   -1.2314652   -0.0005112   -2.0955511  
O   -2.5054384   -0.0008036   -2.6250184  
C   -0.0764510   -0.0007271   -2.8495195  
H    2.8919962   -0.0005619   -3.6205297  
H    2.8036267    0.0088181    0.5858667  
H   -3.0835636    0.0000348   -0.6418823  
H   -2.4360038   -0.0011526   -3.5845925  
H   -0.1304090   -0.0013420   -3.9319089  
C    0.0000000    0.0000000    1.4700000  
C    1.0541688    0.0001722    2.3260392  
C    0.5103138    0.0000454    3.6635956  
C   -0.9576371   -0.0002459    3.5155732  
N   -1.2018458    0.0001392    2.1615969  
C   -1.8348311   -0.0008317    4.5510609  
C   -1.2972847   -0.0009736    5.9014604  
O   -2.0050672   -0.0014265    6.9001319  
C    0.2542623   -0.0004184    6.0817573  
O    0.7184670   -0.0002256    7.2139121  
C    1.0974552   -0.0000873    4.8889129  
H    2.0940752    0.0005483    2.0517982  
H   -2.9081052   -0.0011668    4.4207061  
H    2.1707277    0.0000911    5.0223670  
H   -2.1128194   -0.0014912    1.7406791  
