64

C    2.3128795   -2.1207449   -5.9853290  
C    1.8202489   -1.6594120   -4.7865988  
C    0.7463179   -0.7716431   -5.0917846  
C    0.6288901   -0.7306952   -6.5047462  
N    1.5962666   -1.5596058   -7.0163180  
C   -0.3301660    0.0460753   -7.1617300  
C   -1.1864717    0.7949196   -6.3780524  
O   -2.1419344    1.5709322   -6.9678911  
C   -1.0847731    0.7675649   -4.9667673  
O   -2.0088867    1.5678195   -4.3272755  
C   -0.1387079    0.0017019   -4.3179684  
H    2.1902179   -1.9286752   -3.8121179  
H    1.7489518   -1.7404134   -7.9920111  
H   -0.4247433    0.0817407   -8.2382921  
H   -2.6233442    2.0035656   -6.2507168  
H   -1.8718320    1.4918816   -3.3780374  
C    4.1967530   -3.6708474   -5.3110236  
C    3.4145068   -3.0544730   -6.2600447  
C    3.8809716   -3.4948008   -7.5340627  
C    4.9583911   -4.3864724   -7.2973875  
N    5.1249621   -4.4693645   -5.9372408  
C    5.6607535   -5.0149527   -8.3300970  
C    5.2681216   -4.7384910   -9.6253137  
O    5.9194472   -5.3252984  -10.6714706  
C    4.1957336   -3.8513287   -9.8817209  
O    3.9257472   -3.6788334  -11.2236207  
C    3.5025615   -3.2307513   -8.8634264  
H    5.8091826   -5.0362379   -5.4698245  
H    6.4829064   -5.6954502   -8.1563444  
H    5.4931503   -5.0005676  -11.4752646  
H    3.1891522   -3.0659007  -11.3093256  
H    2.6855798   -2.5559112   -9.0906050  
H    4.1669476   -3.6029491   -4.2370306  
C    3.3041273    0.0001178   -1.5420428  
C    2.5845373   -0.0004780   -0.3695851  
C    1.2040007   -0.0000007   -0.7283589  
C    1.1422374    0.0006038   -2.1454372  
N    2.4348641    0.0026111   -2.6077464  
C   -0.0655179    0.0008799   -2.8497918  
C   -1.2321766    0.0002325   -2.1101402  
O   -2.4392814    0.0001148   -2.7472522  
C   -1.1911209   -0.0000007   -0.6955266  
O   -2.4371528   -0.0002320   -0.1032862  
C    0.0000000    0.0000000    0.0000000  
H    3.0031533   -0.0000660    0.6222584  
H    2.7054631   -0.0071097   -3.5745261  
H   -3.1132988   -0.0000648   -2.0551787  
H   -2.3200282   -0.0004072    0.8516409  
H    4.3686625    0.0004073   -1.7024290  
C    0.8681109    0.7263879    2.2709268  
C    0.6127770    0.5096195    3.5869401  
C   -0.4920590   -0.4175482    3.6542670  
C   -0.8620974   -0.7254003    2.2596025  
N    0.0000000    0.0000000    1.4700000  
C   -1.8641242   -1.5660088    1.8976294  
C   -2.6293522   -2.2103885    2.9520183  
O   -3.5512764   -2.9839180    2.7283916  
C   -2.2549728   -1.8987399    4.4361073  
O   -2.8923672   -2.4351063    5.3323774  
C   -1.1543735   -0.9755647    4.7012123  
H    1.1382914    0.9492124    4.4159191  
H   -2.1192137   -1.7782617    0.8686553  
H   -0.9013378   -0.7652422    5.7314848  
H    1.6172880    1.3558399    1.8188057  
