58

C   -8.4781578    0.5524821   -2.3448827  
C   -9.7433617    0.4855859   -1.8561507  
C  -10.1702907   -0.8882083   -1.9796700  
C   -9.0420010   -1.6214520   -2.5847372  
N   -8.0477623   -0.6911190   -2.7818675  
C   -9.0496703   -2.9493328   -2.8646979  
C  -10.2493195   -3.7068629   -2.5492229  
O  -10.3545296   -4.9074406   -2.7633408  
C  -11.4564224   -2.9506892   -1.9082009  
O  -12.4718762   -3.5778901   -1.6385132  
C  -11.3291210   -1.5180002   -1.6531536  
H  -10.3126611    1.3051266   -1.4550700  
H   -8.2112611   -3.4679421   -3.3085734  
H  -12.1693523   -1.0018756   -1.2089121  
H   -7.8240481    1.4056882   -2.4227858  
C   -3.9834216    0.7255579   -1.7966821  
C   -5.3237513    0.5085129   -1.8186554  
C   -5.5825293   -0.4184175   -2.8950704  
C   -4.2737054   -0.7258293   -3.5027446  
N   -3.3460097   -0.0004262   -2.7913647  
C   -4.0918508   -1.5661147   -4.5527701  
C   -5.2633982   -2.2105869   -5.1225661  
O   -5.2038152   -2.9838475   -6.0695714  
C   -6.6595201   -1.8994027   -4.4950209  
O   -7.6531012   -2.4358506   -4.9664880  
C   -6.7288180   -0.9765482   -3.3648040  
H   -6.0484721    0.9477736   -1.1565048  
H   -3.1230866   -1.7780469   -4.9834567  
H   -3.4077085    1.3549527   -1.1376627  
C    0.0000000    0.0000000    0.0000000  
C    1.0662919   -0.0000103   -0.8334272  
C    0.4961868    0.0000066   -2.1718889  
C   -0.9663860   -0.0000849   -1.9540248  
N   -1.2632775   -0.0000084   -0.6828659  
C   -1.8985364   -0.0000515   -3.0477258  
C   -1.3925778    0.0004567   -4.3020543  
O   -2.1456385    0.0005412   -5.4151314  
C    0.0786229    0.0009326   -4.5544999  
O    0.4683756    0.0012594   -5.7221104  
C    1.0143162    0.0008443   -3.4159034  
H    2.1107195    0.0000631   -0.5721869  
H   -1.5042277    0.0009692   -6.1484420  
H    2.0724151    0.0013151   -3.6409746  
C    1.0965515   -0.0001358    2.2710304  
C    0.0000000    0.0000000    1.4700000  
C   -1.1546562   -0.0001469    2.3369512  
C   -0.6372014   -0.0003519    3.7186280  
N    0.7342871   -0.0007337    3.6095011  
C   -1.4147739   -0.0001353    4.8308716  
C   -2.8576048    0.0001048    4.6554461  
O   -3.6427778    0.0002493    5.5944904  
C   -3.4275839    0.0000726    3.2011665  
O   -4.6406829   -0.0000333    3.0410059  
C   -2.4891866    0.0001091    2.0816745  
H   -1.0150448   -0.0001615    5.8354244  
H   -2.8919121    0.0002919    1.0779135  
H    2.1388271   -0.0000662    1.9961646  
H    1.3735872    0.0006099    4.3830260  
