58

C   -0.0961655   -0.9077189   -9.6462161  
C   -0.1908068   -0.5489996  -10.9525225  
C   -0.4428273    0.8724354  -10.9815654  
C   -0.4875454    1.3156100   -9.5750137  
N   -0.2706014    0.1889450   -8.8157701  
C   -0.7039342    2.5953502   -9.1785996  
C   -0.9065173    3.6034869  -10.2058077  
O   -1.1087285    4.7833979   -9.9504198  
C   -0.8635287    3.1565623  -11.7018737  
O   -1.0330322    3.9963964  -12.5754902  
C   -0.6219000    1.7481430  -12.0048968  
H   -0.0951845   -1.2052801  -11.7991435  
H   -0.7327666    2.8994111   -8.1414756  
H   -0.5934376    1.4469086  -13.0432466  
H    0.0861225   -1.8810000   -9.2203238  
C    2.3617620   -2.0132534   -6.1309085  
C    1.9111467   -1.6311559   -4.9133181  
C    0.8167584   -0.7132544   -5.1894898  
C    0.7423551   -0.6552468   -6.6651875  
N    1.6455071   -1.4153047   -7.2225185  
C   -0.2276461    0.1569485   -7.3467464  
C   -1.0846242    0.8781011   -6.5885501  
O   -2.0400760    1.6785701   -7.0909459  
C   -1.0349500    0.8404012   -5.0971505  
O   -1.8457778    1.5226373   -4.4707857  
C   -0.0307352   -0.0004646   -4.4215603  
H    2.2762462   -1.9347703   -3.9470904  
H   -2.4850415    2.0539986   -6.3097853  
H    3.1689154   -2.6915916   -6.3574800  
C    3.2573670   -0.0002920   -1.5109380  
C    2.5379468   -0.0001709   -0.3591961  
C    1.1435043    0.0000332   -0.7338500  
C    1.1092609   -0.0000082   -2.2088477  
N    2.4227562    0.0001909   -2.6182613  
C   -0.0265532   -0.0002522   -2.9515663  
C   -1.3003035   -0.0002639   -2.2514981  
O   -2.3786784   -0.0004131   -2.8306429  
C   -1.2877725    0.0000312   -0.6895608  
O   -2.3539958    0.0003307   -0.0892036  
C    0.0000000    0.0000000    0.0000000  
H    2.9384091   -0.0000369    0.6389239  
H    4.3270394   -0.0004765   -1.6439446  
H    2.7280494   -0.0013406   -3.5742113  
C    2.5528530    2.1414826    2.8079335  
C    2.0663498    1.7338582    4.0032312  
C    0.9804344    0.8229586    3.6752840  
C    0.9495562    0.7966882    2.1971295  
N    1.8690446    1.5676019    1.6831036  
C    0.0000000    0.0000000    1.4700000  
C   -0.8785127   -0.7372425    2.1869543  
O   -1.8187535   -1.5261249    1.6395491  
C   -0.8723269   -0.7321790    3.6796354  
O   -1.7010379   -1.4274584    4.2670412  
C    0.1115397    0.0933559    4.4024240  
H    2.4028853    2.0163452    4.9860947  
H   -2.2861435   -1.9184361    2.3990168  
H    0.0832434    0.0693689    5.4835595  
H    3.3664920    2.8238276    2.6198634  
