62

C    1.1188646    0.0008225   -0.8003808  
C    0.0000000    0.0000000    0.0000000  
C   -1.1323861    0.0008895   -0.8673529  
C   -0.6382655    0.0019675   -2.1969285  
N    0.7324023    0.0038482   -2.1202242  
C   -1.4770909    0.0027312   -3.3154813  
C   -2.8395467    0.0020932   -3.0876860  
O   -3.7039190    0.0024408   -4.1440352  
C   -3.3517864    0.0013917   -1.7684337  
O   -4.7300486    0.0012348   -1.7073133  
C   -2.5248539    0.0009114   -0.6644824  
H   -1.1067558    0.0036982   -4.3313812  
H   -4.5940022    0.0021811   -3.7685142  
H   -4.9934597    0.0007245   -0.7819920  
H   -2.9462579    0.0005593    0.3339652  
H    2.1619896    0.0009362   -0.5342066  
C    4.5872072   -2.1312989   -2.8760566  
C    3.4257636   -1.6618660   -2.3075955  
C    2.8225615   -0.7845952   -3.2568813  
C    3.6683580   -0.7581058   -4.3952370  
N    4.7314862   -1.5851481   -4.1299511  
C    3.3837520    0.0055798   -5.5312703  
C    2.2240413    0.7559622   -5.5180173  
O    1.8977511    1.5195633   -6.6012815  
C    1.3675641    0.7429394   -4.3914766  
O    0.2523234    1.5428639   -4.5318411  
C    1.6478441   -0.0100095   -3.2702998  
H    3.0590296   -1.9191247   -1.3286586  
H    4.0243525    0.0301932   -6.4020327  
H    1.0629717    1.9557298   -6.3864165  
H   -0.2722942    1.4770478   -3.7280698  
H    5.3248336   -2.8113784   -2.4857249  
C    7.0827278   -5.1956461   -5.2703069  
C    6.1723721   -4.3952889   -4.6684257  
C    6.4053775   -3.0736466   -5.2300927  
C    7.5225380   -3.2640222   -6.1799827  
N    7.9237392   -4.5058947   -6.2079197  
C    8.0591990   -2.1766539   -6.9511588  
C    7.5047537   -0.9547249   -6.7814078  
O    7.9056314    0.1487871   -7.4353183  
C    6.3760154   -0.7306483   -5.8306706  
O    5.9203175    0.4081223   -5.7269329  
C    5.8431448   -1.8620902   -5.0510469  
H    5.4338759   -4.6681003   -3.9340733  
H    8.8760691   -2.3444307   -7.6378052  
H    7.3247475    0.8576346   -7.1047716  
H    7.2360932   -6.2532052   -5.1253209  
C    2.4951002    2.0940188    2.9809380  
C    1.9440701    1.6314916    1.8291961  
C    0.8759964    0.7350050    2.2038498  
C    0.8497377    0.7130254    3.6788474  
N    1.8560616    1.5571714    4.0882609  
C   -0.0205033   -0.0168748    4.4215661  
C   -0.9962600   -0.8356168    3.7214979  
O   -1.8224391   -1.5286685    4.3006425  
C   -0.9864710   -0.8277881    2.1595606  
O   -1.8030528   -1.5133726    1.5592035  
C    0.0000000    0.0000000    1.4700000  
H    2.2509283    1.8888011    0.8310761  
H   -0.0229599   -0.0187323    5.5027230  
H    3.3143982    2.7817323    3.1139444  
H    2.0889452    1.7545833    5.0442112  
