58

C    0.0000000    0.0000000    0.0000000  
C    0.5727669    0.8849918   -0.8560391  
C    0.2772395    0.4284380   -2.1935957  
C   -0.5203930   -0.8039017   -2.0455737  
N   -0.6527236   -1.0091502   -0.6915974  
C   -0.9973754   -1.5400796   -3.0810617  
C   -0.7055005   -1.0886761   -4.4314612  
O   -1.0903468   -1.6826870   -5.4301324  
C    0.1377635    0.2137087   -4.6117577  
O    0.3900806    0.6033528   -5.7439119  
C    0.5960624    0.9214769   -3.4189131  
H    1.1379581    1.7578974   -0.5817982  
H   -1.5806567   -2.4410228   -2.9507071  
H   -1.1489315   -1.7731220   -0.2706798  
C    2.4674133    2.5519381   -2.8909325  
C    1.3886650    2.1461318   -3.6003003  
C    1.1772122    3.1898997   -4.5914295  
C    2.2479963    4.1753928   -4.3291140  
N    3.0074916    3.8067855   -3.3334807  
C    2.3859407    5.3746518   -5.1087515  
C    1.4949210    5.5798793   -6.1053958  
O    1.5049997    6.6550635   -6.9115703  
C    0.4033402    4.6038181   -6.3950792  
O   -0.3720418    4.8552636   -7.3174557  
C    0.2828374    3.3811470   -5.5811506  
H    0.7538666    6.5182542   -7.5167437  
H   -0.5213820    2.6992586   -5.8229964  
H    2.9438712    2.0521598   -2.0625708  
C    3.4635016    6.3312248   -4.8176648  
C    4.4142636    6.2489540   -3.8580497  
C    5.2137009    7.4538890   -4.0178346  
C    4.5879344    8.1688049   -5.1509260  
N    3.5614663    7.5155710   -5.6238294  
C    5.0925601    9.4265506   -5.6289598  
C    6.1729687    9.9466492   -5.0032220  
O    6.7488425   11.1121226   -5.3439306  
C    6.8266039    9.2493686   -3.8566085  
O    7.8065196    9.7810201   -3.3347537  
C    6.2902301    7.9603068   -3.3848597  
H    4.5555790    5.4671988   -3.1314379  
H    4.6156365    9.9268996   -6.4590825  
H    7.4905438   11.2137977   -4.7204774  
H    6.7921465    7.4871926   -2.5515092  
C    1.1319247   -0.0015655    2.2709268  
C    0.7969915   -0.0034943    3.5869401  
C   -0.6453339   -0.0035710    3.6542670  
C   -1.1266833   -0.0015433    2.2596025  
N    0.0000000    0.0000000    1.4700000  
C   -2.4346130   -0.0013964    1.8976294  
C   -3.4350110   -0.0031408    2.9520183  
O   -4.6384611   -0.0030974    2.7283916  
C   -2.9478959   -0.0050506    4.4361073  
O   -3.7809380   -0.0062218    5.3323774  
C   -1.5113823   -0.0053090    4.7012123  
H    1.4821238   -0.0045407    4.4159191  
H   -2.7664565   -0.0000232    0.8686553  
H   -1.1823530   -0.0068408    5.7314848  
H    2.1104316   -0.0009391    1.8188057  
