58

C    6.7235414    0.0018296    0.8630494  
C    5.4473220    0.0014739    0.3990019  
C    5.5236523   -0.0004062   -1.0428740  
C    6.9592468   -0.0011511   -1.3832528  
N    7.6329842    0.0006719   -0.1836843  
C    7.4493969   -0.0032876   -2.6487380  
C    6.4996342   -0.0047392   -3.7489583  
O    6.8417407   -0.0066291   -4.9242287  
C    4.9744850   -0.0037317   -3.4117289  
O    4.1654293   -0.0046312   -4.3297092  
C    4.5679461   -0.0016852   -2.0086700  
H    4.5543639    0.0026029    0.9983664  
H    8.5062538   -0.0039291   -2.8766893  
H    7.0761907    0.0030568    1.8816398  
H    8.6315343   -0.0008652   -0.0839632  
C    3.1301152   -0.0010311   -1.7028251  
C    2.5367770   -0.0002766   -0.4864665  
C    1.1089905    0.0001028   -0.7656183  
C    1.0177873   -0.0004148   -2.2415130  
N    2.1993580   -0.0011610   -2.7963820  
C   -0.2459208   -0.0002877   -2.9257119  
C   -1.3675318   -0.0000605   -2.1698523  
O   -2.6129310    0.0000866   -2.6748492  
C   -1.3083584    0.0000911   -0.6783232  
O   -2.3693259    0.0004206   -0.0541692  
C    0.0000000    0.0000000    0.0000000  
H    3.0096019   -0.0001007    0.4807529  
H   -3.1967440    0.0002093   -1.8949035  
C    2.1451943   -2.0951768   -5.9900942  
C    1.6340483   -1.6323749   -4.8202142  
C    0.5538838   -0.7357922   -5.1581773  
C    0.4770650   -0.7140557   -6.6314107  
N    1.4686372   -1.5584200   -7.0749457  
C   -0.4180283    0.0158496   -7.3439773  
C   -1.3690882    0.8348540   -6.6110029  
O   -2.2145416    1.5279316   -7.1615961  
C   -1.3057461    0.8272855   -5.0503185  
O   -2.1011630    1.5130919   -4.4224316  
C   -0.2963281   -0.0005339   -4.3948471  
H    1.9749157   -1.8895629   -3.8331593  
H   -0.4575568    0.0175264   -8.4244148  
H    2.9593513   -2.7830346   -6.1509982  
H    1.6685753   -1.7560267   -8.0382854  
C    2.4951002    2.0940188    2.9809380  
C    1.9440701    1.6314916    1.8291961  
C    0.8759964    0.7350050    2.2038498  
C    0.8497377    0.7130254    3.6788474  
N    1.8560616    1.5571714    4.0882609  
C   -0.0205033   -0.0168748    4.4215661  
C   -0.9962600   -0.8356168    3.7214979  
O   -1.8224391   -1.5286685    4.3006425  
C   -0.9864710   -0.8277881    2.1595606  
O   -1.8030528   -1.5133726    1.5592035  
C    0.0000000    0.0000000    1.4700000  
H    2.2509283    1.8888011    0.8310761  
H   -0.0229599   -0.0187323    5.5027230  
H    3.3143982    2.7817323    3.1139444  
H    2.0889452    1.7545833    5.0442112  
