60

C   -1.0639420    3.1241589   -1.4738985  
C   -0.8133848    2.3885884   -2.6090745  
C   -0.3743990    1.1003696   -2.1820103  
C   -0.3774365    1.1087036   -0.7636145  
N   -0.7993802    2.3531600   -0.3662358  
C    0.0000000    0.0000000    0.0000000  
C    0.3872721   -1.1379440   -0.6806483  
O    0.7652412   -2.2493168    0.0157741  
C    0.3972869   -1.1656204   -2.0955512  
O    0.8080646   -2.3715516   -2.6250183  
C    0.0253222   -0.0721398   -2.8495194  
H   -0.9117343    2.6512524    0.5858664  
H    0.9935546   -2.9191118   -0.6418821  
H    0.7860215   -2.3057081   -3.5845925  
H    0.0432905   -0.1230218   -3.9319087  
H   -1.4090689    4.1382384   -1.3667130  
C    0.0136432    6.2000864   -4.7661442  
C   -0.0762724    5.2782262   -3.7793977  
C   -0.6425735    4.0998195   -4.4174887  
C   -0.8379886    4.4975078   -5.8282474  
N   -0.4550441    5.7275800   -6.0386398  
C   -1.3869096    3.5962995   -6.8037454  
C   -1.7248734    2.3541349   -6.3888456  
O   -2.2473147    1.4110569   -7.1911550  
C   -1.5394186    1.9227843   -4.9719107  
O   -1.8691672    0.7772945   -4.6647631  
C   -0.9744325    2.8655993   -3.9901700  
H    0.2068231    5.3847023   -2.7461525  
H   -1.5189094    3.9136428   -7.8278444  
H   -2.3808890    0.6390740   -6.6120579  
C    1.0038063    8.2154776   -3.5842402  
C    0.5198734    7.5771624   -4.6750852  
C    0.6077999    8.5530330   -5.7504670  
C    1.1828887    9.7577378   -5.1144294  
N    1.4171939    9.5658320   -3.8446802  
C    1.4314807   10.9639294   -5.8549630  
C    1.1200888   10.9663792   -7.1711565  
O    1.2989981   12.0224465   -7.9827925  
C    0.5387728    9.7662866   -7.8419848  
O    0.2795591    9.8398222   -9.0430763  
C    0.2930863    8.5410377   -7.0607506  
H    1.8523990   11.8294892   -5.3645105  
H    0.9860843   11.7208517   -8.8547315  
H   -0.1290484    7.6933571   -7.5836939  
H    1.1070643    7.8318861   -2.5816593  
C    2.4951002    2.0940188    2.9809380  
C    1.9440701    1.6314916    1.8291961  
C    0.8759964    0.7350050    2.2038498  
C    0.8497377    0.7130254    3.6788474  
N    1.8560616    1.5571714    4.0882609  
C   -0.0205033   -0.0168748    4.4215661  
C   -0.9962600   -0.8356168    3.7214979  
O   -1.8224391   -1.5286685    4.3006425  
C   -0.9864710   -0.8277881    2.1595606  
O   -1.8030528   -1.5133726    1.5592035  
C    0.0000000    0.0000000    1.4700000  
H    2.2509283    1.8888011    0.8310761  
H   -0.0229599   -0.0187323    5.5027230  
H    3.3143982    2.7817323    3.1139444  
H    2.0889452    1.7545833    5.0442112  
