62

C    4.1072303   -0.7191023   -4.4475472  
C    3.0267433   -0.0008947   -3.9901699  
C    2.5087344    0.7258922   -5.1028455  
C    3.3206451    0.4084345   -6.2217506  
N    4.2827389   -0.4698428   -5.7885972  
C    3.1000325    0.9464857   -7.4932141  
C    2.0403143    1.8207030   -7.6378508  
O    1.7797466    2.3748859   -8.8576868  
C    1.2191161    2.1500706   -6.5333297  
O    0.2053884    3.0346610   -6.8386143  
C    1.4363344    1.6198580   -5.2786520  
H    3.7152882    0.7086621   -8.3500122  
H    1.0098898    2.9463183   -8.7391490  
H   -0.3015567    3.2041275   -6.0386819  
H    0.7906448    1.8909176   -4.4515547  
H    4.7674524   -1.3883357   -3.9229595  
C    3.3003543    0.0005277   -1.4738984  
C    2.5232813    0.0003500   -2.6090746  
C    1.1623201   -0.0001317   -2.1820101  
C    1.1711884    0.0000583   -0.7636139  
N    2.4852298   -0.0014919   -0.3662355  
C    0.0000000    0.0000000    0.0000000  
C   -1.2020383    0.0000520   -0.6806478  
O   -2.3759254    0.0003497    0.0157747  
C   -1.2314658   -0.0005111   -2.0955512  
O   -2.5054392   -0.0008038   -2.6250184  
C   -0.0764517   -0.0007270   -2.8495193  
H    2.8036267    0.0088183    0.5858660  
H   -3.0835638    0.0000347   -0.6418817  
H   -2.4360049   -0.0011522   -3.5845925  
H   -0.1304094   -0.0013419   -3.9319087  
H    4.3715550    0.0004896   -1.3667135  
C    5.3276212   -1.0690335   -6.6312670  
C    6.3048655   -1.9473513   -6.2883004  
C    7.0653788   -2.2194128   -7.4851458  
C    6.4466780   -1.4218580   -8.5612062  
N    5.3985778   -0.7476469   -7.9782695  
C    6.8761174   -1.4030865   -9.8484252  
C    8.0241706   -2.2232975  -10.1973681  
O    8.4866412   -2.2746758  -11.3295271  
C    8.6949036   -3.0761795   -9.0737510  
O    9.6619599   -3.7708649   -9.3556626  
C    8.1418718   -3.0135455   -7.7231641  
H    6.4735869   -2.3579473   -5.3087302  
H    6.4081071   -0.8108510  -10.6224620  
H    8.6121804   -3.6069241   -6.9508717  
H    4.7816154   -0.1174699   -8.4571036  
C    2.3971438    2.0127888    3.1728260  
C    1.9431056    1.6308205    1.9564670  
C    0.8496017    0.7127664    2.2356185  
C    0.7794028    0.6545384    3.7115134  
N    1.6840587    1.4146091    4.2663826  
C   -0.1885723   -0.1578550    4.3957118  
C   -1.0476298   -0.8789867    3.6398520  
O   -2.0015663   -1.6796266    4.1448486  
C   -1.0022026   -0.8410666    2.1483229  
O   -1.8147390   -1.5232959    1.5241687  
C    0.0000000    0.0000000    1.4700000  
H    2.3054237    1.9346118    0.9892483  
H   -0.2170646   -0.1815267    5.4753125  
H   -2.4487139   -2.0549881    3.3649027  
H    3.2048689    2.6911772    3.3971983  
