62

C    1.1243407    0.0100058   -0.7919007  
C    0.7474066    0.0234635   -2.1148546  
C   -0.6787393    0.0234411   -2.1414696  
C   -1.1201748    0.0098460   -0.7935545  
N    0.0000000    0.0000000    0.0000000  
C   -2.4730817    0.0063415   -0.4408239  
C   -3.3971966    0.0170578   -1.4675052  
O   -4.7313521    0.0145698   -1.1793460  
C   -2.9763662    0.0303156   -2.8186315  
O   -4.0166492    0.0394646   -3.7247614  
C   -1.6418577    0.0335069   -3.1673477  
H   -2.8160163   -0.0041447    0.5845971  
H   -5.1938830    0.0230251   -2.0274365  
H   -3.6464689    0.0481864   -4.6127337  
H   -1.3497486    0.0435711   -4.2109230  
H    2.1062462    0.0053069   -0.3505412  
C    4.5589863   -2.0910929   -2.8627792  
C    4.8001599   -1.5802651   -4.1171146  
C    3.7183222   -0.7028983   -4.4244490  
C    2.8403834   -0.7185727   -3.3104901  
N    3.3796334   -1.5729828   -2.3810763  
C    1.6628937    0.0339103   -3.2649304  
C    1.3664289    0.8167065   -4.3638009  
O    0.2293465    1.5716845   -4.3719359  
C    2.2296833    0.8453769   -5.4848657  
O    1.7957817    1.6733904   -6.4994925  
C    3.3913348    0.1030837   -5.5306119  
H    5.6505872   -1.8123915   -4.7350817  
H    2.9826847   -1.7779454   -1.4819637  
H    0.2146736    2.0340791   -5.2200169  
H    2.4348223    1.6350081   -7.2176552  
H    5.1341877   -2.7851290   -2.2742084  
C    4.9234700   -0.8585098   -7.3102240  
C    4.2614041    0.1602479   -6.7140867  
C    4.5966141    1.3369401   -7.5011879  
C    5.4950857    0.8323782   -8.5617304  
N    5.6902971   -0.4538891   -8.4549668  
C    6.0546796    1.7000383   -9.5612839  
C    5.7310894    3.0120461   -9.5041913  
O    6.1807119    3.9344374  -10.3719897  
C    4.8266643    3.5516464   -8.4463604  
O    4.5753280    4.7566246   -8.4552066  
C    4.2654153    2.6413902   -7.4322808  
H    6.7085890    1.3042313  -10.3245984  
H    5.7796739    4.7710076  -10.0745483  
H    3.6143868    3.0714347   -6.6829785  
H    4.9348115   -1.8990351   -7.0271128  
C    0.0000000    0.0000000    1.4700000  
C    1.0541688    0.0001722    2.3260392  
C    0.5103138    0.0000454    3.6635956  
C   -0.9576371   -0.0002459    3.5155732  
N   -1.2018458    0.0001392    2.1615969  
C   -1.8348311   -0.0008317    4.5510609  
C   -1.2972847   -0.0009736    5.9014604  
O   -2.0050672   -0.0014265    6.9001319  
C    0.2542623   -0.0004184    6.0817573  
O    0.7184670   -0.0002256    7.2139121  
C    1.0974552   -0.0000873    4.8889129  
H    2.0940752    0.0005483    2.0517982  
H   -2.9081052   -0.0011668    4.4207061  
H    2.1707277    0.0000911    5.0223670  
H   -2.1128194   -0.0014912    1.7406791  
