60

C    1.1188648    0.0008219   -0.8003803  
C    0.0000000    0.0000000    0.0000000  
C   -1.1323859    0.0008905   -0.8673531  
C   -0.6382653    0.0019685   -2.1969280  
N    0.7324026    0.0038483   -2.1202236  
C   -1.4770902    0.0027330   -3.3154810  
C   -2.8395463    0.0020962   -3.0876863  
O   -3.7039186    0.0024449   -4.1440360  
C   -3.3517862    0.0013949   -1.7684340  
O   -4.7300486    0.0012388   -1.7073134  
C   -2.5248542    0.0009135   -0.6644822  
H    1.3576326   -0.0056167   -2.9057036  
H   -4.5940017    0.0021852   -3.7685142  
H   -4.9934593    0.0007283   -0.7819930  
H   -2.9462580    0.0005616    0.3339644  
H    2.1619896    0.0009347   -0.5342064  
C    1.8844591   -2.1024764   -5.2000019  
C    1.7579335   -1.6369210   -6.4693814  
C    0.6249295   -0.7419050   -6.4785607  
C    0.0979881   -0.7240436   -5.1005897  
N    0.9053934   -1.5695639   -4.3752747  
C   -0.9736279    0.0040475   -4.6965766  
C   -1.6535166    0.8247030   -5.6849142  
O   -2.6280780    1.5162674   -5.4198324  
C   -1.1127759    0.8208485   -7.1503118  
O   -1.6771933    1.5076014   -7.9911827  
C    0.0504565   -0.0048491   -7.4649008  
H    2.3864479   -1.8915802   -7.3040861  
H    0.4187514   -0.0017845   -8.4817951  
H    0.8008852   -1.7673167   -3.3970014  
C    2.8745163   -3.0403734   -4.6513346  
C    3.8911468   -3.6535259   -5.3010154  
C    4.5491685   -4.4639828   -4.2877699  
C    3.7779748   -4.2132405   -3.0512533  
N    2.7950205   -3.3795997   -3.2582155  
C    4.1165451   -4.8399037   -1.8031550  
C    5.1770825   -5.6792171   -1.7909784  
O    5.6051430   -6.3319559   -0.6970235  
C    5.9750193   -5.9529768   -3.0224465  
O    6.9276409   -6.7279498   -2.9378923  
C    5.6077573   -5.2978975   -4.2904819  
H    4.1611235   -3.5666479   -6.3395918  
H    3.5356404   -4.6382829   -0.9150061  
H    6.3726561   -6.8491271   -1.0013411  
H    6.2108665   -5.5226463   -5.1599515  
C    0.8681109    0.7263879    2.2709268  
C    0.6127770    0.5096195    3.5869401  
C   -0.4920590   -0.4175482    3.6542670  
C   -0.8620974   -0.7254003    2.2596025  
N    0.0000000    0.0000000    1.4700000  
C   -1.8641242   -1.5660088    1.8976294  
C   -2.6293522   -2.2103885    2.9520183  
O   -3.5512764   -2.9839180    2.7283916  
C   -2.2549728   -1.8987399    4.4361073  
O   -2.8923672   -2.4351063    5.3323774  
C   -1.1543735   -0.9755647    4.7012123  
H    1.1382914    0.9492124    4.4159191  
H   -2.1192137   -1.7782617    0.8686553  
H   -0.9013378   -0.7652422    5.7314848  
H    1.6172880    1.3558399    1.8188057  
