58

C    0.6898379   -1.0789162   -9.5578186  
C    1.0334784   -0.7445975  -10.8283379  
C    0.8140996    0.6760917  -10.9638019  
C    0.3109020    1.1454199   -9.6586906  
N    0.2582589    0.0330691   -8.8507340  
C   -0.0160162    2.4323651   -9.3783340  
C    0.1377910    3.4212102  -10.4324039  
O   -0.1298722    4.6057113  -10.2787328  
C    0.6688483    2.9464635  -11.8225117  
O    0.8021794    3.7698934  -12.7177463  
C    0.9879888    1.5325987  -12.0041367  
H    1.3987637   -1.4165643  -11.5844067  
H   -0.3832845    2.7557135   -8.4142432  
H    1.3553300    1.2120534  -12.9695565  
H    0.7153603   -2.0441190   -9.0786300  
C    1.7720688   -2.0859335   -5.3149821  
C    0.8968264   -1.6247192   -4.3847633  
C   -0.0065336   -0.7270828   -5.0652227  
C    0.4171842   -0.7029982   -6.4782596  
N    1.5002594   -1.5471470   -6.5634086  
C   -0.1857664    0.0284587   -7.4494065  
C   -1.3281506    0.8467739   -7.0781196  
O   -1.9388951    1.5411249   -7.8800982  
C   -1.7940047    0.8367265   -5.5872531  
O   -2.7544404    1.5219333   -5.2627298  
C   -1.0641734    0.0073898   -4.6315339  
H    0.8854566   -1.8836209   -3.3409939  
H    2.5929126   -2.7739333   -5.1934844  
H    2.0129033   -1.7433394   -7.4034991  
C    1.1319248    0.0015675   -0.8009270  
C    0.7969916    0.0034959   -2.1169404  
C   -0.6453336    0.0035703   -2.1842672  
C   -1.1266831    0.0015415   -0.7896027  
N    0.0000000    0.0000000    0.0000000  
C   -2.4346129    0.0013924   -0.4276297  
C   -3.4350110    0.0031352   -1.4820184  
O   -4.6384610    0.0030897   -1.2583919  
C   -2.9478958    0.0050460   -2.9661075  
O   -3.7809377    0.0062160   -3.8623775  
C   -1.5113821    0.0053068   -3.2312125  
H    1.4821240    0.0045436   -2.9459192  
H   -2.7664565    0.0000185    0.6013447  
H    2.1104318    0.0009428   -0.3488058  
C    0.0000000    0.0000000    1.4700000  
C    1.0541688    0.0001722    2.3260392  
C    0.5103138    0.0000454    3.6635956  
C   -0.9576371   -0.0002459    3.5155732  
N   -1.2018458    0.0001392    2.1615969  
C   -1.8348311   -0.0008317    4.5510609  
C   -1.2972847   -0.0009736    5.9014604  
O   -2.0050672   -0.0014265    6.9001319  
C    0.2542623   -0.0004184    6.0817573  
O    0.7184670   -0.0002256    7.2139121  
C    1.0974552   -0.0000873    4.8889129  
H    2.0940752    0.0005483    2.0517982  
H   -2.9081052   -0.0011668    4.4207061  
H    2.1707277    0.0000911    5.0223670  
H   -2.1128194   -0.0014912    1.7406791  
