60

C    3.3003542    0.0005278   -1.4738987  
C    2.5232813    0.0003500   -2.6090747  
C    1.1623198   -0.0001315   -2.1820098  
C    1.1711882    0.0000585   -0.7636139  
N    2.4852299   -0.0014917   -0.3662356  
C    0.0000000    0.0000000    0.0000000  
C   -1.2020384    0.0000521   -0.6806476  
O   -2.3759250    0.0003495    0.0157752  
C   -1.2314658   -0.0005109   -2.0955504  
O   -2.5054390   -0.0008033   -2.6250178  
C   -0.0764517   -0.0007269   -2.8495190  
H    2.8919952   -0.0005615   -3.6205299  
H    2.8036264    0.0088181    0.5858664  
H   -3.0835640    0.0000349   -0.6418814  
H   -2.4360049   -0.0011521   -3.5845916  
H    4.3715550    0.0004897   -1.3667131  
C    2.2697430   -2.0933922   -5.9499304  
C    1.7761646   -1.6308841   -4.7724154  
C    0.6896457   -0.7359131   -5.0938791  
C    0.5899536   -0.7148023   -6.5657504  
N    1.5756958   -1.5579527   -7.0243341  
C   -0.3170961    0.0136149   -7.2645882  
C   -1.2578065    0.8315636   -6.5172203  
O   -2.1126588    1.5232787   -7.0548617  
C   -1.1702524    0.8246329   -4.9577036  
O   -1.9567839    1.5095616   -4.3177804  
C   -0.1496416   -0.0015606   -4.3176956  
H    2.1326581   -1.8872530   -3.7906820  
H    3.0822591   -2.7801820   -6.1232168  
H    1.7609408   -1.7556229   -7.9905940  
C    0.1191548   -3.2638037  -10.1028461  
C   -0.0543783   -2.6376022  -11.2900009  
C   -0.2850758   -1.2425041  -10.9479785  
C   -0.2149314   -1.2042377   -9.4714288  
N    0.0218710   -2.3861396   -8.9704073  
C   -0.3936250    0.0153025   -8.7325936  
C   -0.6311937    1.1453180   -9.4368381  
O   -0.8171131    2.3531000   -8.8776086  
C   -0.7074117    1.1391786  -10.9275813  
O   -0.9269934    2.2049028  -11.5031133  
C   -0.5207058   -0.1245084  -11.6625370  
H   -0.0288824   -3.0690908  -12.2760257  
H   -0.9631345    2.9547911   -9.6298045  
H   -0.5832856   -0.0867120  -12.7418367  
H    0.3146948   -4.3094773   -9.9259161  
C    0.8681109    0.7263879    2.2709268  
C    0.6127770    0.5096195    3.5869401  
C   -0.4920590   -0.4175482    3.6542670  
C   -0.8620974   -0.7254003    2.2596025  
N    0.0000000    0.0000000    1.4700000  
C   -1.8641242   -1.5660088    1.8976294  
C   -2.6293522   -2.2103885    2.9520183  
O   -3.5512764   -2.9839180    2.7283916  
C   -2.2549728   -1.8987399    4.4361073  
O   -2.8923672   -2.4351063    5.3323774  
C   -1.1543735   -0.9755647    4.7012123  
H    1.1382914    0.9492124    4.4159191  
H   -2.1192137   -1.7782617    0.8686553  
H   -0.9013378   -0.7652422    5.7314848  
H    1.6172880    1.3558399    1.8188057  
