60

C    3.3041276    0.0001178   -1.5420426  
C    2.5845372   -0.0004779   -0.3695848  
C    1.2040005   -0.0000007   -0.7283587  
C    1.1422376    0.0006039   -2.1454367  
N    2.4348645    0.0026112   -2.6077457  
C   -0.0655179    0.0008798   -2.8497914  
C   -1.2321765    0.0002325   -2.1101396  
O   -2.4392815    0.0001147   -2.7472519  
C   -1.1911207   -0.0000007   -0.6955262  
O   -2.4371524   -0.0002320   -0.1032863  
C    0.0000000    0.0000000    0.0000000  
H    3.0031537   -0.0000660    0.6222592  
H    2.7054634   -0.0071097   -3.5745254  
H   -3.1132984   -0.0000649   -2.0551788  
H   -2.3200280   -0.0004071    0.8516414  
H    4.3686622    0.0004072   -1.7024282  
C   -0.1387078    0.0017019   -4.3179679  
C    0.8715321    0.0021967   -5.2254318  
C    0.2617559    0.0029743   -6.5342510  
C   -1.1970046    0.0029205   -6.3133239  
N   -1.3734971    0.0017347   -4.9488687  
C   -2.1246666    0.0039286   -7.3038523  
C   -1.6550222    0.0049216   -8.6793404  
O   -2.4116496    0.0058065   -9.6415329  
C   -0.1143761    0.0047445   -8.9366639  
O    0.2928838    0.0052678  -10.0905268  
C    0.7871616    0.0038971   -7.7872811  
H    1.9238031    0.0018530   -5.0033065  
H   -3.1901194    0.0039990   -7.1202218  
H   -2.2623841    0.0029669   -4.4831159  
C    3.1738323   -0.7229359   -7.3248081  
C    4.4260105   -0.5058751   -7.8033576  
C    4.3016198    0.4220997   -8.9025510  
C    2.8640258    0.7301068   -9.0260210  
N    2.2350874    0.0040167   -8.0410746  
C    2.3345276    1.5714129   -9.9498933  
C    3.2409963    2.2164335  -10.8851994  
O    2.8615941    2.9906138  -11.7541070  
C    4.7674213    1.9046341  -10.7728953  
O    5.5402122    2.4415359  -11.5550666  
C    5.2185209    0.9806820   -9.7352665  
H    5.3332510   -0.9457819   -7.4291777  
H    1.2769738    1.7837671  -10.0233468  
H    6.2769990    0.7702597   -9.6640592  
H    2.8578166   -1.3529683   -6.5092821  
C    2.5128556    2.1077716    2.9199648  
C    1.9592212    1.6432552    4.0696553  
C    0.8915788    0.7479214    3.6910360  
C    0.8684491    0.7287414    2.2159470  
N    1.8754542    1.5738793    1.8102719  
C    0.0000000    0.0000000    1.4700000  
C   -0.9772830   -0.8200135    2.1664417  
O   -1.8021297   -1.5120829    1.5842315  
C   -0.9711318   -0.8147624    3.7284083  
O   -1.7894187   -1.5009653    4.3257297  
C    0.0140216    0.0115358    4.4216297  
H    2.2638494    1.8988021    5.0689105  
H    0.0117648    0.0094386    5.5031631  
H    3.3327358    2.7953732    2.7900019  
H    2.1123206    1.7707734    0.8551938  
