64

C    5.9071319   -2.1224379   -4.5070230  
C    5.7365513   -1.6242143   -5.7779051  
C    4.6105079   -0.7497129   -5.7346236  
C    4.1312171   -0.7540644   -4.3996377  
N    4.9399006   -1.5992754   -3.6811211  
C    3.0267438   -0.0008951   -3.9901699  
C    2.3947817    0.7709583   -4.9457029  
O    1.3115943    1.5260768   -4.5999942  
C    2.8578549    0.7882373   -6.2828947  
O    2.1221350    1.6061780   -7.1153803  
C    3.9472180    0.0452596   -6.6876136  
H    6.3477797   -1.8626928   -6.6314395  
H    4.8491913   -1.7951604   -2.7006206  
H    1.0273564    1.9799843   -5.4040106  
H    2.5005414    1.5604824   -7.9987399  
H    4.2787220    0.0785434   -7.7188637  
C    9.3258351   -4.2600989   -6.4390003  
C    8.2293946   -3.4639172   -6.2015539  
C    7.9036549   -3.6051081   -4.8200481  
C    8.8442377   -4.5075724   -4.2607722  
N    9.6921545   -4.8875786   -5.2713411  
C    8.8256624   -4.8806263   -2.9134515  
C    7.8397979   -4.3324312   -2.1161246  
O    7.7758694   -4.6622358   -0.7931901  
C    6.8921202   -3.4304990   -2.6557940  
O    5.9737601   -2.9717746   -1.7340946  
C    6.9096792   -3.0622341   -3.9849286  
H    7.7255852   -2.8569800   -6.9342176  
H   10.4691238   -5.5155650   -5.1716656  
H    9.5395988   -5.5680704   -2.4811115  
H    7.0256235   -4.1764142   -0.4266215  
H    5.3709714   -2.3686516   -2.1796187  
H    9.8746782   -4.4311355   -7.3492060  
C    3.3003547    0.0005277   -1.4738986  
C    2.5232816    0.0003497   -2.6090746  
C    1.1623203   -0.0001319   -2.1820102  
C    1.1711884    0.0000584   -0.7636141  
N    2.4852301   -0.0014919   -0.3662359  
C    0.0000000    0.0000000    0.0000000  
C   -1.2020383    0.0000520   -0.6806479  
O   -2.3759248    0.0003493    0.0157745  
C   -1.2314655   -0.0005115   -2.0955511  
O   -2.5054388   -0.0008040   -2.6250184  
C   -0.0764513   -0.0007274   -2.8495195  
H    2.8036266    0.0088183    0.5858662  
H   -3.0835639    0.0000346   -0.6418822  
H   -2.4360043   -0.0011529   -3.5845924  
H   -0.1304091   -0.0013423   -3.9319089  
H    4.3715553    0.0004897   -1.3667133  
C    2.4951002    2.0940188    2.9809380  
C    1.9440701    1.6314916    1.8291961  
C    0.8759964    0.7350050    2.2038498  
C    0.8497377    0.7130254    3.6788474  
N    1.8560616    1.5571714    4.0882609  
C   -0.0205033   -0.0168748    4.4215661  
C   -0.9962600   -0.8356168    3.7214979  
O   -1.8224391   -1.5286685    4.3006425  
C   -0.9864710   -0.8277881    2.1595606  
O   -1.8030528   -1.5133726    1.5592035  
C    0.0000000    0.0000000    1.4700000  
H    2.2509283    1.8888011    0.8310761  
H   -0.0229599   -0.0187323    5.5027230  
H    3.3143982    2.7817323    3.1139444  
H    2.0889452    1.7545833    5.0442112  
