58

C   10.0039879   -0.7282662   -1.5081988  
C   11.2773138   -0.5119514   -1.9276340  
C   11.2049256    0.4150258   -3.0323098  
C    9.7747995    0.7232607   -3.2234193  
N    9.1001095   -0.0017590   -2.2684169  
C    9.2894974    1.5638296   -4.1719069  
C   10.2390585    2.2077600   -5.0642197  
O    9.9010851    2.9812187   -5.9506940  
C   11.7584405    1.8957012   -4.8800896  
O   12.5672501    2.4316874   -5.6256128  
C   12.1600678    0.9726112   -3.8215756  
H   12.1658621   -0.9517250   -1.5108683  
H    8.2366174    1.7763676   -4.2951241  
H   13.2139765    0.7620028   -3.7005601  
H    9.6498562   -1.3574611   -0.7078275  
C    6.6174604   -0.0017048    1.3537077  
C    5.3857487   -0.0012517    0.7819026  
C    5.5854749   -0.0008503   -0.6481130  
C    7.0449748   -0.0011377   -0.8640992  
N    7.6133361   -0.0012549    0.3888394  
C    7.6418659   -0.0012958   -2.0828796  
C    6.7899755   -0.0009489   -3.2605120  
O    7.2316310   -0.0009950   -4.4021083  
C    5.2415215   -0.0003889   -3.0553446  
O    4.5141879    0.0002133   -4.0393396  
C    4.7161325   -0.0005435   -1.6923264  
H    4.4446705   -0.0010220    1.3024658  
H    6.8814406   -0.0021126    2.3987936  
H    8.5996517   -0.0030072    0.5738417  
C    3.2573665   -0.0002920   -1.5109385  
C    2.5379463   -0.0001709   -0.3591964  
C    1.1435038    0.0000331   -0.7338500  
C    1.1092599   -0.0000083   -2.2088477  
N    2.4227553    0.0001909   -2.6182613  
C   -0.0265539   -0.0002524   -2.9515660  
C   -1.3003040   -0.0002640   -2.2514977  
O   -2.3786790   -0.0004133   -2.8306421  
C   -1.2877727    0.0000311   -0.6895603  
O   -2.3539959    0.0003306   -0.0892030  
C    0.0000000    0.0000000    0.0000000  
H    2.9384091   -0.0000367    0.6389234  
H   -0.0296303   -0.0004086   -4.0327229  
H    2.7280482   -0.0013407   -3.5742119  
C    2.3971438    2.0127888    3.1728260  
C    1.9431056    1.6308205    1.9564670  
C    0.8496017    0.7127664    2.2356185  
C    0.7794028    0.6545384    3.7115134  
N    1.6840587    1.4146091    4.2663826  
C   -0.1885723   -0.1578550    4.3957118  
C   -1.0476298   -0.8789867    3.6398520  
O   -2.0015663   -1.6796266    4.1448486  
C   -1.0022026   -0.8410666    2.1483229  
O   -1.8147390   -1.5232959    1.5241687  
C    0.0000000    0.0000000    1.4700000  
H    2.3054237    1.9346118    0.9892483  
H   -0.2170646   -0.1815267    5.4753125  
H   -2.4487139   -2.0549881    3.3649027  
H    3.2048689    2.6911772    3.3971983  
