58

C   -0.3097827   -1.0603334   -9.6221608  
C   -0.4717744    0.0181291   -8.8129927  
C   -0.7045999    1.1564414   -9.6702401  
C   -0.6647142    0.6491041  -11.0550897  
N   -0.4212783   -0.7014463  -10.9568921  
C   -0.8411345    1.4164345  -12.1604335  
C   -1.0864630    2.8368157  -11.9737099  
O   -1.2578049    3.6113741  -12.9059132  
C   -1.1326167    3.3958006  -10.5159001  
O   -1.3381175    4.5900583  -10.3462596  
C   -0.9281464    2.4700573   -9.4045759  
H   -0.8081577    1.0244005  -13.1674743  
H   -0.9618285    2.8650155   -8.3982966  
H   -0.1181181   -2.0870571   -9.3557166  
H   -0.3394423   -1.3299730  -11.7349052  
C    2.1451928   -2.0951773   -5.9900943  
C    1.6340471   -1.6323753   -4.8202142  
C    0.5538825   -0.7357923   -5.1581773  
C    0.4770637   -0.7140560   -6.6314112  
N    1.4686359   -1.5584204   -7.0749457  
C   -0.4180294    0.0158494   -7.3439773  
C   -1.3690894    0.8348538   -6.6110028  
O   -2.2145426    1.5279314   -7.1615959  
C   -1.3057473    0.8272853   -5.0503184  
O   -2.1011641    1.5130918   -4.4224315  
C   -0.2963293   -0.0005341   -4.3948471  
H    1.9749143   -1.8895634   -3.8331592  
H    2.9593495   -2.7830349   -6.1509984  
H    1.6685743   -1.7560271   -8.0382850  
C    3.1301146   -0.0010313   -1.7028256  
C    2.5367765   -0.0002766   -0.4864669  
C    1.1089901    0.0001027   -0.7656184  
C    1.0177865   -0.0004150   -2.2415133  
N    2.1993571   -0.0011612   -2.7963824  
C   -0.2459219   -0.0002879   -2.9257116  
C   -1.3675326   -0.0000606   -2.1698520  
O   -2.6129318    0.0000865   -2.6748483  
C   -1.3083588    0.0000910   -0.6783229  
O   -2.3693264    0.0004206   -0.0541685  
C    0.0000000    0.0000000    0.0000000  
H    3.0096016   -0.0001007    0.4807518  
H   -3.1967444    0.0002093   -1.8949026  
H    4.1849275   -0.0015114   -1.9271979  
C    0.0000000    0.0000000    1.4700000  
C    1.0541688    0.0001722    2.3260392  
C    0.5103138    0.0000454    3.6635956  
C   -0.9576371   -0.0002459    3.5155732  
N   -1.2018458    0.0001392    2.1615969  
C   -1.8348311   -0.0008317    4.5510609  
C   -1.2972847   -0.0009736    5.9014604  
O   -2.0050672   -0.0014265    6.9001319  
C    0.2542623   -0.0004184    6.0817573  
O    0.7184670   -0.0002256    7.2139121  
C    1.0974552   -0.0000873    4.8889129  
H    2.0940752    0.0005483    2.0517982  
H   -2.9081052   -0.0011668    4.4207061  
H    2.1707277    0.0000911    5.0223670  
H   -2.1128194   -0.0014912    1.7406791  
