58

C    4.4862643    0.0034847   -7.5753000  
C    3.1878167    0.0029204   -7.9729280  
C    3.1897018    0.0032201   -9.4168230  
C    4.6058363    0.0039818   -9.8307698  
N    5.3405281    0.0045073   -8.6675334  
C    5.0300857    0.0040546  -11.1198448  
C    4.0248597    0.0035610  -12.1696338  
O    4.3059133    0.0036438  -13.3609812  
C    2.5191267    0.0030039  -11.7542144  
O    1.6638156    0.0028921  -12.6292599  
C    2.1854699    0.0026968  -10.3320594  
H    2.3269498    0.0025406   -7.3283195  
H    6.0737850    0.0044888  -11.4019857  
H    1.1406101    0.0021059  -10.0527917  
H    6.3428915    0.0035217   -8.6194323  
C    2.4521485    0.0014838   -3.7217479  
C    3.4891874    0.0014496   -2.8521910  
C    4.6797446    0.0022553   -3.6882977  
C    4.1623478    0.0025993   -5.0735360  
N    2.8572357    0.0022305   -5.0994557  
C    5.0381733    0.0034462   -6.2128406  
C    6.3703214    0.0043167   -5.9789268  
O    7.3023601    0.0051585   -6.9470923  
C    6.9233371    0.0043691   -4.5924440  
O    8.1464868    0.0050623   -4.4541506  
C    6.0043355    0.0034465   -3.4403332  
H    3.4509657    0.0010309   -1.7762664  
H    8.1530740    0.0056732   -6.4722882  
H    6.4446273    0.0036314   -2.4522170  
C    0.0000000    0.0000000    0.0000000  
C    1.0662924   -0.0000102   -0.8334267  
C    0.4961874    0.0000064   -2.1718888  
C   -0.9663853   -0.0000849   -1.9540250  
N   -1.2632772   -0.0000084   -0.6828660  
C   -1.8985357   -0.0000515   -3.0477261  
C   -1.3925767    0.0004566   -4.3020548  
O   -2.1456375    0.0005411   -5.4151316  
C    0.0786242    0.0009324   -4.5545000  
O    0.4683770    0.0012590   -5.7221099  
C    1.0143173    0.0008443   -3.4159029  
H    2.1107200    0.0000632   -0.5721862  
H   -2.9622180   -0.0003269   -2.8593382  
H   -1.5042262    0.0009694   -6.1484423  
C    3.2798086   -0.0005857    2.9199648  
C    2.5571146   -0.0005566    4.0696553  
C    1.1637436   -0.0001548    3.6910360  
C    1.1336965    0.0000200    2.2159470  
N    2.4483514    0.0001428    1.8102719  
C    0.0000000    0.0000000    1.4700000  
C   -1.2757367    0.0000186    2.1664417  
O   -2.3524596    0.0000640    1.5842315  
C   -1.2676493    0.0000873    3.7284083  
O   -2.3355761    0.0004100    4.3257297  
C    0.0181563   -0.0001760    4.4216297  
H    2.9547357   -0.0006076    5.0689105  
H    0.0150794   -0.0003319    5.5031631  
H    4.3498549   -0.0008612    2.7900019  
H    2.7563627   -0.0012824    0.8551938  
