58

C    0.9223629   -1.1117570   -7.6884241  
C    1.9626583   -1.9842784   -7.7122424  
C    2.2477310   -2.2617106   -9.1002629  
C    1.2813318   -1.4736243   -9.8887946  
N    0.5063035   -0.7992111   -8.9737057  
C    1.2232191   -1.4620135  -11.2445948  
C    2.1759291   -2.2804912  -11.9760148  
O    2.2043872   -2.3378645  -13.1983878  
C    3.2082160   -3.1233975  -11.1613375  
O    4.0150347   -3.8165414  -11.7661994  
C    3.1730103   -3.0536155   -9.7026591  
H    2.4720598   -2.3876603   -6.8552673  
H    0.5065054   -0.8766701  -11.8037055  
H    3.8912545   -3.6401050   -9.1459930  
H   -0.2444691   -0.1744650   -9.2040960  
C    0.5437027   -0.7271853   -5.2249456  
C    0.2434228   -0.5105994   -6.5314668  
C   -0.8629397    0.4167214   -6.5610285  
C   -1.1848921    0.7248622   -5.1545481  
N   -0.2963293   -0.0005341   -4.3948471  
C   -2.1737969    1.5656803   -4.7585730  
C   -2.9746387    2.2099975   -5.7862128  
O   -3.8882418    2.9837017   -5.5312372  
C   -2.6514144    1.8980444   -7.2822129  
O   -3.3190915    2.4343558   -8.1561913  
C   -1.5606853    0.9746612   -7.5847428  
H   -2.3934216    1.7781436   -3.7214932  
H   -1.3431573    0.7641283   -8.6230494  
H    1.3078526   -1.3566731   -4.7986720  
C    3.1301146   -0.0010313   -1.7028256  
C    2.5367765   -0.0002766   -0.4864669  
C    1.1089901    0.0001027   -0.7656184  
C    1.0177865   -0.0004150   -2.2415133  
N    2.1993571   -0.0011612   -2.7963824  
C   -0.2459219   -0.0002879   -2.9257116  
C   -1.3675326   -0.0000606   -2.1698520  
O   -2.6129318    0.0000865   -2.6748483  
C   -1.3083588    0.0000910   -0.6783229  
O   -2.3693264    0.0004206   -0.0541685  
C    0.0000000    0.0000000    0.0000000  
H    3.0096016   -0.0001007    0.4807518  
H   -3.1967444    0.0002093   -1.8949026  
H    4.1849275   -0.0015114   -1.9271979  
C    0.0000000    0.0000000    1.4700000  
C    1.0662921    0.0000102    2.3034270  
C    0.4961870   -0.0000064    3.6418889  
C   -0.9663858    0.0000850    3.4240247  
N   -1.2632773    0.0000084    2.1528658  
C   -1.8985362    0.0000517    4.5177257  
C   -1.3925775   -0.0004564    5.7720543  
O   -2.1456383   -0.0005410    6.8851312  
C    0.0786232   -0.0009323    6.0245000  
O    0.4683759   -0.0012588    7.1921102  
C    1.0143166   -0.0008442    4.8859032  
H    2.1107198   -0.0000632    2.0421868  
H   -2.9622183    0.0003270    4.3293377  
H   -1.5042274   -0.0009692    7.6184419  
H    2.0724152   -0.0013148    5.1109744  
