62

C    1.1188644    0.0008221   -0.8003803  
C    0.0000000    0.0000000    0.0000000  
C   -1.1323861    0.0008897   -0.8673528  
C   -0.6382656    0.0019677   -2.1969279  
N    0.7324021    0.0038481   -2.1202232  
C   -1.4770906    0.0027314   -3.3154809  
C   -2.8395466    0.0020937   -3.0876859  
O   -3.7039194    0.0024420   -4.1440356  
C   -3.3517866    0.0013925   -1.7684332  
O   -4.7300489    0.0012359   -1.7073127  
C   -2.5248544    0.0009119   -0.6644817  
H    1.3576319   -0.0056169   -2.9057036  
H   -4.5940025    0.0021821   -3.7685136  
H   -4.9934594    0.0007257   -0.7819926  
H   -2.9462580    0.0005599    0.3339654  
H    2.1619891    0.0009355   -0.5342062  
C    1.9333069   -2.1182742   -5.2802152  
C    1.0133392   -1.6572494   -4.3672080  
C    0.1426192   -0.7691972   -5.0656420  
C    0.5838560   -0.7277675   -6.4130547  
N    1.6740004   -1.5566761   -6.5085133  
C   -0.0442372    0.0493812   -7.3909745  
C   -1.1378606    0.7981155   -7.0016641  
O   -1.7887534    1.5744842   -7.9163248  
C   -1.5929370    0.7702827   -5.6619077  
O   -2.6929646    1.5704861   -5.4317836  
C   -0.9736286    0.0040459   -4.6965760  
H    0.9752628   -1.9268941   -3.3256537  
H    0.2872442    0.0854147   -8.4195773  
H   -2.5111337    2.0069652   -7.4426248  
H   -2.9358037    1.4942139   -4.5039822  
H    2.7547995   -2.8021592   -5.1521112  
C    3.3587180   -5.2792646   -8.0223037  
C    3.9337057   -4.8813370   -9.1810191  
C    3.6658816   -3.4536610   -9.2617089  
C    2.8976458   -3.1486892   -8.0355800  
N    2.7145541   -4.2149197   -7.3050874  
C    2.4354514   -1.8209803   -7.7378370  
C    2.7277811   -0.8423475   -8.6244910  
O    2.3595277    0.4413124   -8.4739999  
C    3.5016145   -1.1184304   -9.8707331  
O    3.7312169   -0.1794197  -10.6328112  
C    3.9646154   -2.4886550  -10.1536458  
H    4.4730623   -5.4823770   -9.8930029  
H    2.7109203    0.8940608   -9.2618412  
H    4.5222374   -2.6471846  -11.0669676  
H    3.3347870   -6.2708554   -7.5990444  
C    2.4951002    2.0940188    2.9809380  
C    1.9440701    1.6314916    1.8291961  
C    0.8759964    0.7350050    2.2038498  
C    0.8497377    0.7130254    3.6788474  
N    1.8560616    1.5571714    4.0882609  
C   -0.0205033   -0.0168748    4.4215661  
C   -0.9962600   -0.8356168    3.7214979  
O   -1.8224391   -1.5286685    4.3006425  
C   -0.9864710   -0.8277881    2.1595606  
O   -1.8030528   -1.5133726    1.5592035  
C    0.0000000    0.0000000    1.4700000  
H    2.2509283    1.8888011    0.8310761  
H   -0.0229599   -0.0187323    5.5027230  
H    3.3143982    2.7817323    3.1139444  
H    2.0889452    1.7545833    5.0442112  
