58

C    3.2573672   -0.0002920   -1.5109380  
C    2.5379470   -0.0001710   -0.3591959  
C    1.1435044    0.0000331   -0.7338498  
C    1.1092609   -0.0000083   -2.2088475  
N    2.4227564    0.0001909   -2.6182609  
C   -0.0265532   -0.0002524   -2.9515660  
C   -1.3003037   -0.0002640   -2.2514978  
O   -2.3786783   -0.0004133   -2.8306423  
C   -1.2877723    0.0000311   -0.6895608  
O   -2.3539957    0.0003306   -0.0892035  
C    0.0000000    0.0000000    0.0000000  
H    2.9384091   -0.0000368    0.6389235  
H    2.7280494   -0.0013407   -3.5742112  
C    5.6463488    0.0002323   -0.7029957  
C    4.7161333   -0.0005436   -1.6923256  
C    5.4339829   -0.0013633   -2.9451332  
C    6.8689507   -0.0010281   -2.6021223  
N    6.9298903    0.0003445   -1.2276501  
C    7.8767475   -0.0019861   -3.5109952  
C    7.5246271   -0.0032187   -4.9211533  
O    8.3596101   -0.0040804   -5.8161967  
C    6.0111303   -0.0033416   -5.3073282  
O    5.7025051   -0.0040680   -6.4913938  
C    5.0159852   -0.0025215   -4.2379655  
H    8.9229469   -0.0018485   -3.2382757  
H    3.9702016   -0.0028179   -4.5137561  
H    5.5021933    0.0009485    0.3652306  
H    7.7763888   -0.0006784   -0.6886822  
C   -0.0307352   -0.0004647   -4.4215603  
C    1.0209940   -0.0006524   -5.2805949  
C    0.4733359   -0.0007746   -6.6165986  
C   -0.9941879   -0.0006125   -6.4644009  
N   -1.2345436   -0.0008271   -5.1097353  
C   -1.8743243   -0.0002663   -7.4973884  
C   -1.3406219   -0.0002643   -8.8493122  
O   -2.0512426   -0.0000283   -9.8459652  
C    0.2104060   -0.0006863   -9.0340214  
O    0.6713879   -0.0009950  -10.1674928  
C    1.0569890   -0.0007586   -7.8435811  
H    2.0616764   -0.0008822   -5.0093130  
H   -2.9472231   -0.0000225   -7.3639812  
H    2.1298776   -0.0008462   -7.9800882  
H   -2.1443163    0.0007706   -4.6862276  
C    0.8175213    0.6860729    2.3021913  
C    0.0000000    0.0000000    1.4700000  
C   -0.8887526   -0.7456559    2.3478473  
C   -0.4549825   -0.3816753    3.7138435  
N    0.5448156    0.4573574    3.6934124  
C   -1.0945674   -0.9182058    4.8835240  
C   -2.1210866   -1.7789155    4.6970523  
O   -2.8083856   -2.3554314    5.6976972  
C   -2.5824069   -2.1655116    3.3310774  
O   -3.5227682   -2.9541547    3.2362962  
C   -1.9100805   -1.6015804    2.1470656  
H   -0.7567140   -0.6349833    5.8697035  
H   -3.4728268   -2.9124471    5.2533954  
H   -2.2742832   -1.9066565    1.1752040  
H    1.6189533    1.3585343    2.0405121  
