58

C    3.3907931   -0.7248486   -6.0839850  
C    4.7287106   -0.5083190   -5.9993272  
C    5.0727782    0.4176683   -7.0524176  
C    3.8166299    0.7250879   -7.7626111  
N    2.8349221    0.0005892   -7.1268112  
C    3.7193256    1.5646146   -8.8244172  
C    4.9328025    2.2082034   -9.2996035  
O    4.9491488    2.9807406  -10.2489308  
C    6.2743884    1.8969942   -8.5626501  
O    7.3025870    2.4327019   -8.9539093  
C    6.2530713    0.9750037   -7.4298072  
H    5.3982157   -0.9473275   -5.2812413  
H    2.7880227    1.7765673   -9.3310339  
H    7.1861493    0.7649792   -6.9248520  
H    2.7641609   -1.3535109   -5.4724249  
C   -0.8712823    0.0001712   -4.7267111  
C    0.4246872    0.0002200   -5.1323438  
C    0.4138927    0.0002765   -6.5761993  
C   -1.0047698    0.0002858   -6.9813994  
N   -1.7322696   -0.0001788   -5.8136521  
C   -1.4369651    0.0007305   -8.2678333  
C   -0.4382355    0.0010077   -9.3238034  
O   -0.7266353    0.0013508  -10.5133953  
C    1.0700322    0.0007511   -8.9176838  
O    1.9199275    0.0006741   -9.7979906  
C    1.4124576    0.0005506   -7.4976145  
H    1.2895154    0.0000344   -4.4930585  
H   -2.4823848    0.0008590   -8.5435282  
H   -2.7343167    0.0012684   -5.7593670  
C    1.0965515    0.0001358   -0.8010304  
C    0.0000000    0.0000000    0.0000000  
C   -1.1546562    0.0001470   -0.8669514  
C   -0.6372012    0.0003520   -2.2486282  
N    0.7342873    0.0007338   -2.1395014  
C   -1.4147737    0.0001354   -3.3608717  
C   -2.8576047   -0.0001047   -3.1854463  
O   -3.6427778   -0.0002491   -4.1244908  
C   -3.4275837   -0.0000725   -1.7311667  
O   -4.6406828    0.0000333   -1.5710061  
C   -2.4891866   -0.0001090   -0.6116745  
H   -2.8919121   -0.0002919    0.3920865  
H    2.1388272    0.0000662   -0.5261647  
H    1.3735873   -0.0006098   -2.9130261  
C    2.5528530    2.1414826    2.8079335  
C    2.0663498    1.7338582    4.0032312  
C    0.9804344    0.8229586    3.6752840  
C    0.9495562    0.7966882    2.1971295  
N    1.8690446    1.5676019    1.6831036  
C    0.0000000    0.0000000    1.4700000  
C   -0.8785127   -0.7372425    2.1869543  
O   -1.8187535   -1.5261249    1.6395491  
C   -0.8723269   -0.7321790    3.6796354  
O   -1.7010379   -1.4274584    4.2670412  
C    0.1115397    0.0933559    4.4024240  
H    2.4028853    2.0163452    4.9860947  
H   -2.2861435   -1.9184361    2.3990168  
H    0.0832434    0.0693689    5.4835595  
H    3.3664920    2.8238276    2.6198634  
