62

C   -2.7135148    1.8786119   -1.4738977  
C   -2.0745838    1.4363340   -2.6090739  
C   -0.9554665    0.6618714   -2.1820099  
C   -0.9628650    0.6667644   -0.7636138  
N   -2.0422526    1.4161839   -0.3662350  
C    0.0000000    0.0000000    0.0000000  
C    0.9881625   -0.6844192   -0.6806482  
O    1.9530430   -1.3530118    0.0157739  
C    1.0126753   -0.7007104   -2.0955512  
O    2.0601717   -1.4258022   -2.6250186  
C    0.0632633   -0.0429294   -2.8495194  
H   -2.3098751    1.5889858    0.5858674  
H    2.5349703   -1.7556451   -0.6418822  
H    2.0032883   -1.3859836   -3.5845927  
H    0.1079718   -0.0731451   -3.9319087  
H   -3.5941241    2.4885275   -1.3667125  
C   -3.6522820    5.0738313   -4.5522449  
C   -3.1652080    4.1738900   -3.6595304  
C   -2.9538814    2.9397365   -4.3785862  
C   -3.3606539    3.1962877   -5.7734008  
N   -3.7743501    4.5078665   -5.8122142  
C   -3.3111267    2.2767771   -6.7702719  
C   -2.8249385    0.9455300   -6.4478778  
O   -2.7425728    0.0478363   -7.2759253  
C   -2.3890325    0.6515352   -4.9770424  
O   -1.9783124   -0.4657139   -4.6936260  
C   -2.4877705    1.7240018   -3.9901692  
H   -2.9757692    4.3539953   -2.6163196  
H   -3.6141734    2.4855125   -7.7868855  
H   -4.1109842    4.9816177   -6.6303122  
C   -3.6059302    7.6899366   -0.9268475  
C   -3.4812127    6.6273102   -1.7915665  
C   -3.9215482    7.0779703   -3.0712582  
C   -4.3060479    8.4354111   -2.9248353  
N   -4.1035756    8.7747546   -1.6101231  
C   -4.7926639    9.2024726   -3.9876666  
C   -4.8926702    8.5880985   -5.2208424  
O   -5.3612730    9.2910301   -6.2929024  
C   -4.5143565    7.2345284   -5.3868037  
O   -4.6730050    6.7669842   -6.6750493  
C   -4.0344704    6.4771204   -4.3386777  
H   -3.1186230    5.6475184   -1.5317008  
H   -4.2779276    9.6792245   -1.2107274  
H   -5.0875241   10.2374667   -3.8825750  
H   -5.3503981    8.6832937   -7.0437698  
H   -4.3951617    5.8462549   -6.7008233  
H   -3.3806254    7.7594457    0.1235643  
C    0.0000000    0.0000000    1.4700000  
C    1.0541688    0.0001722    2.3260392  
C    0.5103138    0.0000454    3.6635956  
C   -0.9576371   -0.0002459    3.5155732  
N   -1.2018458    0.0001392    2.1615969  
C   -1.8348311   -0.0008317    4.5510609  
C   -1.2972847   -0.0009736    5.9014604  
O   -2.0050672   -0.0014265    6.9001319  
C    0.2542623   -0.0004184    6.0817573  
O    0.7184670   -0.0002256    7.2139121  
C    1.0974552   -0.0000873    4.8889129  
H    2.0940752    0.0005483    2.0517982  
H   -2.9081052   -0.0011668    4.4207061  
H    2.1707277    0.0000911    5.0223670  
H   -2.1128194   -0.0014912    1.7406791  
