62

C   -4.7630504   -0.0022798   -1.3275397  
C   -5.7496376   -0.0047933   -2.2862402  
C   -6.9989987   -0.0047031   -1.5979844  
C   -6.7092695   -0.0017732   -0.2094693  
N   -5.3425441   -0.0023123   -0.0803285  
C   -7.7059382   -0.0005748    0.7710608  
C   -9.0190067   -0.0020599    0.3420777  
O  -10.0316328   -0.0006360    1.2572822  
C   -9.3281945   -0.0053599   -1.0389398  
O  -10.6818172   -0.0069109   -1.3054859  
C   -8.3454685   -0.0068169   -2.0068102  
H   -5.5886396   -0.0075890   -3.3506951  
H   -4.8418190    0.0098947    0.7897903  
H  -10.8555480   -0.0023516    0.7528761  
H  -10.8038876   -0.0090994   -2.2597906  
H   -8.6128179   -0.0095313   -3.0570459  
C   -3.3003544   -0.0017778   -1.4738983  
C   -2.5232812   -0.0013056   -2.6090745  
C   -1.1623201   -0.0003085   -2.1820101  
C   -1.1711884   -0.0005020   -0.7636141  
N   -2.4852304    0.0005505   -0.3662357  
C    0.0000000    0.0000000    0.0000000  
C    1.2020381    0.0004033   -0.6806480  
O    2.3759247    0.0005506    0.0157743  
C    1.2314653    0.0009776   -2.0955511  
O    2.5054377    0.0017526   -2.6250183  
C    0.0764514    0.0007561   -2.8495196  
H   -2.8919959   -0.0005337   -3.6205296  
H   -2.8036229   -0.0098801    0.5858666  
H    3.0835639    0.0011332   -0.6418822  
H    2.4360034    0.0020753   -3.5845927  
H    0.1304080    0.0013913   -3.9319088  
C   -4.6655385    2.1132960    3.1313272  
C   -4.9801378    1.6508972    4.3687799  
C   -6.1011267    0.7546359    4.2108692  
C   -6.4160567    0.7326041    2.7696460  
N   -5.5098726    1.5771443    2.1709208  
C   -7.4146766    0.0022629    2.2119143  
C   -8.2341304   -0.8165861    3.0897053  
O   -9.1575911   -1.5099312    2.6837565  
C   -7.9186205   -0.8083186    4.6194734  
O   -8.6019452   -1.4935190    5.3683582  
C   -6.8161122    0.0194992    5.1022208  
H   -4.4837036    1.9084291    5.2873900  
H   -6.6040307    0.0194894    6.1627612  
H   -3.8880519    2.8007976    2.8402161  
H   -5.4670502    1.7722383    1.1874821  
C    2.3971438    2.0127888    3.1728260  
C    1.9431056    1.6308205    1.9564670  
C    0.8496017    0.7127664    2.2356185  
C    0.7794028    0.6545384    3.7115134  
N    1.6840587    1.4146091    4.2663826  
C   -0.1885723   -0.1578550    4.3957118  
C   -1.0476298   -0.8789867    3.6398520  
O   -2.0015663   -1.6796266    4.1448486  
C   -1.0022026   -0.8410666    2.1483229  
O   -1.8147390   -1.5232959    1.5241687  
C    0.0000000    0.0000000    1.4700000  
H    2.3054237    1.9346118    0.9892483  
H   -0.2170646   -0.1815267    5.4753125  
H   -2.4487139   -2.0549881    3.3649027  
H    3.2048689    2.6911772    3.3971983  
