62

C    3.3003538    0.0005277   -1.4738997  
C    2.5232800    0.0003498   -2.6090755  
C    1.1623189   -0.0001317   -2.1820104  
C    1.1711885    0.0000584   -0.7636143  
N    2.4852296   -0.0014919   -0.3662366  
C    0.0000000    0.0000000    0.0000000  
C   -1.2020388    0.0000520   -0.6806474  
O   -2.3759248    0.0003495    0.0157753  
C   -1.2314671   -0.0005110   -2.0955505  
O   -2.5054396   -0.0008035   -2.6250170  
C   -0.0764528   -0.0007270   -2.8495192  
H    2.8919941   -0.0005617   -3.6205310  
H    2.8036262    0.0088181    0.5858654  
H   -3.0835648    0.0000349   -0.6418809  
H   -2.4360068   -0.0011524   -3.5845911  
H   -0.1304109   -0.0013418   -3.9319085  
C    6.5323583    0.0028966   -4.4466895  
C    7.6043827    0.0022111   -3.6131201  
C    7.0889160    0.0013272   -2.2643690  
C    5.6181649    0.0015263   -2.3813358  
N    5.3453965    0.0028891   -3.7298484  
C    4.7630498    0.0004756   -1.3275417  
C    5.3290147   -0.0007198    0.0111956  
O    4.6424950   -0.0016577    1.0246014  
C    6.8840251   -0.0006990    0.1586630  
O    7.3720527   -0.0013931    1.2807547  
C    7.7018213    0.0002121   -1.0517341  
H    8.6382616    0.0024954   -3.9092761  
H    6.5095784    0.0036233   -5.5243582  
H    4.4257310    0.0017850   -4.1314211  
C   10.9574151    2.1255234   -3.2594080  
C    9.7345920    1.6631925   -2.8311285  
C    9.9831397    0.7744933   -1.7434530  
C   11.3879608    0.7340324   -1.5517091  
N   11.9494429    1.5641168   -2.4899598  
C   11.9938232   -0.0434043   -0.5600880  
C   11.1664330   -0.7934286    0.2529729  
O   11.7054305   -1.5701331    1.2374652  
C    9.7624621   -0.7665761    0.0770117  
O    9.0755069   -1.5680162    0.9653412  
C    9.1640947   -0.0000558   -0.9012156  
H    8.7808504    1.9324049   -3.2517169  
H   12.9317441    1.7454916   -2.5908007  
H   13.0639147   -0.0787037   -0.4088993  
H   10.9640731   -2.0035472    1.6799639  
H    8.1347813   -1.4923475    0.7784873  
H   11.2005423    2.8102187   -4.0537887  
C    0.8681109    0.7263879    2.2709268  
C    0.6127770    0.5096195    3.5869401  
C   -0.4920590   -0.4175482    3.6542670  
C   -0.8620974   -0.7254003    2.2596025  
N    0.0000000    0.0000000    1.4700000  
C   -1.8641242   -1.5660088    1.8976294  
C   -2.6293522   -2.2103885    2.9520183  
O   -3.5512764   -2.9839180    2.7283916  
C   -2.2549728   -1.8987399    4.4361073  
O   -2.8923672   -2.4351063    5.3323774  
C   -1.1543735   -0.9755647    4.7012123  
H    1.1382914    0.9492124    4.4159191  
H   -2.1192137   -1.7782617    0.8686553  
H   -0.9013378   -0.7652422    5.7314848  
H    1.6172880    1.3558399    1.8188057  
