58

C    4.2280224    0.5609076   -8.6040237  
C    5.3006052   -0.2718855   -8.6138329  
C    5.8267799   -0.2648367   -9.9584261  
C    4.9666702    0.6468875  -10.7367321  
N    4.0167544    1.1140007   -9.8578948  
C    5.1348841    0.9250382  -12.0543208  
C    6.2364470    0.2834707  -12.7525234  
O    6.4711617    0.4691289  -13.9394270  
C    7.1598570   -0.6860274  -11.9480405  
O    8.0903084   -1.2322264  -12.5252662  
C    6.8784749   -0.9063067  -10.5316537  
H    5.6797962   -0.8278363   -7.7749379  
H    4.4926716    1.5969843  -12.6065537  
H    7.5226604   -1.5788678   -9.9817355  
H    3.2842046    1.7590689  -10.0909313  
C    4.1774647   -0.7039260   -4.3991477  
C    3.1006054    0.0006263   -3.9654951  
C    2.5992403    0.7428150   -5.0980253  
C    3.4785679    0.4104973   -6.2351876  
N    4.4147932   -0.4705968   -5.7452436  
C    3.3361164    0.9100879   -7.4889112  
C    2.2439825    1.8371250   -7.7346381  
O    2.0321281    2.3416470   -8.8295706  
C    1.3005628    2.2033754   -6.5448385  
O    0.3778225    2.9830418   -6.7395979  
C    1.5546721    1.6002371   -5.2388884  
H    0.8967559    1.8588592   -4.4203626  
H    4.8177810   -1.3738065   -3.8485618  
H    5.1550885   -0.8824329   -6.2832024  
C    3.2798083    0.0005857   -1.4499652  
C    2.5571142    0.0005565   -2.5996556  
C    1.1637432    0.0001548   -2.2210361  
C    1.1336964   -0.0000200   -0.7459473  
N    2.4483512   -0.0001428   -0.3402723  
C    0.0000000    0.0000000    0.0000000  
C   -1.2757368   -0.0000186   -0.6964415  
O   -2.3524598   -0.0000639   -0.1142311  
C   -1.2676497   -0.0000872   -2.2584083  
O   -2.3355766   -0.0004101   -2.8557295  
C    0.0181558    0.0001758   -2.9516296  
H    0.0150788    0.0003319   -4.0331631  
H    4.3498547    0.0008612   -1.3200026  
H    2.7563626    0.0012823    0.6148059  
C    0.8175213    0.6860729    2.3021913  
C    0.0000000    0.0000000    1.4700000  
C   -0.8887526   -0.7456559    2.3478473  
C   -0.4549825   -0.3816753    3.7138435  
N    0.5448156    0.4573574    3.6934124  
C   -1.0945674   -0.9182058    4.8835240  
C   -2.1210866   -1.7789155    4.6970523  
O   -2.8083856   -2.3554314    5.6976972  
C   -2.5824069   -2.1655116    3.3310774  
O   -3.5227682   -2.9541547    3.2362962  
C   -1.9100805   -1.6015804    2.1470656  
H   -0.7567140   -0.6349833    5.8697035  
H   -3.4728268   -2.9124471    5.2533954  
H   -2.2742832   -1.9066565    1.1752040  
H    1.6189533    1.3585343    2.0405121  
