60

C   -1.1187828    0.0135304   -0.8003805  
C    0.0000000    0.0000000    0.0000000  
C    1.1322818   -0.0154155   -0.8673525  
C    0.6381884   -0.0101550   -2.1969277  
N   -0.7323907    0.0055474   -2.1202239  
C    1.4769347   -0.0216789   -3.3154806  
C    2.8392870   -0.0385187   -3.0876856  
O    3.7035839   -0.0499545   -4.1440346  
C    3.3514932   -0.0443882   -1.7684330  
O    4.7296441   -0.0619116   -1.7073123  
C    2.5246348   -0.0333000   -0.6644816  
H   -1.3574476    0.0230317   -2.9057039  
H    4.5935974   -0.0611124   -3.7685130  
H    4.9930397   -0.0647802   -0.7819912  
H    2.9460084   -0.0383537    0.3339657  
H   -2.1618233    0.0267980   -0.5342064  
C    0.9734975   -0.0165350   -4.6965757  
C   -0.3136508   -0.0007371   -5.1144023  
C   -0.2364583   -0.0029520   -6.5671710  
C    1.2121601   -0.0212779   -6.8634010  
N    1.9264113   -0.0293864   -5.7708039  
C    1.7132980   -0.0287362   -8.2102090  
C    0.8083966   -0.0187476   -9.2153902  
O    1.1346533   -0.0240276  -10.5190657  
C   -0.6601756   -0.0005809   -8.9486948  
O   -1.4262068    0.0078831   -9.9122012  
C   -1.1492653    0.0068178   -7.5584926  
H   -1.2053650    0.0108828   -4.5112542  
H    0.2809386   -0.0141472  -10.9883483  
H   -2.2203760    0.0199073   -7.4075620  
C    4.1137913   -0.7438490   -7.8035556  
C    3.1609189   -0.0467314   -8.4650997  
C    3.8804310    0.6891103   -9.4933703  
C    5.2963868    0.3079528   -9.3026540  
N    5.4393486   -0.5318783   -8.3135961  
C    6.3439315    0.8308353  -10.1359181  
C    5.9928489    1.6949043  -11.1154381  
O    6.8661477    2.2598914  -11.9664257  
C    4.5724137    2.0987060  -11.3333145  
O    4.3256822    2.8894956  -12.2438065  
C    3.5160974    1.5485639  -10.4652918  
H    7.3702108    0.5351860   -9.9738903  
H    6.3202225    2.8230432  -12.5443343  
H    2.4996170    1.8659191  -10.6557746  
H    3.9868229   -1.4139476   -6.9681990  
C    2.5128556    2.1077716    2.9199648  
C    1.9592212    1.6432552    4.0696553  
C    0.8915788    0.7479214    3.6910360  
C    0.8684491    0.7287414    2.2159470  
N    1.8754542    1.5738793    1.8102719  
C    0.0000000    0.0000000    1.4700000  
C   -0.9772830   -0.8200135    2.1664417  
O   -1.8021297   -1.5120829    1.5842315  
C   -0.9711318   -0.8147624    3.7284083  
O   -1.7894187   -1.5009653    4.3257297  
C    0.0140216    0.0115358    4.4216297  
H    2.2638494    1.8988021    5.0689105  
H    0.0117648    0.0094386    5.5031631  
H    3.3327358    2.7953732    2.7900019  
H    2.1123206    1.7707734    0.8551938  
