62

C    3.3003541    0.0005275   -1.4738995  
C    2.5232805    0.0003496   -2.6090753  
C    1.1623196   -0.0001319   -2.1820102  
C    1.1711887    0.0000582   -0.7636142  
N    2.4852300   -0.0014920   -0.3662365  
C    0.0000000    0.0000000    0.0000000  
C   -1.2020389    0.0000519   -0.6806476  
O   -2.3759249    0.0003495    0.0157752  
C   -1.2314650   -0.0005112   -2.0955502  
O   -2.5054397   -0.0008036   -2.6250172  
C   -0.0764522   -0.0007272   -2.8495192  
H    2.8919946   -0.0005621   -3.6205310  
H    2.8036265    0.0088181    0.5858655  
H   -3.0835641    0.0000348   -0.6418809  
H   -2.4360065   -0.0011528   -3.5845912  
H   -0.1304103   -0.0013422   -3.9319084  
C    6.6264009    0.0032392   -4.4617188  
C    5.3881243    0.0032370   -3.8624381  
C    5.6076638    0.0015204   -2.4530413  
C    7.0115521    0.0008108   -2.2504966  
N    7.6002624   -0.0000641   -3.4906726  
C    7.5921587   -0.0005634   -0.9786150  
C    6.7400255   -0.0009266    0.1086047  
O    7.2537887   -0.0019040    1.3731445  
C    5.3365285   -0.0006068   -0.0730906  
O    4.6231717   -0.0014619    1.1077842  
C    4.7630498    0.0004754   -1.3275416  
H    4.4428874    0.0032321   -4.3777261  
H    8.5891796    0.0098628   -3.6636629  
H    6.4980467   -0.0022989    1.9749074  
H    3.6846511   -0.0011488    0.8961665  
H    6.8919786    0.0038901   -5.5049958  
C    9.0457536   -0.0015023   -0.7596128  
C   10.0287367   -0.0012705   -1.6898400  
C   11.2673260   -0.0025451   -0.9266919  
C   10.8339971   -0.0033486    0.4871006  
N    9.5327929   -0.0028233    0.5913000  
C   11.7766193   -0.0047396    1.5717887  
C   13.0923268   -0.0056911    1.2583474  
O   14.0807897   -0.0070191    2.1688311  
C   13.5611372   -0.0052880   -0.1588251  
O   14.7737824   -0.0060847   -0.3702764  
C   12.5746486   -0.0038111   -1.2537050  
H    9.9260126   -0.0004386   -2.7615314  
H   11.4318641   -0.0050960    2.5955337  
H   14.9014747   -0.0074621    1.6438277  
H   12.9548447   -0.0036773   -2.2664642  
C    0.0000000    0.0000000    1.4700000  
C    1.0541688    0.0001722    2.3260392  
C    0.5103138    0.0000454    3.6635956  
C   -0.9576371   -0.0002459    3.5155732  
N   -1.2018458    0.0001392    2.1615969  
C   -1.8348311   -0.0008317    4.5510609  
C   -1.2972847   -0.0009736    5.9014604  
O   -2.0050672   -0.0014265    6.9001319  
C    0.2542623   -0.0004184    6.0817573  
O    0.7184670   -0.0002256    7.2139121  
C    1.0974552   -0.0000873    4.8889129  
H    2.0940752    0.0005483    2.0517982  
H   -2.9081052   -0.0011668    4.4207061  
H    2.1707277    0.0000911    5.0223670  
H   -2.1128194   -0.0014912    1.7406791  
