62

C   -1.0431249    0.4196812   -0.7919009  
C   -0.6998319    0.2634427   -2.1148551  
C    0.6184642   -0.2806037   -2.1414699  
C    1.0317008   -0.4364422   -0.7935545  
N    0.0000000    0.0000000    0.0000000  
C    2.2836259   -0.9493301   -0.4408234  
C    3.1337624   -1.3117809   -1.4675050  
O    4.3679665   -1.8184544   -1.1793451  
C    2.7397015   -1.1634914   -2.8186313  
O    3.6978189   -1.5688111   -3.7247610  
C    1.5049035   -0.6573333   -3.1673477  
H    2.6046246   -1.0704647    0.5845977  
H    4.7922907   -2.0027236   -2.0274360  
H    3.3523079   -1.4356516   -4.6127329  
H    1.2310468   -0.5551985   -4.2109231  
H   -1.9489777    0.7986165   -0.3505420  
C   -3.4568246    3.6911737   -2.9144241  
C   -2.5572344    2.8256409   -2.3364467  
C   -2.3411156    1.7668091   -3.2674503  
C   -3.1422291    2.0428023   -4.4049790  
N   -3.8081335    3.2173583   -4.1567723  
C   -3.1789038    1.2067701   -5.5250207  
C   -2.3923020    0.0715994   -5.4963346  
O   -2.3899863   -0.7792271   -6.5636217  
C   -1.5865349   -0.2211362   -4.3703403  
O   -0.8611319   -1.3880938   -4.4942146  
C   -1.5500667    0.6030395   -3.2649309  
H   -2.1124379    2.9424203   -1.3630446  
H   -4.4430703    3.6694266   -4.7896000  
H   -3.7874629    1.4114353   -6.3950611  
H   -1.7825568   -1.4963151   -6.3398371  
H   -0.3446495   -1.5117673   -3.6919962  
C   -2.9017954    5.8903219    0.8739951  
C   -2.8319734    4.9842935   -0.1351196  
C   -3.7135398    5.4490768   -1.1799415  
C   -4.3069106    6.7092021   -0.6933354  
N   -3.7741688    6.9206052    0.5574186  
C   -5.1953363    7.4607355   -1.3916199  
C   -5.5938883    6.9974791   -2.7103636  
O   -6.3882940    7.6036150   -3.4173427  
C   -4.9782456    5.6654301   -3.2455598  
O   -5.3064996    5.2652684   -4.3543341  
C   -4.0302212    4.9434421   -2.4006721  
H   -2.2315834    4.0920928   -0.1462147  
H   -5.6185628    8.3821570   -1.0164226  
H   -2.3895119    5.8919357    1.8223898  
H   -3.9849187    7.7038443    1.1483230  
C    2.5128556    2.1077716    2.9199648  
C    1.9592212    1.6432552    4.0696553  
C    0.8915788    0.7479214    3.6910360  
C    0.8684491    0.7287414    2.2159470  
N    1.8754542    1.5738793    1.8102719  
C    0.0000000    0.0000000    1.4700000  
C   -0.9772830   -0.8200135    2.1664417  
O   -1.8021297   -1.5120829    1.5842315  
C   -0.9711318   -0.8147624    3.7284083  
O   -1.7894187   -1.5009653    4.3257297  
C    0.0140216    0.0115358    4.4216297  
H    2.2638494    1.8988021    5.0689105  
H    0.0117648    0.0094386    5.5031631  
H    3.3327358    2.7953732    2.7900019  
H    2.1123206    1.7707734    0.8551938  
