60

C    3.3041273    0.0001178   -1.5420433  
C    2.5845371   -0.0004779   -0.3695855  
C    1.2040005   -0.0000007   -0.7283590  
C    1.1422373    0.0006039   -2.1454374  
N    2.4348643    0.0026112   -2.6077462  
C   -0.0655181    0.0008799   -2.8497921  
C   -1.2321766    0.0002325   -2.1101401  
O   -2.4392815    0.0001147   -2.7472520  
C   -1.1911210   -0.0000007   -0.6955265  
O   -2.4371527   -0.0002321   -0.1032862  
C    0.0000000    0.0000000    0.0000000  
H    3.0031537   -0.0000660    0.6222583  
H    2.7054631   -0.0071096   -3.5745262  
H   -3.1132985   -0.0000648   -2.0551790  
H   -2.3200283   -0.0004072    0.8516409  
H    4.3686621    0.0004072   -1.7024296  
C   -0.1387080    0.0017018   -4.3179685  
C    0.8847660    0.0023482   -5.2034512  
C    0.2487269    0.0030114   -6.5118682  
C   -1.2011845    0.0025368   -6.2214537  
N   -1.4344179    0.0018496   -4.9370903  
C   -2.1866332    0.0030151   -7.2673871  
C   -1.7437544    0.0043151   -8.5453513  
O   -2.5513001    0.0048875   -9.6195538  
C   -0.2869473    0.0051951   -8.8707332  
O    0.0441878    0.0062441  -10.0563001  
C    0.7042754    0.0046374   -7.7801361  
H    1.9409052    0.0024621   -4.9945362  
H   -3.2396163    0.0024445   -7.0262734  
H   -1.9471958    0.0058404  -10.3838898  
C    2.1250955    0.0057049   -8.1571895  
C    3.2228894    0.0052348   -7.3578625  
C    4.3761978    0.0068072   -8.2266035  
C    3.8565990    0.0082714   -9.6074752  
N    2.4852819    0.0071162   -9.4962202  
C    4.6324436    0.0103743  -10.7209220  
C    6.0755443    0.0110279  -10.5477358  
O    6.8592584    0.0128233  -11.4879966  
C    6.6477805    0.0092503   -9.0943439  
O    7.8611272    0.0094747   -8.9360663  
C    5.7111223    0.0073176   -7.9733982  
H    3.2245586    0.0037525   -6.2824049  
H    4.2311553    0.0115509  -11.7248529  
H    6.1154057    0.0062999   -6.9702640  
H    1.8447810    0.0092355  -10.2687495  
C    2.4951002    2.0940188    2.9809380  
C    1.9440701    1.6314916    1.8291961  
C    0.8759964    0.7350050    2.2038498  
C    0.8497377    0.7130254    3.6788474  
N    1.8560616    1.5571714    4.0882609  
C   -0.0205033   -0.0168748    4.4215661  
C   -0.9962600   -0.8356168    3.7214979  
O   -1.8224391   -1.5286685    4.3006425  
C   -0.9864710   -0.8277881    2.1595606  
O   -1.8030528   -1.5133726    1.5592035  
C    0.0000000    0.0000000    1.4700000  
H    2.2509283    1.8888011    0.8310761  
H   -0.0229599   -0.0187323    5.5027230  
H    3.3143982    2.7817323    3.1139444  
H    2.0889452    1.7545833    5.0442112  
