58

C    0.0000000    0.0000000    0.0000000  
C    1.0541695   -0.0001726   -0.8560386  
C    0.5103151   -0.0000458   -2.1935953  
C   -0.9576359    0.0002459   -2.0455738  
N   -1.2018449   -0.0001390   -0.6915975  
C   -1.8348293    0.0008319   -3.0810619  
C   -1.2972818    0.0009733   -4.4314613  
O   -2.0050638    0.0014264   -5.4301328  
C    0.2542655    0.0004178   -4.6117575  
O    0.7184709    0.0002251   -5.7439116  
C    1.0974573    0.0000868   -3.4189125  
H    2.0940753   -0.0005489   -0.5817971  
H    2.1707297   -0.0000919   -3.5523659  
H   -2.1128189    0.0014915   -0.2706803  
C   -4.3137490    2.1424318   -0.2077357  
C   -5.5591237    1.7353221   -0.5466788  
C   -5.3648092    0.8246411   -1.6644453  
C   -3.9011700    0.7979212   -1.8733240  
N   -3.2797676    1.5684042   -1.0223221  
C   -3.2941053    0.0012877   -2.9038258  
C   -4.1120037   -0.7354731   -3.6896760  
O   -3.6822266   -1.5242477   -4.6892590  
C   -5.5930481   -0.7299481   -3.5035632  
O   -6.2763240   -1.4248010   -4.2555837  
C   -6.1916567    0.0955204   -2.4395173  
H   -6.4941446    2.0180146   -0.0940235  
H   -4.4926412   -1.9161853   -5.0617716  
H   -4.0287170    2.8244784    0.5774666  
C   -8.4882964    1.0959274   -2.0348497  
C   -7.6547222    0.0633920   -2.3005646  
C   -8.5226717   -1.0979190   -2.4210594  
C   -9.8850372   -0.5703027   -2.1926618  
N   -9.8711936    0.7151332   -1.9658305  
C  -11.0450634   -1.4177317   -2.2285739  
C  -10.8528650   -2.7324163   -2.4815537  
O  -11.8443473   -3.6374323   -2.5443977  
C   -9.4903805   -3.2950554   -2.7165753  
O   -9.3899806   -4.5011912   -2.9410227  
C   -8.3162968   -2.4052902   -2.6744776  
H  -12.0287604   -1.0052935   -2.0578563  
H  -11.3978728   -4.4812459   -2.7387985  
H   -7.3466996   -2.8517087   -2.8500360  
H   -8.2330469    2.1316082   -1.8761454  
C    3.2798086   -0.0005857    2.9199648  
C    2.5571146   -0.0005566    4.0696553  
C    1.1637436   -0.0001548    3.6910360  
C    1.1336965    0.0000200    2.2159470  
N    2.4483514    0.0001428    1.8102719  
C    0.0000000    0.0000000    1.4700000  
C   -1.2757367    0.0000186    2.1664417  
O   -2.3524596    0.0000640    1.5842315  
C   -1.2676493    0.0000873    3.7284083  
O   -2.3355761    0.0004100    4.3257297  
C    0.0181563   -0.0001760    4.4216297  
H    2.9547357   -0.0006076    5.0689105  
H    0.0150794   -0.0003319    5.5031631  
H    4.3498549   -0.0008612    2.7900019  
H    2.7563627   -0.0012824    0.8551938  
