60

C    0.0000000    0.0000000    0.0000000  
C    1.0521670   -0.0011919   -0.8862342  
C    0.4917223   -0.0011964   -2.1979131  
C   -0.9187421    0.0003160   -2.0478687  
N   -1.1833164   -0.0009395   -0.7007918  
C   -1.7951689    0.0010375   -3.1372099  
C   -1.2375821    0.0005241   -4.4010433  
O   -2.0474197    0.0015388   -5.4997590  
C    0.1673600   -0.0013571   -4.5711965  
O    0.5673544   -0.0020698   -5.8915553  
C    1.0325779   -0.0023428   -3.4969889  
H    2.0953060   -0.0030681   -0.6200556  
H   -2.0989773    0.0102402   -0.2891833  
H   -1.4634865    0.0006518   -6.2693599  
H    1.5290736   -0.0033179   -5.9180045  
H    2.1042161   -0.0039640   -3.6584449  
C   -4.5107076    2.0951330   -0.3556552  
C   -3.4200295    1.6321287   -1.0190736  
C   -3.9000899    0.7371487   -2.0454207  
C   -5.3703952    0.7165734   -1.9247152  
N   -5.6767082    1.5600108   -0.8817983  
C   -6.1968221   -0.0116911   -2.7174027  
C   -5.5982295   -0.8300289   -3.7588177  
O   -6.2574702   -1.5216451   -4.5239124  
C   -4.0430709   -0.8236675   -3.9045812  
O   -3.5277081   -1.5089273   -4.7775535  
C   -3.2578642    0.0024087   -2.9908519  
H   -2.3960516    1.8881747   -0.8128629  
H   -7.2728535   -0.0125376   -2.6122056  
H   -4.5607691    2.7820827    0.4734911  
C   -7.4453756    5.3159911    0.4418043  
C   -8.7082115    4.9420843    0.7532843  
C   -8.7569724    3.5154179    0.4726683  
C   -7.4003201    3.1846841   -0.0138427  
N   -6.6270252    4.2361575   -0.0340497  
C   -7.0358069    1.8501255   -0.4026493  
C   -7.9833959    0.8895559   -0.3092943  
O   -7.7820291   -0.3978558   -0.6380238  
C   -9.3614524    1.1918091    0.1783176  
O  -10.1731359    0.2682767    0.2372927  
C   -9.7108354    2.5685932    0.5711559  
H   -9.5078578    5.5582843    1.1273661  
H   -8.6356754   -0.8343568   -0.4650858  
H  -10.7195620    2.7462812    0.9191876  
H   -7.0077675    6.2992084    0.5107685  
C    0.0000000    0.0000000    1.4700000  
C    1.0541688    0.0001722    2.3260392  
C    0.5103138    0.0000454    3.6635956  
C   -0.9576371   -0.0002459    3.5155732  
N   -1.2018458    0.0001392    2.1615969  
C   -1.8348311   -0.0008317    4.5510609  
C   -1.2972847   -0.0009736    5.9014604  
O   -2.0050672   -0.0014265    6.9001319  
C    0.2542623   -0.0004184    6.0817573  
O    0.7184670   -0.0002256    7.2139121  
C    1.0974552   -0.0000873    4.8889129  
H    2.0940752    0.0005483    2.0517982  
H   -2.9081052   -0.0011668    4.4207061  
H    2.1707277    0.0000911    5.0223670  
H   -2.1128194   -0.0014912    1.7406791  
