58

C   -1.0965411   -0.0047682   -0.8010304  
C    0.0000000    0.0000000    0.0000000  
C    1.1546467    0.0047310   -0.8669507  
C    0.6371974    0.0023400   -2.2486280  
N   -0.7342774   -0.0038359   -2.1395010  
C    1.4147618    0.0058416   -3.3608711  
C    2.8575794    0.0121770   -3.1854457  
O    3.6427446    0.0156386   -4.1244900  
C    3.4275535    0.0145528   -1.7311659  
O    4.6406411    0.0195718   -1.5710053  
C    2.4891633    0.0106250   -0.6116745  
H    1.0150363    0.0041267   -4.3654243  
H    2.8918856    0.0125091    0.3920872  
H   -2.1388077   -0.0091019   -0.5261643  
C   -1.6707544   -0.0058239   -3.2725972  
C   -3.0236022   -0.0105688   -3.2357226  
C   -3.4368403   -0.0104559   -4.6306178  
C   -2.1706870   -0.0050937   -5.3944315  
N   -1.1320373   -0.0024410   -4.6037422  
C   -2.1489311   -0.0034348   -6.8313065  
C   -3.3380071   -0.0073608   -7.4758348  
O   -3.4666386   -0.0063886   -8.8135546  
C   -4.6328403   -0.0131836   -6.7331811  
O   -5.6771004   -0.0164153   -7.3848963  
C   -4.6287263   -0.0147391   -5.2594430  
H   -3.6622287   -0.0138423   -2.3689921  
H   -1.2090241    0.0007142   -7.3637227  
H   -4.4282033   -0.0099908   -8.9701840  
C   -6.0629250    2.0836615   -1.6785033  
C   -7.3364213    1.6139583   -1.6377492  
C   -7.4912122    0.7191198   -2.7603090  
C   -6.1941970    0.7058830   -3.4634213  
N   -5.3719997    1.5536385   -2.7575949  
C   -5.9318556   -0.0206841   -4.5792090  
C   -6.9981604   -0.8444624   -5.1241115  
O   -6.8609402   -1.5349774   -6.1254408  
C   -8.3799916   -0.8455224   -4.3958621  
O   -9.2853936   -1.5349349   -4.8455483  
C   -8.5419826   -0.0210719   -3.2009177  
H   -8.0823106    1.8657594   -0.9050429  
H   -9.5017789   -0.0275453   -2.7024467  
H   -5.5710964    2.7725841   -1.0111352  
H   -4.4165257    1.7546251   -2.9893734  
C    2.4951002    2.0940188    2.9809380  
C    1.9440701    1.6314916    1.8291961  
C    0.8759964    0.7350050    2.2038498  
C    0.8497377    0.7130254    3.6788474  
N    1.8560616    1.5571714    4.0882609  
C   -0.0205033   -0.0168748    4.4215661  
C   -0.9962600   -0.8356168    3.7214979  
O   -1.8224391   -1.5286685    4.3006425  
C   -0.9864710   -0.8277881    2.1595606  
O   -1.8030528   -1.5133726    1.5592035  
C    0.0000000    0.0000000    1.4700000  
H    2.2509283    1.8888011    0.8310761  
H   -0.0229599   -0.0187323    5.5027230  
H    3.3143982    2.7817323    3.1139444  
H    2.0889452    1.7545833    5.0442112  
