62

C    1.3178873    2.2643457   -5.4060706  
C    1.2148255    1.3093498   -4.4212716  
C    0.7302758    0.1206099   -5.0431318  
C    0.5547926    0.4129761   -6.4199590  
N    0.9188611    1.7235078   -6.6059127  
C    0.0883053   -0.5307657   -7.3400296  
C   -0.2061125   -1.7927255   -6.8615382  
O   -0.6646643   -2.7525560   -7.7167991  
C   -0.0379208   -2.1035362   -5.4911642  
O   -0.3744317   -3.4024741   -5.1704422  
C    0.4219804   -1.1729286   -4.5828760  
H    1.4578267    1.4522787   -3.3822748  
H    0.9094427    2.2094018   -7.4844335  
H   -0.0477462   -0.3141736   -8.3906386  
H   -0.8059811   -3.5468416   -7.1853818  
H   -0.2320673   -3.5295652   -4.2274767  
C   -0.4296497    1.0390589   -0.7919008  
C   -0.3012031    0.6844299   -2.1148545  
C    0.2320263   -0.6382786   -2.1414698  
C    0.4096798   -1.0426175   -0.7935544  
N    0.0000000    0.0000000    0.0000000  
C    0.9187561   -2.2960969   -0.4408238  
C    1.2543255   -3.1571986   -1.4675055  
O    1.7554487   -4.3936664   -1.1793464  
C    1.0846890   -2.7718449   -2.8186319  
O    1.4651454   -3.7401038   -3.7247614  
C    0.5827820   -1.5353121   -3.1673478  
H   -0.5589726    1.3034088   -2.9571208  
H    1.0566986   -2.6102401    0.5845968  
H    1.9205376   -4.8258140   -2.0274373  
H    1.3186526   -3.4000315   -4.6127338  
H   -0.7924075    1.9515103   -0.3505413  
C    2.7318900    4.7548470   -2.0453519  
C    2.2704990    3.7352616   -2.8145327  
C    2.1637798    4.2401810   -4.1630515  
C    2.6040017    5.6475874   -4.1161241  
N    2.9344450    5.8976013   -2.8041825  
C    2.6496406    6.4751656   -5.1907103  
C    2.2374802    5.9443590   -6.4794706  
O    2.2426662    6.6101800   -7.5065812  
C    1.7673354    4.4565929   -6.5524167  
O    1.4177015    3.9987020   -7.6319317  
C    1.7619559    3.6633661   -5.3257894  
H    2.0319495    2.7427865   -2.4758581  
H    2.9759069    7.5044008   -5.1347134  
H    2.9407785    4.7676195   -0.9879532  
H    3.2727669    6.7744845   -2.4525275  
C    2.3971438    2.0127888    3.1728260  
C    1.9431056    1.6308205    1.9564670  
C    0.8496017    0.7127664    2.2356185  
C    0.7794028    0.6545384    3.7115134  
N    1.6840587    1.4146091    4.2663826  
C   -0.1885723   -0.1578550    4.3957118  
C   -1.0476298   -0.8789867    3.6398520  
O   -2.0015663   -1.6796266    4.1448486  
C   -1.0022026   -0.8410666    2.1483229  
O   -1.8147390   -1.5232959    1.5241687  
C    0.0000000    0.0000000    1.4700000  
H    2.3054237    1.9346118    0.9892483  
H   -0.2170646   -0.1815267    5.4753125  
H   -2.4487139   -2.0549881    3.3649027  
H    3.2048689    2.6911772    3.3971983  
