58

C    7.0644383    0.0010574    2.6684676  
C    5.8063320    0.0007740    3.1795862  
C    5.9361521    0.0007217    4.6176343  
C    7.3833959    0.0010293    4.9044695  
N    8.0121246    0.0008236    3.6807088  
C    7.9202005    0.0014754    6.1508825  
C    7.0119490    0.0014392    7.2856136  
O    7.3974622    0.0017577    8.4473714  
C    5.4753290    0.0008637    7.0052506  
O    4.7009198    0.0005215    7.9526424  
C    5.0169693    0.0006931    5.6182545  
H    4.8917329    0.0004368    2.6137933  
H    8.9847939    0.0018254    6.3394318  
H    3.9514730    0.0004994    5.4326702  
H    9.0062821    0.0025077    3.5439781  
C    4.7795901    0.0008674   -1.0815733  
C    5.8063533    0.0010476   -1.9702985  
C    7.0285665    0.0013958   -1.2015143  
C    6.6268086    0.0013745    0.2181270  
N    5.2509927    0.0014465    0.2224664  
C    7.4934504    0.0012528    1.2624628  
C    8.9169020    0.0013609    0.9686573  
O    9.7768349    0.0013265    1.8397569  
C    9.3650172    0.0016372   -0.5276709  
O   10.5607782    0.0020368   -0.7873195  
C    8.3375015    0.0014690   -1.5659688  
H    5.7176695    0.0011303   -3.0420956  
H    8.6560847    0.0014568   -2.5995201  
H    4.6776560   -0.0001048    1.0460742  
C    3.3321168    0.0004716   -1.3379341  
C    2.6974177    0.0000118   -2.5332316  
C    1.2800432   -0.0002116   -2.2052842  
C    1.2395033    0.0000644   -0.7271298  
N    2.4394059    0.0005460   -0.2131041  
C    0.0000000    0.0000000    0.0000000  
C   -1.1468704    0.0000635   -0.7169542  
O   -2.3742206    0.0000074   -0.1695488  
C   -1.1388774    0.0001608   -2.2096352  
O   -2.2206238    0.0000906   -2.7970409  
C    0.1454514    0.0001818   -2.9324241  
H    3.1367978   -0.0000649   -3.5160956  
H   -2.9844350    0.0001027   -0.9290164  
H    0.1083567    0.0003684   -4.0135594  
C    0.8681109    0.7263879    2.2709268  
C    0.6127770    0.5096195    3.5869401  
C   -0.4920590   -0.4175482    3.6542670  
C   -0.8620974   -0.7254003    2.2596025  
N    0.0000000    0.0000000    1.4700000  
C   -1.8641242   -1.5660088    1.8976294  
C   -2.6293522   -2.2103885    2.9520183  
O   -3.5512764   -2.9839180    2.7283916  
C   -2.2549728   -1.8987399    4.4361073  
O   -2.8923672   -2.4351063    5.3323774  
C   -1.1543735   -0.9755647    4.7012123  
H    1.1382914    0.9492124    4.4159191  
H   -2.1192137   -1.7782617    0.8686553  
H   -0.9013378   -0.7652422    5.7314848  
H    1.6172880    1.3558399    1.8188057  
