58

C   -3.2797450    0.0205751   -1.4499629  
C   -2.5570669    0.0159416   -2.5996540  
C   -1.1637221    0.0073536   -2.2210353  
C   -1.1336735    0.0073344   -0.7459465  
N   -2.4482997    0.0159391   -0.3402709  
C    0.0000000    0.0000000    0.0000000  
C    1.2757100   -0.0082120   -0.6964427  
O    2.3524103   -0.0151136   -0.1142329  
C    1.2676212   -0.0080911   -2.2584092  
O    2.3355287   -0.0146583   -2.8557313  
C   -0.0181585   -0.0000586   -2.9516297  
H   -2.9546801    0.0184560   -3.5989086  
H   -0.0150837   -0.0002343   -4.0331631  
H   -2.7563136    0.0165011    0.6148077  
C   -6.6316000    0.0433678   -4.3241550  
C   -5.4015458    0.0353565   -3.7488484  
C   -5.6053400    0.0358290   -2.3194069  
C   -7.0654206    0.0448077   -2.1075730  
N   -7.6301978    0.0494415   -3.3621230  
C   -7.6657713    0.0474727   -0.8904960  
C   -6.8172562    0.0412971    0.2895547  
O   -7.2621535    0.0431351    1.4298896  
C   -5.2682524    0.0320060    0.0887927  
O   -4.5437376    0.0270575    1.0748525  
C   -4.7389932    0.0296143   -1.2727253  
H   -4.4590065    0.0299377   -4.2667323  
H   -8.7386510    0.0539603   -0.7570877  
H   -6.8925978    0.0455625   -5.3699876  
C   -9.7072386   -0.6449578   -4.6126092  
C   -9.0742081    0.0564616   -3.6372333  
C  -10.0877841    0.8034384   -2.9304629  
C  -11.3724202    0.4773447   -3.5786627  
N  -11.0727876   -0.4050840   -4.5908037  
C  -12.5741011    0.9826581   -3.2014013  
C  -12.6042022    1.9097270   -2.0823961  
O  -13.6368038    2.4191577   -1.6670451  
C  -11.2555850    2.2694415   -1.3812231  
O  -11.2684127    3.0490748   -0.4382133  
C  -10.0242557    1.6604502   -1.8780218  
H  -13.5048174    0.7303529   -3.6902969  
H   -9.0947567    1.9145668   -1.3869199  
H   -9.2910341   -1.3167598   -5.3456477  
H  -11.7431246   -0.8136438   -5.2159238  
C    0.8400945    0.7047457    2.2710304  
C    0.0000000    0.0000000    1.4700000  
C   -0.8844236   -0.7423113    2.3369512  
C   -0.4878984   -0.4098547    3.7186280  
N    0.5629682    0.4714286    3.6095011  
C   -1.0836927   -0.9095027    4.8308716  
C   -2.1891196   -1.8367527    4.6554461  
O   -2.7906899   -2.3413415    5.5944904  
C   -2.6257283   -2.2031529    3.2011665  
O   -3.5549479   -2.9829990    3.0410059  
C   -1.9068976   -1.5999348    2.0816745  
H   -0.7774656   -0.6525820    5.8354244  
H   -2.2155208   -1.8586617    1.0779135  
H    1.6384792    1.3747609    1.9961646  
H    1.0518368    0.8833920    4.3830260  
