62

C   -3.3003548    0.0018919   -1.4738969  
C   -2.5232825    0.0015001   -2.6090733  
C   -1.1623208    0.0009839   -2.1820094  
C   -1.1711891    0.0008003   -0.7636130  
N   -2.4852286    0.0033138   -0.3662345  
C    0.0000000    0.0000000    0.0000000  
C    1.2020379   -0.0009333   -0.6806481  
O    2.3759235   -0.0020914    0.0157739  
C    1.2314644   -0.0003917   -2.0955509  
O    2.5054372   -0.0010333   -2.6250184  
C    0.0764506    0.0006710   -2.8495194  
H   -2.8919961    0.0026821   -3.6205285  
H   -2.8036323   -0.0067627    0.5858680  
H    3.0835622   -0.0022955   -0.6418826  
H    2.4360033   -0.0006334   -3.5845928  
H    0.1304089    0.0012463   -3.9319084  
C   -6.7690617    0.0040220   -4.2725592  
C   -5.4996714    0.0037069   -3.8032749  
C   -5.6352797    0.0039648   -2.3547894  
C   -7.0947601    0.0045546   -2.1170927  
N   -7.7645144    0.0045100   -3.2375478  
C   -7.6497391    0.0049085   -0.7915422  
C   -6.7859632    0.0042944    0.2492387  
O   -7.1644538    0.0045358    1.5387290  
C   -5.3077369    0.0033192    0.0418565  
O   -4.5810503    0.0029224    1.0354093  
C   -4.7630504    0.0030164   -1.3275378  
H   -4.5843350    0.0032540   -4.3700507  
H   -8.7202876    0.0055446   -0.6471949  
H   -6.3302569    0.0039249    2.0419868  
C   -4.5386379    0.0028159   -8.1474612  
C   -4.8671703    0.0025377   -6.8115973  
C   -6.2914025    0.0034767   -6.7330959  
C   -6.7816062    0.0040227   -8.0641201  
N   -5.6910567    0.0055525   -8.8979772  
C   -8.1464546    0.0046807   -8.3673948  
C   -9.0325890    0.0044825   -7.3077050  
O  -10.3763488    0.0047502   -7.5471263  
C   -8.5628603    0.0043149   -5.9727247  
O   -9.5694734    0.0045522   -5.0292872  
C   -7.2165433    0.0039390   -5.6727948  
H   -4.1664947    0.0028595   -5.9942558  
H   -5.7275997   -0.0043174   -9.9012461  
H   -8.5264849    0.0052432   -9.3797093  
H  -10.8077041    0.0048452   -6.6827204  
H   -9.1672188    0.0043901   -4.1553336  
H   -3.5734475    0.0027246   -8.6242909  
C    0.0000000    0.0000000    1.4700000  
C    1.0541688    0.0001722    2.3260392  
C    0.5103138    0.0000454    3.6635956  
C   -0.9576371   -0.0002459    3.5155732  
N   -1.2018458    0.0001392    2.1615969  
C   -1.8348311   -0.0008317    4.5510609  
C   -1.2972847   -0.0009736    5.9014604  
O   -2.0050672   -0.0014265    6.9001319  
C    0.2542623   -0.0004184    6.0817573  
O    0.7184670   -0.0002256    7.2139121  
C    1.0974552   -0.0000873    4.8889129  
H    2.0940752    0.0005483    2.0517982  
H   -2.9081052   -0.0011668    4.4207061  
H    2.1707277    0.0000911    5.0223670  
H   -2.1128194   -0.0014912    1.7406791  
