58

C   -1.1319185    0.0039065   -0.8009265  
C   -0.7969986    0.0003587   -2.1169399  
C    0.6453096   -0.0066905   -2.1842666  
C    1.1266632   -0.0069899   -0.7896019  
N    0.0000000    0.0000000    0.0000000  
C    2.4345780   -0.0131657   -0.4276288  
C    3.4349559   -0.0197462   -1.4820178  
O    4.6383927   -0.0255204   -1.2583902  
C    2.9478379   -0.0193009   -2.9661066  
O    3.7808645   -0.0244992   -3.8623763  
C    1.5113395   -0.0126151   -3.2312122  
H    2.7664242   -0.0133968    0.6013454  
H    1.1823071   -0.0125561   -4.2614844  
H   -2.1104111    0.0092632   -0.3488058  
C   -1.7334723    0.0034555   -3.2500363  
C   -3.0863160    0.0092246   -3.2131614  
C   -3.4995527    0.0098873   -4.6080576  
C   -2.2334018    0.0040289   -5.3718712  
N   -1.1947562    0.0001597   -4.5811822  
C   -2.2116454    0.0028000   -6.8087468  
C   -3.4007218    0.0068339   -7.4532741  
O   -3.5293526    0.0062670   -8.7909942  
C   -4.6955553    0.0124132   -6.7106195  
O   -5.7398141    0.0160097   -7.3623332  
C   -4.6914412    0.0136155   -5.2368807  
H   -3.7249420    0.0125219   -2.3464303  
H   -4.4909183    0.0097917   -8.9476234  
H   -5.6504141    0.0175915   -4.7362963  
C    1.6036423   -2.1055297   -6.1052142  
C    0.3317368   -1.6379625   -6.0173946  
C    0.1347959   -0.7416379   -7.1321374  
C    1.4053258   -0.7252459   -7.8819882  
N    2.2542478   -1.5721436   -7.2074624  
C    1.6254921    0.0028560   -9.0058652  
C    0.5386394    0.8254207   -9.5105174  
O    0.6380541    1.5172449  -10.5154034  
C   -0.8155980    0.8235303   -8.7321587  
O   -1.7377595    1.5123690   -9.1473454  
C   -0.9326075   -0.0027996   -7.5332679  
H   -0.3864838   -1.8918335   -5.2582356  
H    2.5649965    0.0005979   -9.5408752  
H    2.1204948   -2.7947206   -5.4573184  
H    3.2000258   -1.7734730   -7.4758250  
C    2.5128556    2.1077716    2.9199648  
C    1.9592212    1.6432552    4.0696553  
C    0.8915788    0.7479214    3.6910360  
C    0.8684491    0.7287414    2.2159470  
N    1.8754542    1.5738793    1.8102719  
C    0.0000000    0.0000000    1.4700000  
C   -0.9772830   -0.8200135    2.1664417  
O   -1.8021297   -1.5120829    1.5842315  
C   -0.9711318   -0.8147624    3.7284083  
O   -1.7894187   -1.5009653    4.3257297  
C    0.0140216    0.0115358    4.4216297  
H    2.2638494    1.8988021    5.0689105  
H    0.0117648    0.0094386    5.5031631  
H    3.3327358    2.7953732    2.7900019  
H    2.1123206    1.7707734    0.8551938  
