60

C    0.8532113   -0.7025399   -5.2251463  
C    0.0139746    0.0003883   -4.4216235  
C   -0.8744123    0.7410328   -5.2859441  
C   -0.4811478    0.4095794   -6.6687928  
N    0.5718068   -0.4695908   -6.5627883  
C   -1.0811137    0.9081807   -7.7792625  
C   -2.1879113    1.8331656   -7.6005540  
O   -2.7931710    2.3366715   -8.5378069  
C   -2.6211216    2.1984715   -6.1449830  
O   -3.5514579    2.9764118   -5.9820625  
C   -1.8978899    1.5965481   -5.0276307  
H   -0.7772265    0.6520253   -8.7847201  
H   -2.2041792    1.8545051   -4.0229573  
H    1.6537294   -1.3709770   -4.9526533  
H    1.0593055   -0.8804520   -7.3377627  
C    3.2798087    0.0005858   -1.4499643  
C    2.5571149    0.0005569   -2.5996548  
C    1.1637440    0.0001551   -2.2210358  
C    1.1336966   -0.0000198   -0.7459468  
N    2.4483512   -0.0001426   -0.3402714  
C    0.0000000    0.0000000    0.0000000  
C   -1.2757369   -0.0000185   -0.6964416  
O   -2.3524599   -0.0000639   -0.1142315  
C   -1.2676492   -0.0000870   -2.2584080  
O   -2.3355760   -0.0004099   -2.8557298  
C    0.0181565    0.0001762   -2.9516296  
H    2.9547360    0.0006079   -3.5989102  
H    2.7563627    0.0012824    0.6148067  
C    6.8068836    0.0035028   -4.1746982  
C    5.5278600    0.0022336   -3.7323449  
C    5.6328285    0.0014355   -2.2813170  
C    7.0869596    0.0022994   -2.0128312  
N    7.7802417    0.0035931   -3.1188818  
C    7.6138029    0.0019137   -0.6758484  
C    6.7282250    0.0011080    0.3464464  
O    7.0793816    0.0006626    1.6436474  
C    5.2547115    0.0005953    0.1078717  
O    4.5071908   -0.0002581    1.0858453  
C    4.7390849    0.0009618   -1.2727274  
H    4.6247057    0.0019725   -4.3183375  
H    8.6810612    0.0023580   -0.5089097  
H    6.2347352    0.0001400    2.1291635  
H    7.1567966    0.0044022   -5.1947641  
C    0.8576279    0.7185626    2.2703808  
C    0.0000000    0.0000000    1.4700000  
C   -0.8668858   -0.7285659    2.3373528  
C   -0.4876752   -0.4117774    3.6669281  
N    0.5635254    0.4678311    3.5902241  
C   -1.1297612   -0.9515493    4.7854808  
C   -2.1738724   -1.8268314    4.5576857  
O   -2.8357962   -2.3827064    5.6140350  
C   -2.5667212   -2.1555554    3.2384331  
O   -3.6226318   -3.0413663    3.1773122  
C   -1.9335634   -1.6236449    2.1344818  
H    1.0363952    0.8769718    4.3757045  
H   -0.8454472   -0.7142436    5.8013813  
H   -3.5178062   -2.9546422    5.2385129  
H   -3.8247440   -3.2102924    2.2519915  
H   -2.2566033   -1.8942483    1.1360343  
H    1.6567807    1.3889844    2.0042067  
