60

C    3.3003553    0.0005277   -1.4738972  
C    2.5232826    0.0003499   -2.6090734  
C    1.1623211   -0.0001317   -2.1820095  
C    1.1711890    0.0000584   -0.7636139  
N    2.4852302   -0.0014919   -0.3662346  
C    0.0000000    0.0000000    0.0000000  
C   -1.2020381    0.0000521   -0.6806487  
O   -2.3759247    0.0003495    0.0157730  
C   -1.2314647   -0.0005110   -2.0955514  
O   -2.5054374   -0.0008035   -2.6250194  
C   -0.0764503   -0.0007270   -2.8495198  
H    2.8036263    0.0088182    0.5858675  
H   -3.0835633    0.0000349   -0.6418833  
H   -2.4360028   -0.0011526   -3.5845934  
H   -0.1304074   -0.0013418   -3.9319087  
H    4.3715555    0.0004894   -1.3667115  
C    5.8650080   -2.0107117   -4.7661418  
C    5.0212882   -1.6285493   -3.7793960  
C    4.0882060   -0.7127451   -4.4174869  
C    4.5276509   -0.6558962   -5.8282455  
N    5.5687246   -1.4147709   -6.0386380  
C    3.8513830    0.1541356   -6.8037440  
C    2.7843685    0.8743253   -6.3888445  
O    2.0599319    1.6727811   -7.1911545  
C    2.3162665    0.8377519   -4.9719100  
O    1.3381236    1.5190136   -4.6647624  
C    3.0267455   -0.0008949   -3.9901687  
H    5.0308654   -1.9308546   -2.7461506  
H    1.3721631    2.0479798   -6.6120577  
H    6.7017030   -2.6878025   -4.6993397  
C    5.3994262   -2.8601662   -9.6989104  
C    4.9112783   -2.3016080   -8.5669631  
C    4.7531621   -0.8903783   -8.8830792  
C    5.2054597   -0.7696809  -10.2857350  
N    5.5854072   -1.9211079  -10.7693111  
C    5.2040970    0.4885246  -10.9799995  
C    4.7702323    1.5766206  -10.3038751  
O    4.7151645    2.8130424  -10.8275832  
C    4.3070868    1.4870558   -8.8876713  
O    3.9256264    2.5182500   -8.3341851  
C    4.3180758    0.1850328   -8.1973523  
H    4.6861996   -2.7872839   -7.6328680  
H    5.5402671    0.5476432  -12.0048915  
H    4.3666275    3.3712870  -10.1092251  
H    5.6527597   -3.8937320   -9.8736607  
C    0.0000000    0.0000000    1.4700000  
C    1.0541688    0.0001722    2.3260392  
C    0.5103138    0.0000454    3.6635956  
C   -0.9576371   -0.0002459    3.5155732  
N   -1.2018458    0.0001392    2.1615969  
C   -1.8348311   -0.0008317    4.5510609  
C   -1.2972847   -0.0009736    5.9014604  
O   -2.0050672   -0.0014265    6.9001319  
C    0.2542623   -0.0004184    6.0817573  
O    0.7184670   -0.0002256    7.2139121  
C    1.0974552   -0.0000873    4.8889129  
H    2.0940752    0.0005483    2.0517982  
H   -2.9081052   -0.0011668    4.4207061  
H    2.1707277    0.0000911    5.0223670  
H   -2.1128194   -0.0014912    1.7406791  
