60

C    1.1243409    0.0099920   -0.7919010  
C    0.7474074    0.0234540   -2.1148551  
C   -0.6787386    0.0234487   -2.1414701  
C   -1.1201748    0.0098591   -0.7935547  
N    0.0000000    0.0000000    0.0000000  
C   -2.4730816    0.0063711   -0.4408240  
C   -3.3971960    0.0170983   -1.4675056  
O   -4.7313520    0.0146263   -1.1793466  
C   -2.9763654    0.0303508   -2.8186318  
O   -4.0166481    0.0395118   -3.7247620  
C   -1.6418567    0.0335258   -3.1673482  
H    1.4178710    0.0310964   -2.9571212  
H   -2.8160167   -0.0041105    0.5845963  
H   -5.1938821    0.0230870   -2.0274377  
H   -3.6464681    0.0482293   -4.6127339  
H    2.1062465    0.0052813   -0.3505407  
C    1.5648140   -2.0538521   -5.3222154  
C    1.3416075   -1.5771838   -6.5740305  
C    0.2115233   -0.6825126   -6.4885403  
C   -0.2083430   -0.6769645   -5.0741599  
N    0.6519551   -1.5285585   -4.4202758  
C   -1.2456335    0.0471722   -4.5828767  
C   -1.9989392    0.8762618   -5.5089850  
O   -2.9501118    1.5651299   -5.1639732  
C   -1.5720047    0.8854945   -7.0114648  
O   -2.1989302    1.5794286   -7.8005659  
C   -0.4365512    0.0629997   -7.4214650  
H    1.9042726   -1.8242681   -7.4566242  
H    2.3192453   -2.7448504   -4.9827386  
H    0.6226025   -1.7349519   -3.4386511  
C    0.8956059   -3.1353546  -10.1194695  
C    1.0818699   -2.4104591  -11.2525658  
C    0.7463578   -1.0420416  -10.9368105  
C    0.3465200   -1.0290315   -9.5166869  
N    0.4585022   -2.3287942   -9.0796898  
C   -0.0432833    0.0795047   -8.8377868  
C   -0.0710796    1.3441661   -9.5536038  
O   -0.4075789    2.3983997   -9.0304785  
C    0.3480843    1.3537243  -11.0582686  
O    0.3283570    2.4124883  -11.6713678  
C    0.7495782    0.0947880  -11.6809522  
H    1.4159778   -2.7909638  -12.2013543  
H    1.0385515    0.1099893  -12.7230594  
H    1.0406762   -4.1909674   -9.9566011  
H    0.2560343   -2.6427241   -8.1482919  
C    0.0000000    0.0000000    1.4700000  
C    1.0541688    0.0001722    2.3260392  
C    0.5103138    0.0000454    3.6635956  
C   -0.9576371   -0.0002459    3.5155732  
N   -1.2018458    0.0001392    2.1615969  
C   -1.8348311   -0.0008317    4.5510609  
C   -1.2972847   -0.0009736    5.9014604  
O   -2.0050672   -0.0014265    6.9001319  
C    0.2542623   -0.0004184    6.0817573  
O    0.7184670   -0.0002256    7.2139121  
C    1.0974552   -0.0000873    4.8889129  
H    2.0940752    0.0005483    2.0517982  
H   -2.9081052   -0.0011668    4.4207061  
H    2.1707277    0.0000911    5.0223670  
H   -2.1128194   -0.0014912    1.7406791  
