64

C    5.9329385   -2.1252340   -4.5701444  
C    5.0131318   -1.6623128   -3.6579346  
C    4.1427214   -0.7751636   -4.3579005  
C    4.5839724   -0.7362136   -5.7053823  
N    5.6738275   -1.5656662   -5.7994101  
C    3.9561502    0.0394653   -6.6846425  
C    2.8627881    0.7892521   -6.2966252  
O    2.2121664    1.5642678   -7.2126250  
C    2.4077027    0.7638903   -4.9568228  
O    1.3079543    1.5648734   -4.7280809  
C    3.0267438   -0.0008951   -3.9901699  
H    4.9749616   -1.9301460   -2.6159160  
H    4.2876440    0.0736077   -7.7133057  
H    1.4899371    1.9978178   -6.7396716  
H    1.0650891    1.4902876   -3.8001487  
H    6.7541923   -2.8091833   -4.4408601  
C    7.4454086   -5.2809816   -7.4170675  
C    7.9751849   -4.7379141   -8.5646222  
C    7.6519788   -3.3486497   -8.5555039  
C    6.9181722   -3.0998327   -7.3674188  
N    6.8091395   -4.2946925   -6.7003068  
C    6.4351857   -1.8323573   -7.0282750  
C    6.6980176   -0.7971446   -7.9043073  
O    6.2499332    0.4608106   -7.6218490  
C    7.4281622   -1.0255833   -9.0949039  
O    7.6070290    0.1063309   -9.8630979  
C    7.9047121   -2.2757712   -9.4302503  
H    8.5257992   -5.2770091   -9.3164160  
H    6.3485731   -4.4268662   -5.8180429  
H    6.5374553    1.0235541   -8.3525449  
H    8.1089082   -0.1347559  -10.6476983  
H    8.4607624   -2.4202487  -10.3491696  
H    7.4698341   -6.2941111   -7.0538453  
C    3.3003547    0.0005277   -1.4738986  
C    2.5232816    0.0003497   -2.6090746  
C    1.1623203   -0.0001319   -2.1820102  
C    1.1711884    0.0000584   -0.7636141  
N    2.4852301   -0.0014919   -0.3662359  
C    0.0000000    0.0000000    0.0000000  
C   -1.2020383    0.0000520   -0.6806479  
O   -2.3759248    0.0003493    0.0157745  
C   -1.2314655   -0.0005115   -2.0955511  
O   -2.5054388   -0.0008040   -2.6250184  
C   -0.0764513   -0.0007274   -2.8495195  
H    2.8036266    0.0088183    0.5858662  
H   -3.0835639    0.0000346   -0.6418822  
H   -2.4360043   -0.0011529   -3.5845924  
H   -0.1304091   -0.0013423   -3.9319089  
H    4.3715553    0.0004897   -1.3667133  
C    2.5128556    2.1077716    2.9199648  
C    1.9592212    1.6432552    4.0696553  
C    0.8915788    0.7479214    3.6910360  
C    0.8684491    0.7287414    2.2159470  
N    1.8754542    1.5738793    1.8102719  
C    0.0000000    0.0000000    1.4700000  
C   -0.9772830   -0.8200135    2.1664417  
O   -1.8021297   -1.5120829    1.5842315  
C   -0.9711318   -0.8147624    3.7284083  
O   -1.7894187   -1.5009653    4.3257297  
C    0.0140216    0.0115358    4.4216297  
H    2.2638494    1.8988021    5.0689105  
H    0.0117648    0.0094386    5.5031631  
H    3.3327358    2.7953732    2.7900019  
H    2.1123206    1.7707734    0.8551938  
