58

C    3.1663135    1.5683696   -2.8368662  
C    4.0340549    2.5265141   -3.2528699  
C    3.4067817    3.2111917   -4.3585734  
C    2.0930348    2.5688070   -4.5540255  
N    2.0088361    1.5807744   -3.6003002  
C    1.1943730    2.9299789   -5.5046392  
C    1.5445182    4.0242870   -6.3948208  
O    0.8029526    4.4238143   -7.2829427  
C    2.9307749    4.7188934   -6.2060910  
O    3.2367093    5.6411621   -6.9497877  
C    3.8144415    4.2410048   -5.1456158  
H    5.0030570    2.7302653   -2.8331860  
H    0.2360262    2.4457222   -5.6310407  
H    3.2751121    0.8541017   -2.0369444  
C    0.0000000    0.0000000    0.0000000  
C    0.8284978    0.6518160   -0.8560390  
C    0.4010449    0.3155685   -2.1935953  
C   -0.7526858   -0.5920571   -2.0455729  
N   -0.9443531   -0.7433910   -0.6915968  
C   -1.4423684   -1.1340978   -3.0810610  
C   -1.0200395   -0.8015403   -4.4314606  
O   -1.5765119   -1.2389125   -5.4301320  
C    0.1995470    0.1575780   -4.6117570  
O    0.5644488    0.4445143   -5.7439120  
C    0.8623528    0.6787908   -3.4189128  
H    1.6459137    1.2946506   -0.5817978  
H   -2.2859805   -1.7976010   -2.9507064  
H   -1.6612257   -1.3055013   -0.2706791  
C    7.8483229    2.6924646   -4.2366296  
C    6.5203881    2.8125902   -4.4939903  
C    6.2556682    4.2179251   -4.6934703  
C    7.5474990    4.9116597   -4.5300861  
N    8.4720029    3.9307913   -4.2542600  
C    7.7195117    6.2530884   -4.6427225  
C    6.5545309    7.0680050   -4.9448255  
O    6.6062125    8.2849309   -5.0661562  
C    5.1763589    6.3544548   -5.1217249  
O    4.1884196    7.0301798   -5.3759528  
C    5.1164876    4.9021234   -4.9768046  
H    5.8075981    2.0085146   -4.5387797  
H    8.6758541    6.7420400   -4.5192529  
H    8.4237634    1.8035057   -4.0353584  
H    9.4496093    4.0897766   -4.0928424  
C    1.0672568    0.0000697    2.3021913  
C    0.0000000    0.0000000    1.4700000  
C   -1.1601224    0.0000736    2.3478473  
C   -0.5938729    0.0000769    3.7138435  
N    0.7113367    0.0001554    3.6934124  
C   -1.4286986    0.0001879    4.8835240  
C   -2.7683114    0.0006799    4.6970523  
O   -3.6653903    0.0008304    5.6976972  
C   -3.3702025    0.0010610    3.3310774  
O   -4.5974910    0.0013779    3.2362962  
C   -2.4926826    0.0008943    2.1470656  
H   -0.9878360   -0.0000190    5.8697035  
H   -4.5324246    0.0012261    5.2533954  
H   -2.9677772    0.0012974    1.1752040  
H    2.1134392    0.0000545    2.0405121  
