58

C    0.7242956   -1.1066402   -9.5471437  
C    1.0678271   -0.7720888  -10.8176313  
C    0.8469916    0.6483574  -10.9532776  
C    0.3430577    1.1172893   -9.6483090  
N    0.2914229    0.0049637   -8.8402516  
C    0.0147433    2.4039202   -9.3681404  
C    0.1677177    3.3928211  -10.4222790  
O   -0.1012105    4.5770572  -10.2687760  
C    0.6995325    2.9184918  -11.8122394  
O    0.8321736    3.7419719  -12.7075301  
C    1.0201830    1.5049428  -11.9936640  
H    1.4339568   -1.4437482  -11.5735652  
H   -0.3530447    2.7269806   -8.4041510  
H    1.3880410    1.1846856  -12.9589824  
H    0.7507350   -2.0717686   -9.0678554  
C    1.7704312   -2.0997830   -5.2515185  
C    1.5928585   -1.6333167   -6.5144327  
C    0.4607457   -0.7379009   -6.4771946  
C   -0.0100421   -0.7207977   -5.0790331  
N    0.8257125   -1.5670937   -4.3875227  
C   -1.0641734    0.0073898   -4.6315339  
C   -1.7831601    0.8289562   -5.5910239  
O   -2.7459475    1.5206787   -5.2862920  
C   -1.3021140    0.8259151   -7.0770897  
O   -1.8998117    1.5134385   -7.8939923  
C   -0.1528624    0.0000283   -7.4390071  
H    2.1870135   -1.8876241   -7.3740379  
H    2.5118285   -2.7880437   -4.8793388  
H    0.7607707   -1.7654786   -3.4059558  
C    1.1319248    0.0015675   -0.8009270  
C    0.7969916    0.0034959   -2.1169404  
C   -0.6453336    0.0035703   -2.1842672  
C   -1.1266831    0.0015415   -0.7896027  
N    0.0000000    0.0000000    0.0000000  
C   -2.4346129    0.0013924   -0.4276297  
C   -3.4350110    0.0031352   -1.4820184  
O   -4.6384610    0.0030897   -1.2583919  
C   -2.9478958    0.0050460   -2.9661075  
O   -3.7809377    0.0062160   -3.8623775  
C   -1.5113821    0.0053068   -3.2312125  
H    1.4821240    0.0045436   -2.9459192  
H   -2.7664565    0.0000185    0.6013447  
H    2.1104318    0.0009428   -0.3488058  
C    0.8175213    0.6860729    2.3021913  
C    0.0000000    0.0000000    1.4700000  
C   -0.8887526   -0.7456559    2.3478473  
C   -0.4549825   -0.3816753    3.7138435  
N    0.5448156    0.4573574    3.6934124  
C   -1.0945674   -0.9182058    4.8835240  
C   -2.1210866   -1.7789155    4.6970523  
O   -2.8083856   -2.3554314    5.6976972  
C   -2.5824069   -2.1655116    3.3310774  
O   -3.5227682   -2.9541547    3.2362962  
C   -1.9100805   -1.6015804    2.1470656  
H   -0.7567140   -0.6349833    5.8697035  
H   -3.4728268   -2.9124471    5.2533954  
H   -2.2742832   -1.9066565    1.1752040  
H    1.6189533    1.3585343    2.0405121  
