60

C    3.3041274    0.0001181   -1.5420434  
C    2.5845372   -0.0004778   -0.3695856  
C    1.2040005   -0.0000006   -0.7283592  
C    1.1422372    0.0006041   -2.1454374  
N    2.4348641    0.0026115   -2.6077465  
C   -0.0655182    0.0008801   -2.8497921  
C   -1.2321768    0.0002327   -2.1101401  
O   -2.4392816    0.0001151   -2.7472519  
C   -1.1911210   -0.0000005   -0.6955263  
O   -2.4371523   -0.0002319   -0.1032864  
C    0.0000000    0.0000000    0.0000000  
H    3.0031537   -0.0000661    0.6222577  
H    2.7054629   -0.0071092   -3.5745263  
H   -3.1132988   -0.0000646   -2.0551790  
H   -2.3200280   -0.0004071    0.8516406  
H    4.3686616    0.0004075   -1.7024299  
C    2.3446864   -2.1385754   -5.7825621  
C    1.7992122   -1.7303697   -6.9519230  
C    0.7308347   -0.8198476   -6.5697990  
C    0.7735869   -0.7944094   -5.0919258  
N    1.7176438   -1.5654461   -4.6247553  
C   -0.1387083    0.0017023   -4.3179685  
C   -1.0519390    0.7391886   -4.9898745  
O   -1.9638776    1.5275968   -4.3958871  
C   -1.1200796    0.7349610   -6.4810152  
O   -1.9771139    1.4304208   -7.0260369  
C   -0.1732959   -0.0899936   -7.2523614  
H    2.0864369   -2.0122467   -7.9504836  
H   -2.4685604    1.9202491   -5.1309192  
H    3.1667832   -2.8208802   -5.6356228  
C    0.1690929   -3.2524807  -10.2797008  
C   -0.0423276   -2.5148673  -11.4001037  
C   -0.2533424   -1.1517760  -10.9731488  
C   -0.1467337   -1.1557512   -9.5016158  
N    0.1097626   -2.4592633   -9.1439080  
C   -0.2848516   -0.0565834   -8.7177419  
C   -0.5568671    1.2151983   -9.3666751  
O   -0.6976879    2.2619859   -8.7480422  
C   -0.6740801    1.2427248  -10.9240155  
O   -0.9031748    2.3076130  -11.4814997  
C   -0.5055536   -0.0073426  -11.6607528  
H   -0.0498060   -2.8836030  -12.4103470  
H   -0.5880046    0.0202948  -12.7387890  
H    0.3630383   -4.3088416  -10.1881775  
H    0.2365516   -2.7839581   -8.2028739  
C    2.5128556    2.1077716    2.9199648  
C    1.9592212    1.6432552    4.0696553  
C    0.8915788    0.7479214    3.6910360  
C    0.8684491    0.7287414    2.2159470  
N    1.8754542    1.5738793    1.8102719  
C    0.0000000    0.0000000    1.4700000  
C   -0.9772830   -0.8200135    2.1664417  
O   -1.8021297   -1.5120829    1.5842315  
C   -0.9711318   -0.8147624    3.7284083  
O   -1.7894187   -1.5009653    4.3257297  
C    0.0140216    0.0115358    4.4216297  
H    2.2638494    1.8988021    5.0689105  
H    0.0117648    0.0094386    5.5031631  
H    3.3327358    2.7953732    2.7900019  
H    2.1123206    1.7707734    0.8551938  
