58

C   -3.2797914   -0.0108270   -1.4499644  
C   -2.5571011   -0.0085413   -2.5996551  
C   -1.1637379   -0.0037887   -2.2210360  
C   -1.1336916   -0.0035200   -0.7459469  
N   -2.4483407   -0.0075022   -0.3402718  
C    0.0000000    0.0000000    0.0000000  
C    1.2757305    0.0040022   -0.6964418  
O    2.3524472    0.0074096   -0.1142322  
C    1.2676417    0.0040455   -2.2584083  
O    2.3355630    0.0077030   -2.8557301  
C   -0.0181564   -0.0002327   -2.9516298  
H   -2.9547199   -0.0098339   -3.5989098  
H   -0.0150793   -0.0003790   -4.0331632  
H   -2.7563455   -0.0098892    0.6148067  
C   -5.6706182   -0.0174260   -2.2998274  
C   -6.9366478   -0.0197517   -1.8086668  
C   -6.8295844   -0.0192067   -0.3687457  
C   -5.3870598   -0.0163232   -0.0590617  
N   -4.7390592   -0.0157593   -1.2727275  
C   -4.8700337   -0.0146260    1.1956838  
C   -5.7961140   -0.0159381    2.3159105  
O   -5.4290218   -0.0146520    3.4836189  
C   -7.3281054   -0.0192424    2.0112847  
O   -8.1173976   -0.0206775    2.9463123  
C   -7.7644743   -0.0205649    0.6172142  
H   -3.8085574   -0.0123870    1.4010438  
H   -8.8269007   -0.0226484    0.4148048  
H   -5.3397730   -0.0170063   -3.3257077  
C   -8.1743864   -0.0225741   -2.6016965  
C   -8.3264719   -0.0235020   -3.9511200  
C   -9.7460890   -0.0264013   -4.2147727  
C  -10.4133788   -0.0270622   -2.8989027  
N   -9.4050760   -0.0250534   -1.9628411  
C  -11.7584836   -0.0292034   -2.7189249  
C  -12.6055260   -0.0312014   -3.9000479  
O  -13.8282375   -0.0332621   -3.8428534  
C  -11.9203125   -0.0307960   -5.3037171  
O  -12.6231587   -0.0327715   -6.3053484  
C  -10.4610565   -0.0281267   -5.3701754  
H   -7.5345562   -0.0224756   -4.6787755  
H  -12.2277303   -0.0295220   -1.7449042  
H   -9.9944213   -0.0276573   -6.3458678  
H   -9.5421146   -0.0233821   -0.9687253  
C    2.4951002    2.0940188    2.9809380  
C    1.9440701    1.6314916    1.8291961  
C    0.8759964    0.7350050    2.2038498  
C    0.8497377    0.7130254    3.6788474  
N    1.8560616    1.5571714    4.0882609  
C   -0.0205033   -0.0168748    4.4215661  
C   -0.9962600   -0.8356168    3.7214979  
O   -1.8224391   -1.5286685    4.3006425  
C   -0.9864710   -0.8277881    2.1595606  
O   -1.8030528   -1.5133726    1.5592035  
C    0.0000000    0.0000000    1.4700000  
H    2.2509283    1.8888011    0.8310761  
H   -0.0229599   -0.0187323    5.5027230  
H    3.3143982    2.7817323    3.1139444  
H    2.0889452    1.7545833    5.0442112  
