58

C    3.2798084    0.0005856   -1.4499646  
C    2.5571146    0.0005565   -2.5996554  
C    1.1637432    0.0001549   -2.2210359  
C    1.1336965   -0.0000200   -0.7459469  
N    2.4483512   -0.0001430   -0.3402718  
C    0.0000000    0.0000000    0.0000000  
C   -1.2757379   -0.0000186   -0.6964418  
O   -2.3524596   -0.0000639   -0.1142315  
C   -1.2676492   -0.0000872   -2.2584081  
O   -2.3355757   -0.0004100   -2.8557297  
C    0.0181563    0.0001760   -2.9516295  
H    2.9547353    0.0006075   -3.5989101  
H    0.0150791    0.0003320   -4.0331628  
H    2.7563624    0.0012823    0.6148064  
C    6.6317391   -0.0005811   -4.3241584  
C    5.4016591   -0.0005061   -3.7488512  
C    5.6054526    0.0003362   -2.3194101  
C    7.0655612    0.0007779   -2.1075767  
N    7.6303558   -0.0002120   -3.3621268  
C    7.6659171    0.0019860   -0.8904999  
C    6.8173806    0.0026870    0.2895510  
O    7.2622811    0.0037194    1.4298859  
C    5.2683490    0.0019842    0.0887900  
O    4.5438176    0.0022581    1.0748502  
C    4.7390846    0.0009613   -1.2727276  
H    4.4591041   -0.0011684   -4.2667345  
H    6.8927447   -0.0010918   -5.3699913  
H    8.6161411    0.0013557   -3.5499358  
C   10.9313192    2.0952469   -3.0004375  
C    9.7205264    1.6326888   -2.5953523  
C    9.9607940    0.7371901   -1.4884702  
C   11.4212868    0.7158239   -1.2803898  
N   11.9514897    1.5593455   -2.2292024  
C   12.0511673   -0.0130956   -0.3245498  
C   11.2362956   -0.8313541    0.5580436  
O   11.7092787   -1.5235255    1.4499442  
C    9.6875004   -0.8241608    0.3555911  
O    8.9911779   -1.5093465    1.0924195  
C    9.1246829    0.0025768   -0.7091124  
H    8.7678204    1.8893566   -3.0232392  
H   13.1237601   -0.0145167   -0.1887033  
H   11.1641977    2.7823717   -3.7976306  
H   12.9288115    1.7569592   -2.3425121  
C    0.8400945    0.7047457    2.2710304  
C    0.0000000    0.0000000    1.4700000  
C   -0.8844236   -0.7423113    2.3369512  
C   -0.4878984   -0.4098547    3.7186280  
N    0.5629682    0.4714286    3.6095011  
C   -1.0836927   -0.9095027    4.8308716  
C   -2.1891196   -1.8367527    4.6554461  
O   -2.7906899   -2.3413415    5.5944904  
C   -2.6257283   -2.2031529    3.2011665  
O   -3.5549479   -2.9829990    3.0410059  
C   -1.9068976   -1.5999348    2.0816745  
H   -0.7774656   -0.6525820    5.8354244  
H   -2.2155208   -1.8586617    1.0779135  
H    1.6384792    1.3747609    1.9961646  
H    1.0518368    0.8833920    4.3830260  
