58

C    5.6678390    0.7013212   -6.3197873  
C    6.7228594   -0.0028431   -5.8348544  
C    7.2786235   -0.7445147   -6.9420508  
C    6.4550182   -0.4123166   -8.1202307  
N    5.4958318    0.4682215   -7.6758171  
C    6.6580182   -0.9115249   -9.3657378  
C    7.7611722   -1.8379954   -9.5587090  
O    8.0258380   -2.3421434  -10.6422622  
C    8.6462728   -2.2041102   -8.3248683  
O    9.5777029   -2.9833014   -8.4750682  
C    8.3291770   -1.6014188   -7.0325586  
H    6.0422418   -0.6548047  -10.2165150  
H    8.9469650   -1.8599434   -6.1833079  
H    5.0013914    1.3707669   -5.8005764  
H    4.7821533    0.8798514   -8.2487670  
C    4.5679461   -0.0016854   -2.0086701  
C    5.6245801   -0.0018696   -1.1556757  
C    6.8197131   -0.0025284   -1.9659186  
C    6.3695110   -0.0026849   -3.3709484  
N    4.9943549   -0.0025528   -3.3281076  
C    7.1998311   -0.0028670   -4.4443876  
C    8.6325203   -0.0031378   -4.1995661  
O    9.4620769   -0.0033772   -5.0996411  
C    9.1316831   -0.0032304   -2.7194844  
O   10.3356443   -0.0037644   -2.5009918  
C    8.1403753   -0.0027354   -1.6465625  
H    5.5727016   -0.0017596   -0.0814682  
H    8.4942119   -0.0025976   -0.6245433  
H    4.3931135   -0.0010540   -4.1315711  
C    3.1301149   -0.0010311   -1.7028252  
C    2.5367768   -0.0002767   -0.4864665  
C    1.1089904    0.0001028   -0.7656183  
C    1.0177872   -0.0004148   -2.2415132  
N    2.1993578   -0.0011611   -2.7963820  
C   -0.2459209   -0.0002877   -2.9257118  
C   -1.3675319   -0.0000605   -2.1698524  
O   -2.6129313    0.0000867   -2.6748490  
C   -1.3083584    0.0000910   -0.6783232  
O   -2.3693261    0.0004206   -0.0541692  
C    0.0000000    0.0000000    0.0000000  
H    3.0096017   -0.0001007    0.4807525  
H   -0.2829630   -0.0004687   -4.0053125  
H   -3.1967441    0.0002094   -1.8949034  
C    2.5528530    2.1414826    2.8079335  
C    2.0663498    1.7338582    4.0032312  
C    0.9804344    0.8229586    3.6752840  
C    0.9495562    0.7966882    2.1971295  
N    1.8690446    1.5676019    1.6831036  
C    0.0000000    0.0000000    1.4700000  
C   -0.8785127   -0.7372425    2.1869543  
O   -1.8187535   -1.5261249    1.6395491  
C   -0.8723269   -0.7321790    3.6796354  
O   -1.7010379   -1.4274584    4.2670412  
C    0.1115397    0.0933559    4.4024240  
H    2.4028853    2.0163452    4.9860947  
H   -2.2861435   -1.9184361    2.3990168  
H    0.0832434    0.0693689    5.4835595  
H    3.3664920    2.8238276    2.6198634  
