60

C    4.3944182   -2.1038189   -1.5642421  
C    5.4034933   -1.6392073   -2.3452535  
C    4.8105111   -0.7448196   -3.3113170  
C    3.3628790   -0.7262982   -3.0270485  
N    3.1760851   -1.5708756   -1.9571482  
C    2.4521480    0.0014830   -3.7217483  
C    2.9295439    0.8210843   -4.8230572  
O    2.1880593    1.5122966   -5.5091528  
C    4.4586121    0.8165172   -5.1420171  
O    4.8722148    1.5023809   -6.0671030  
C    5.3421090   -0.0087584   -4.3221362  
H    6.4444089   -1.8940962   -2.2550353  
H    6.3995043   -0.0061924   -4.5493666  
H    4.4382796   -2.7908768   -0.7348344  
H    2.2913034   -1.7680118   -1.5266308  
C    0.0000000    0.0000000    0.0000000  
C    1.0662921   -0.0000106   -0.8334269  
C    0.4961870    0.0000059   -2.1718889  
C   -0.9663856   -0.0000854   -1.9540246  
N   -1.2632773   -0.0000087   -0.6828657  
C   -1.8985362   -0.0000522   -3.0477258  
C   -1.3925773    0.0004558   -4.3020541  
O   -2.1456384    0.0005402   -5.4151311  
C    0.0786236    0.0009315   -4.5544999  
O    0.4683762    0.0012578   -5.7221098  
C    1.0143167    0.0008435   -3.4159031  
H    2.1107198    0.0000631   -0.5721865  
H   -1.5042271    0.0009682   -6.1484419  
C   -3.3460094   -0.0004268   -2.7913647  
C   -3.9807082   -0.0008724   -1.5960671  
C   -5.3980828   -0.0011000   -1.9240143  
C   -5.4386232   -0.0006192   -3.4021683  
N   -4.2387207   -0.0003041   -3.9161945  
C   -6.6781267   -0.0007185   -4.1292983  
C   -7.8249967   -0.0016618   -3.4123439  
O   -9.0523465   -0.0018581   -3.9597493  
C   -7.8170032   -0.0025378   -1.9196631  
O   -8.8987494   -0.0032508   -1.3322576  
C   -6.5326743   -0.0023731   -1.1968746  
H   -3.5413282   -0.0011176   -0.6132034  
H   -6.6781269   -0.0001524   -5.2095336  
H   -9.6625606   -0.0026196   -3.2002818  
H   -6.5697686   -0.0031425   -0.1157395  
C    0.0000000    0.0000000    1.4700000  
C    1.0521667    0.0011902    2.3562342  
C    0.4917218    0.0011957    3.6679131  
C   -0.9187428   -0.0003148    3.5178682  
N   -1.1833171    0.0009411    2.1707914  
C   -1.7951701   -0.0010350    4.6072090  
C   -1.2375837   -0.0005224    5.8710424  
O   -2.0474215   -0.0015360    6.9697579  
C    0.1673580    0.0013566    6.0411963  
O    0.5673524    0.0020687    7.3615553  
C    1.0325770    0.0023412    4.9669890  
H    2.0953057    0.0030649    2.0900562  
H   -2.0989778   -0.0102372    1.7591824  
H   -2.8710934   -0.0020419    4.4995513  
H   -1.4634884   -0.0006497    7.7393593  
H    1.5290710    0.0033153    7.3880045  
H    2.1042148    0.0039609    5.1284455  
