58

C    6.6905328   -3.3889925   -4.6734672  
C    7.8090044   -3.4175409   -5.4430652  
C    8.0149369   -2.0762452   -5.9363732  
C    6.9168993   -1.2580565   -5.3871250  
N    6.1490026   -2.1131919   -4.6308394  
C    6.7555760    0.0689545   -5.6210495  
C    7.7281981    0.7358331   -6.4706466  
O    7.6698207    1.9282123   -6.7410635  
C    8.8991201   -0.1112222   -7.0633034  
O    9.7239018    0.4392530   -7.7802213  
C    8.9674129   -1.5339984   -6.7394269  
H    8.4199421   -4.2798430   -5.6425749  
H    5.9430897    0.6506885   -5.2083010  
H    9.7813484   -2.1133874   -7.1535990  
H    6.2161956   -4.1926778   -4.1340378  
C    4.5533949   -2.1376043   -2.6578821  
C    4.9399045   -1.7283668   -3.8886195  
C    3.8940257   -0.8167856   -4.3264063  
C    2.9285537   -0.7919270   -3.2066606  
N    3.3097737   -1.5641892   -2.2257060  
C    1.7334695    0.0049281   -3.2500363  
C    1.5131086    0.7436791   -4.3613519  
O    0.4396992    1.5328949   -4.5373375  
C    2.4688038    0.7400642   -5.5079972  
O    2.2042969    1.4366796   -6.4877848  
C    3.6875671   -0.0856735   -5.4394563  
H    0.5632901    1.9263770   -5.4199757  
H    4.3545060   -0.0606070   -6.2908044  
H    5.0606857   -2.8208826   -1.9954922  
C    1.1319246    0.0015678   -0.8009268  
C    0.7969914    0.0034958   -2.1169401  
C   -0.6453340    0.0035696   -2.1842669  
C   -1.1266832    0.0015410   -0.7896025  
N    0.0000000    0.0000000    0.0000000  
C   -2.4346129    0.0013913   -0.4276292  
C   -3.4350111    0.0031335   -1.4820181  
O   -4.6384614    0.0030875   -1.2583914  
C   -2.9478961    0.0050442   -2.9661074  
O   -3.7809382    0.0062135   -3.8623773  
C   -1.5113825    0.0053055   -3.2312122  
H   -2.7664565    0.0000174    0.6013448  
H   -1.1823533    0.0068381   -4.2614848  
H    2.1104316    0.0009435   -0.3488059  
C    2.4951002    2.0940188    2.9809380  
C    1.9440701    1.6314916    1.8291961  
C    0.8759964    0.7350050    2.2038498  
C    0.8497377    0.7130254    3.6788474  
N    1.8560616    1.5571714    4.0882609  
C   -0.0205033   -0.0168748    4.4215661  
C   -0.9962600   -0.8356168    3.7214979  
O   -1.8224391   -1.5286685    4.3006425  
C   -0.9864710   -0.8277881    2.1595606  
O   -1.8030528   -1.5133726    1.5592035  
C    0.0000000    0.0000000    1.4700000  
H    2.2509283    1.8888011    0.8310761  
H   -0.0229599   -0.0187323    5.5027230  
H    3.3143982    2.7817323    3.1139444  
H    2.0889452    1.7545833    5.0442112  
