58

C   -4.7390836   -0.0007821   -1.2727314  
C   -5.7159776   -0.0014981   -2.2159985  
C   -6.9782049   -0.0014788   -1.5148437  
C   -6.6542737   -0.0006580   -0.0754484  
N   -5.2807307   -0.0006651    0.0037318  
C   -7.5764455   -0.0000010    0.9201933  
C   -8.9818051   -0.0003356    0.5493841  
O   -9.8878550    0.0001392    1.3724116  
C   -9.3478539   -0.0014556   -0.9691060  
O  -10.5277180   -0.0020525   -1.2934220  
C   -8.2653741   -0.0018121   -1.9499672  
H   -5.5691172   -0.0021666   -3.2813833  
H   -7.3176385    0.0007260    1.9699210  
H   -4.7530492    0.0013655    0.8573100  
C   -3.2798074   -0.0004616   -1.4499673  
C   -2.5571125   -0.0004597   -2.5996572  
C   -1.1637415   -0.0001106   -2.2210371  
C   -1.1336953    0.0000629   -0.7459477  
N   -2.4483509    0.0002354   -0.3402738  
C    0.0000000    0.0000000    0.0000000  
C    1.2757374   -0.0000294   -0.6964407  
O    2.3524604   -0.0000248   -0.1142297  
C    1.2676514    0.0000396   -2.2584074  
O    2.3355787    0.0003221   -2.8557280  
C   -0.0181534   -0.0001750   -2.9516298  
H   -2.9547331   -0.0004956   -3.5989125  
H   -0.0150763   -0.0003310   -4.0331629  
H   -2.7563630   -0.0011782    0.6148043  
C   -6.5341054   -2.1111712   -5.3904105  
C   -7.3497012   -1.6472515   -6.3720709  
C   -8.2939920   -0.7516984   -5.7466627  
C   -7.9592575   -0.7317392   -4.3098798  
N   -6.8838968   -1.5766812   -4.1596766  
C   -8.6213196   -0.0025882   -3.3762218  
C   -9.7382470    0.8170755   -3.8157226  
O  -10.3976469    1.5094673   -3.0514678  
C  -10.1104926    0.8109996   -5.3326940  
O  -11.0491393    1.4969021   -5.7144547  
C   -9.3224213   -0.0156825   -6.2434037  
H   -7.2960699   -1.9033315   -7.4152200  
H   -9.5864930   -0.0141563   -7.2922068  
H   -5.7070786   -2.7987191   -5.4624856  
H   -6.4227946   -1.7730755   -3.2902736  
C    2.3971438    2.0127888    3.1728260  
C    1.9431056    1.6308205    1.9564670  
C    0.8496017    0.7127664    2.2356185  
C    0.7794028    0.6545384    3.7115134  
N    1.6840587    1.4146091    4.2663826  
C   -0.1885723   -0.1578550    4.3957118  
C   -1.0476298   -0.8789867    3.6398520  
O   -2.0015663   -1.6796266    4.1448486  
C   -1.0022026   -0.8410666    2.1483229  
O   -1.8147390   -1.5232959    1.5241687  
C    0.0000000    0.0000000    1.4700000  
H    2.3054237    1.9346118    0.9892483  
H   -0.2170646   -0.1815267    5.4753125  
H   -2.4487139   -2.0549881    3.3649027  
H    3.2048689    2.6911772    3.3971983  
