60

C   -0.9536164    0.5956998   -0.7919006  
C   -0.6429510    0.3818130   -2.1148545  
C    0.5598355   -0.3844744   -2.1414698  
C    0.9394359   -0.6102039   -0.7935548  
N    0.0000000    0.0000000    0.0000000  
C    2.0823259   -1.3342012   -0.4408233  
C    2.8559419   -1.8397907   -1.4675052  
O    3.9824716   -2.5545700   -1.1793458  
C    2.4939008   -1.6248488   -2.8186318  
O    3.3663330   -2.1915363   -3.7247611  
C    1.3666961   -0.9104731   -3.1673475  
H    2.3771826   -1.5096255    0.5845978  
H    4.3680143   -2.8102312   -2.0274369  
H    3.0494461   -1.9999853   -4.6127335  
H    1.1149312   -0.7620032   -4.2109230  
H   -1.7792052    1.1272666   -0.3505410  
C   -2.8171550    4.1400399   -3.1213380  
C   -2.0801542    3.2253386   -2.4492285  
C   -2.0016982    2.0784518   -3.3408532  
C   -2.7676311    2.4845757   -4.5387653  
N   -3.2479727    3.6921232   -4.4159196  
C   -2.9292811    1.6132228   -5.6700035  
C   -2.3516816    0.3918258   -5.6075336  
O   -2.4214444   -0.5225463   -6.5899277  
C   -1.5720916   -0.0470831   -4.4126446  
O   -1.0738760   -1.1726316   -4.4245744  
C   -1.4206624    0.8649179   -3.2649303  
H   -1.6435827    3.3175401   -1.4694428  
H   -3.4944238    1.9359625   -6.5321888  
H   -1.9163146   -1.2853252   -6.2550165  
C   -2.9100600    6.1005253   -1.5129263  
C   -3.2064710    5.4879974   -2.6827682  
C   -4.0006147    6.4566948   -3.4226742  
C   -4.0882134    7.6293818   -2.5261720  
N   -3.4507724    7.4264998   -1.4052360  
C   -4.8021109    8.8197953   -2.8981282  
C   -5.4009376    8.8380202   -4.1107324  
O   -6.1001767    9.8822311   -4.5868920  
C   -5.3302808    7.6705252   -5.0381612  
O   -5.8991512    7.7569127   -6.1263459  
C   -4.5919624    6.4609249   -4.6335912  
H   -4.8500044    9.6618132   -2.2231306  
H   -6.4019834    9.5973101   -5.4683026  
H   -4.5642719    5.6369395   -5.3339568  
H   -2.3342223    5.7129397   -0.6876011  
C    0.8681109    0.7263879    2.2709268  
C    0.6127770    0.5096195    3.5869401  
C   -0.4920590   -0.4175482    3.6542670  
C   -0.8620974   -0.7254003    2.2596025  
N    0.0000000    0.0000000    1.4700000  
C   -1.8641242   -1.5660088    1.8976294  
C   -2.6293522   -2.2103885    2.9520183  
O   -3.5512764   -2.9839180    2.7283916  
C   -2.2549728   -1.8987399    4.4361073  
O   -2.8923672   -2.4351063    5.3323774  
C   -1.1543735   -0.9755647    4.7012123  
H    1.1382914    0.9492124    4.4159191  
H   -2.1192137   -1.7782617    0.8686553  
H   -0.9013378   -0.7652422    5.7314848  
H    1.6172880    1.3558399    1.8188057  
