58

C   -7.6547243    0.0633914   -2.3005595  
C   -8.4450052    0.7210264   -1.4134029  
C   -9.8080907    0.3428312   -1.7028901  
C   -9.7467078   -0.5957965   -2.8395521  
N   -8.4134502   -0.7225598   -3.1545823  
C  -10.8286351   -1.1815671   -3.4122759  
C  -12.1411740   -0.8663731   -2.8733605  
O  -13.1765466   -1.3425654   -3.3200638  
C  -12.2298029    0.1253755   -1.6698721  
O  -13.3294471    0.3985499   -1.2078998  
C  -10.9932327    0.6925794   -1.1378685  
H   -8.1111901    1.3943722   -0.6441270  
H  -10.7617206   -1.8674433   -4.2453465  
H  -11.0632200    1.3782663   -0.3044063  
H   -8.0477390   -1.2989684   -3.8901477  
C   -4.3137496    2.1424315   -0.2077329  
C   -5.5591243    1.7353217   -0.5466747  
C   -5.3648109    0.8246408   -1.6644415  
C   -3.9011721    0.7979211   -1.8733215  
N   -3.2797688    1.5684041   -1.0223196  
C   -3.2941076    0.0012878   -2.9038237  
C   -4.1120066   -0.7354730   -3.6896733  
O   -3.6822295   -1.5242473   -4.6892567  
C   -5.5930509   -0.7299484   -3.5035596  
O   -6.2763273   -1.4248011   -4.2555795  
C   -6.1916588    0.0955201   -2.4395132  
H   -6.4941452    2.0180139   -0.0940188  
H   -4.4926448   -1.9161854   -5.0617690  
H   -4.0287171    2.8244781    0.5774694  
C    0.0000000    0.0000000    0.0000000  
C    1.0541688   -0.0001723   -0.8560392  
C    0.5103136   -0.0000455   -2.1935956  
C   -0.9576373    0.0002461   -2.0455730  
N   -1.2018460   -0.0001389   -0.6915968  
C   -1.8348314    0.0008319   -3.0810607  
C   -1.2972851    0.0009739   -4.4314603  
O   -2.0050676    0.0014268   -5.4301316  
C    0.2542619    0.0004184   -4.6117572  
O    0.7184666    0.0002257   -5.7439122  
C    1.0974551    0.0000873   -3.4189129  
H    2.0940752   -0.0005484   -0.5817983  
H    2.1707276   -0.0000912   -3.5523673  
H   -2.1128194    0.0014915   -0.2706789  
C    1.0965515   -0.0001358    2.2710304  
C    0.0000000    0.0000000    1.4700000  
C   -1.1546562   -0.0001469    2.3369512  
C   -0.6372014   -0.0003519    3.7186280  
N    0.7342871   -0.0007337    3.6095011  
C   -1.4147739   -0.0001353    4.8308716  
C   -2.8576048    0.0001048    4.6554461  
O   -3.6427778    0.0002493    5.5944904  
C   -3.4275839    0.0000726    3.2011665  
O   -4.6406829   -0.0000333    3.0410059  
C   -2.4891866    0.0001091    2.0816745  
H   -1.0150448   -0.0001615    5.8354244  
H   -2.8919121    0.0002919    1.0779135  
H    2.1388271   -0.0000662    1.9961646  
H    1.3735872    0.0006099    4.3830260  
