58

C    8.1758979    0.7266453   -3.9921530  
C    8.8078351    0.5102102   -5.1744752  
C    9.8846875   -0.4154508   -4.9129873  
C    9.8278891   -0.7227820   -3.4710750  
N    8.7705111    0.0014512   -2.9707477  
C   10.6799253   -1.5620191   -2.8296541  
C   11.7226239   -2.2053669   -3.6115869  
O   12.5387759   -2.9776360   -3.1259967  
C   11.8016103   -1.8942462   -5.1402365  
O   12.6754296   -2.4297529   -5.8087655  
C   10.8267340   -0.9725758   -5.7181567  
H    8.5492536    0.9490763   -6.1216526  
H   10.6208727   -1.7739118   -1.7711060  
H   10.8881339   -0.7626106   -6.7773399  
H    7.3259641    1.3550804   -3.7810321  
C    4.7795901    0.0008674   -1.0815733  
C    5.8063529    0.0010472   -1.9702986  
C    7.0285665    0.0013952   -1.2015147  
C    6.6268092    0.0013742    0.2181264  
N    5.2509927    0.0014465    0.2224663  
C    7.4934505    0.0012526    1.2624621  
C    8.9169021    0.0013603    0.9686564  
O    9.7768360    0.0013258    1.8397561  
C    9.3650173    0.0016362   -0.5276716  
O   10.5607784    0.0020357   -0.7873207  
C    8.3375016    0.0014682   -1.5659693  
H    5.7176690    0.0011298   -3.0420957  
H    7.1779194    0.0011091    2.2965563  
H    4.6776564   -0.0001045    1.0460743  
C    3.3321168    0.0004716   -1.3379341  
C    2.6974177    0.0000118   -2.5332316  
C    1.2800432   -0.0002116   -2.2052842  
C    1.2395033    0.0000644   -0.7271298  
N    2.4394059    0.0005460   -0.2131041  
C    0.0000000    0.0000000    0.0000000  
C   -1.1468704    0.0000635   -0.7169542  
O   -2.3742206    0.0000074   -0.1695488  
C   -1.1388774    0.0001608   -2.2096352  
O   -2.2206238    0.0000906   -2.7970409  
C    0.1454514    0.0001818   -2.9324241  
H    3.1367978   -0.0000649   -3.5160956  
H   -2.9844350    0.0001027   -0.9290164  
H    0.1083567    0.0003684   -4.0135594  
C    0.0000000    0.0000000    1.4700000  
C    1.0541688    0.0001722    2.3260392  
C    0.5103138    0.0000454    3.6635956  
C   -0.9576371   -0.0002459    3.5155732  
N   -1.2018458    0.0001392    2.1615969  
C   -1.8348311   -0.0008317    4.5510609  
C   -1.2972847   -0.0009736    5.9014604  
O   -2.0050672   -0.0014265    6.9001319  
C    0.2542623   -0.0004184    6.0817573  
O    0.7184670   -0.0002256    7.2139121  
C    1.0974552   -0.0000873    4.8889129  
H    2.0940752    0.0005483    2.0517982  
H   -2.9081052   -0.0011668    4.4207061  
H    2.1707277    0.0000911    5.0223670  
H   -2.1128194   -0.0014912    1.7406791  
