58

C    4.6512041   -0.5437639   -7.4961833  
C    5.7000620   -0.4762100   -8.3560721  
C    5.8035973    0.8980953   -8.7866528  
C    4.7213407    1.6309226   -8.1022018  
N    4.0593867    0.6998853   -7.3354705  
C    4.4820951    2.9590913   -8.2451483  
C    5.3481883    3.7173935   -9.1325025  
O    5.2142533    4.9182814   -9.3280313  
C    6.5005641    2.9616717   -9.8678375  
O    7.2359767    3.5895233  -10.6176571  
C    6.6591236    1.5286112   -9.6332122  
H    6.3292822   -1.2956367   -8.6547946  
H    3.6828736    3.4773854   -7.7337526  
H    7.4595635    1.0128033  -10.1460104  
H    4.2606621   -1.3974855   -6.9665354  
C    2.9127954   -0.7214785   -3.3153353  
C    3.5543791   -0.5031931   -4.4921092  
C    2.7457297    0.4250570   -5.2466115  
C    1.5720416    0.7318908   -4.4069097  
N    1.7334695    0.0049281   -3.2500363  
C    0.5691413    1.5730687   -4.7651217  
C    0.6510588    2.2191799   -6.0644929  
O   -0.2019679    2.9933399   -6.4784044  
C    1.8850621    1.9086324   -6.9703641  
O    1.9647747    2.4464583   -8.0665616  
C    2.9022249    0.9847028   -6.4747981  
H    4.4875230   -0.9424619   -4.7969015  
H   -0.2829847    1.7845541   -4.1341978  
H    3.2021876   -1.3520602   -2.4904058  
C    1.1319246    0.0015678   -0.8009268  
C    0.7969914    0.0034958   -2.1169401  
C   -0.6453340    0.0035696   -2.1842669  
C   -1.1266832    0.0015410   -0.7896025  
N    0.0000000    0.0000000    0.0000000  
C   -2.4346129    0.0013913   -0.4276292  
C   -3.4350111    0.0031335   -1.4820181  
O   -4.6384614    0.0030875   -1.2583914  
C   -2.9478961    0.0050442   -2.9661074  
O   -3.7809382    0.0062135   -3.8623773  
C   -1.5113825    0.0053055   -3.2312122  
H   -2.7664565    0.0000174    0.6013448  
H   -1.1823533    0.0068381   -4.2614848  
H    2.1104316    0.0009435   -0.3488059  
C    0.0000000    0.0000000    1.4700000  
C    1.0541688    0.0001722    2.3260392  
C    0.5103138    0.0000454    3.6635956  
C   -0.9576371   -0.0002459    3.5155732  
N   -1.2018458    0.0001392    2.1615969  
C   -1.8348311   -0.0008317    4.5510609  
C   -1.2972847   -0.0009736    5.9014604  
O   -2.0050672   -0.0014265    6.9001319  
C    0.2542623   -0.0004184    6.0817573  
O    0.7184670   -0.0002256    7.2139121  
C    1.0974552   -0.0000873    4.8889129  
H    2.0940752    0.0005483    2.0517982  
H   -2.9081052   -0.0011668    4.4207061  
H    2.1707277    0.0000911    5.0223670  
H   -2.1128194   -0.0014912    1.7406791  
