58

C   -6.3978685    4.3929750    3.0663061  
C   -6.0661563    3.5833465    2.0277758  
C   -4.6328267    3.6632666    1.8728085  
C   -4.1532422    4.5924613    2.9136666  
N   -5.2723013    4.9997259    3.6026748  
C   -2.8530570    4.9340407    3.0995328  
C   -1.8597525    4.3475322    2.2152874  
O   -0.6635312    4.5921841    2.3018952  
C   -2.3451723    3.3610850    1.1057405  
O   -1.5180875    2.8612942    0.3551407  
C   -3.7730325    3.0700583    1.0039033  
H   -6.7477852    2.9971936    1.4375043  
H   -2.5223581    5.6175173    3.8692125  
H   -7.3699155    4.5975949    3.4848077  
H   -5.2712633    5.6377166    4.3772816  
C   -4.2186876    2.1401316   -0.0437264  
C   -5.4804255    1.7323137   -0.3144299  
C   -5.3466902    0.8217457   -1.4411423  
C   -3.8965667    0.7958595   -1.7293374  
N   -3.2302264    1.5666941   -0.9133756  
C   -3.3460097   -0.0004262   -2.7913647  
C   -4.2050300   -0.7376509   -3.5315801  
O   -3.8298201   -1.5261790   -4.5530897  
C   -5.6737588   -0.7329696   -3.2651715  
O   -6.3965398   -1.4282093   -3.9789291  
C   -6.2140639    0.0921557   -2.1701087  
H   -6.3895971    2.0144730    0.1884314  
H   -4.6590772   -1.9185774   -4.8809756  
H   -7.2835617    0.0678998   -2.0094328  
C    0.0000000    0.0000000    0.0000000  
C    1.0662919   -0.0000103   -0.8334272  
C    0.4961868    0.0000066   -2.1718889  
C   -0.9663860   -0.0000849   -1.9540248  
N   -1.2632775   -0.0000084   -0.6828659  
C   -1.8985364   -0.0000515   -3.0477258  
C   -1.3925778    0.0004567   -4.3020543  
O   -2.1456385    0.0005412   -5.4151314  
C    0.0786229    0.0009326   -4.5544999  
O    0.4683756    0.0012594   -5.7221104  
C    1.0143162    0.0008443   -3.4159034  
H    2.1107195    0.0000631   -0.5721869  
H   -1.5042277    0.0009692   -6.1484420  
H    2.0724151    0.0013151   -3.6409746  
C    3.2798086   -0.0005857    2.9199648  
C    2.5571146   -0.0005566    4.0696553  
C    1.1637436   -0.0001548    3.6910360  
C    1.1336965    0.0000200    2.2159470  
N    2.4483514    0.0001428    1.8102719  
C    0.0000000    0.0000000    1.4700000  
C   -1.2757367    0.0000186    2.1664417  
O   -2.3524596    0.0000640    1.5842315  
C   -1.2676493    0.0000873    3.7284083  
O   -2.3355761    0.0004100    4.3257297  
C    0.0181563   -0.0001760    4.4216297  
H    2.9547357   -0.0006076    5.0689105  
H    0.0150794   -0.0003319    5.5031631  
H    4.3498549   -0.0008612    2.7900019  
H    2.7563627   -0.0012824    0.8551938  
