60

C   -3.3003534   -0.0019571   -1.4738997  
C   -2.5232800   -0.0014426   -2.6090754  
C   -1.1623191   -0.0003716   -2.1820105  
C   -1.1711883   -0.0005657   -0.7636148  
N   -2.4852303    0.0004155   -0.3662366  
C    0.0000000    0.0000000    0.0000000  
C    1.2020383    0.0004686   -0.6806474  
O    2.3759246    0.0006796    0.0157751  
C    1.2314657    0.0010445   -2.0955506  
O    2.5054393    0.0018888   -2.6250173  
C    0.0764524    0.0007603   -2.8495195  
H   -2.8919944   -0.0006907   -3.6205308  
H   -2.8036227   -0.0100325    0.5858653  
H    3.0835639    0.0013008   -0.6418809  
H    2.4360053    0.0022078   -3.5845915  
H    0.1304103    0.0013985   -3.9319085  
C   -6.5907937   -0.0032669   -4.4182898  
C   -5.3731470   -0.0027260   -3.8171153  
C   -5.6071039   -0.0027392   -2.3922996  
C   -7.0713629   -0.0033658   -2.2113705  
N   -7.6095186   -0.0032635   -3.4775771  
C   -7.6973056   -0.0039599   -1.0072526  
C   -6.8738973   -0.0037578    0.1904672  
O   -7.3427974   -0.0041896    1.3211458  
C   -5.3209686   -0.0028441    0.0224871  
O   -4.6174380   -0.0023600    1.0236391  
C   -4.7630494   -0.0025387   -1.3275417  
H   -4.4198578   -0.0021770   -4.3149638  
H   -8.7727842   -0.0045440   -0.8965487  
H   -8.5911142   -0.0051581   -3.6861757  
C   -6.0601914   -0.0035044   -6.8997380  
C   -6.9165194   -0.0035180   -5.8517483  
C   -8.2423182   -0.0039865   -6.4507110  
C   -7.9928251   -0.0041036   -7.9082217  
N   -6.7155335   -0.0039029   -8.1775091  
C   -9.0660785   -0.0045907   -8.8638437  
C  -10.3310722   -0.0053337   -8.3851737  
O  -11.4275757   -0.0058446   -9.1621676  
C  -10.6153260   -0.0056086   -6.9197857  
O  -11.7911032   -0.0061685   -6.5554160  
C   -9.4972633   -0.0050544   -5.9596491  
H   -8.8546946   -0.0044591   -9.9231956  
H  -12.1746083   -0.0063475   -8.5367911  
H   -9.7452010   -0.0053918   -4.9066741  
H   -4.9820320   -0.0032236   -6.8763785  
C    0.8400945    0.7047457    2.2710304  
C    0.0000000    0.0000000    1.4700000  
C   -0.8844236   -0.7423113    2.3369512  
C   -0.4878984   -0.4098547    3.7186280  
N    0.5629682    0.4714286    3.6095011  
C   -1.0836927   -0.9095027    4.8308716  
C   -2.1891196   -1.8367527    4.6554461  
O   -2.7906899   -2.3413415    5.5944904  
C   -2.6257283   -2.2031529    3.2011665  
O   -3.5549479   -2.9829990    3.0410059  
C   -1.9068976   -1.5999348    2.0816745  
H   -0.7774656   -0.6525820    5.8354244  
H   -2.2155208   -1.8586617    1.0779135  
H    1.6384792    1.3747609    1.9961646  
H    1.0518368    0.8833920    4.3830260  
