58

C   -8.4424003    0.7413086   -2.1359148  
C   -9.6631285    0.7700643   -1.5417171  
C  -10.1946522   -0.5708672   -1.6066800  
C   -9.1762066   -1.3890681   -2.2923225  
N   -8.1392607   -0.5342864   -2.5872496  
C   -9.3010696   -2.7157891   -2.5490810  
C  -10.5199663   -3.3823205   -2.1218079  
O  -10.7272252   -4.5744223   -2.3068438  
C  -11.6120796   -2.5352456   -1.3941004  
O  -12.6426139   -3.0854294   -1.0300169  
C  -11.3630493   -1.1128009   -1.1739027  
H  -10.1372267    1.6322744   -1.1076220  
H   -8.5419478   -3.2975377   -3.0532771  
H  -12.1241250   -0.5333960   -0.6691489  
H   -7.7388220    1.5447083   -2.2822587  
C   -4.0230209    0.6852479   -1.8410563  
C   -3.3460097   -0.0004262   -2.7913647  
C   -4.3652413   -0.7461028   -3.5136062  
C   -5.6347339   -0.3825697   -2.8481619  
N   -5.4404329    0.4562398   -1.8670220  
C   -6.8979172   -0.9192523   -3.2741031  
C   -6.8931417   -1.7796796   -4.3176431  
O   -7.9981918   -2.3562940   -4.8200577  
C   -5.6284700   -2.1658224   -5.0102181  
O   -5.6989691   -2.9542263   -5.9529106  
C   -4.3454709   -1.6017428   -4.5545287  
H   -7.6764566   -2.9130446   -5.5519506  
H   -3.4519528   -1.9064880   -5.0827208  
H   -3.6257277    1.3575928   -1.0973603  
C    0.0000000    0.0000000    0.0000000  
C    1.0662919   -0.0000103   -0.8334272  
C    0.4961868    0.0000066   -2.1718889  
C   -0.9663860   -0.0000849   -1.9540248  
N   -1.2632775   -0.0000084   -0.6828659  
C   -1.8985364   -0.0000515   -3.0477258  
C   -1.3925778    0.0004567   -4.3020543  
O   -2.1456385    0.0005412   -5.4151314  
C    0.0786229    0.0009326   -4.5544999  
O    0.4683756    0.0012594   -5.7221104  
C    1.0143162    0.0008443   -3.4159034  
H    2.1107195    0.0000631   -0.5721869  
H   -1.5042277    0.0009692   -6.1484420  
H    2.0724151    0.0013151   -3.6409746  
C    3.2798086   -0.0005857    2.9199648  
C    2.5571146   -0.0005566    4.0696553  
C    1.1637436   -0.0001548    3.6910360  
C    1.1336965    0.0000200    2.2159470  
N    2.4483514    0.0001428    1.8102719  
C    0.0000000    0.0000000    1.4700000  
C   -1.2757367    0.0000186    2.1664417  
O   -2.3524596    0.0000640    1.5842315  
C   -1.2676493    0.0000873    3.7284083  
O   -2.3355761    0.0004100    4.3257297  
C    0.0181563   -0.0001760    4.4216297  
H    2.9547357   -0.0006076    5.0689105  
H    0.0150794   -0.0003319    5.5031631  
H    4.3498549   -0.0008612    2.7900019  
H    2.7563627   -0.0012824    0.8551938  
