64

C    6.7748111   -0.0038151    1.2764663  
C    5.5082322   -0.0036675    0.7395818  
C    5.6573263   -0.0010632   -0.6789964  
C    7.0493884    0.0000129   -0.9511882  
N    7.6991164    0.0002432    0.2581382  
C    7.5659486    0.0022548   -2.2503994  
C    6.6607399    0.0031247   -3.2938430  
O    7.1109049    0.0049537   -4.5823933  
C    5.2680304    0.0024511   -3.0424943  
O    4.4967633    0.0038934   -4.1863859  
C    4.7577216    0.0005129   -1.7610467  
H    4.5898234   -0.0041378    1.3012932  
H    8.6258306    0.0032289   -2.4645281  
H    6.3261382    0.0055797   -5.1457817  
H    3.5699424    0.0032894   -3.9283021  
H    7.0920038   -0.0050485    2.3052258  
C   10.3546842   -2.1391198    3.1496331  
C    9.2638520   -1.6685652    2.4559987  
C    9.7591633   -0.7901689    1.4471943  
C   11.1715961   -0.7641799    1.5748163  
N   11.4997816   -1.5925915    2.6191557  
C   11.9924238    0.0003374    0.7402249  
C   11.3762070    0.7520813   -0.2412717  
O   12.1302686    1.5165403   -1.0838902  
C    9.9682833    0.7395767   -0.3841529  
O    9.5063309    1.5408775   -1.4078035  
C    9.1578759   -0.0141921    0.4390093  
H    8.2373192   -1.9258189    2.6535964  
H   12.4325524   -1.7823586    2.9383881  
H   13.0695095    0.0245755    0.8324143  
H   11.5115187    1.9535972   -1.6833851  
H    8.5468992    1.4753293   -1.4360527  
H   10.4063964   -2.8202395    3.9817165  
C    3.3041270    0.0001177   -1.5420435  
C    2.5845370   -0.0004780   -0.3695856  
C    1.2040004   -0.0000007   -0.7283590  
C    1.1422370    0.0006038   -2.1454373  
N    2.4348634    0.0026110   -2.6077469  
C   -0.0655187    0.0008799   -2.8497918  
C   -1.2321769    0.0002326   -2.1101398  
O   -2.4392822    0.0001149   -2.7472517  
C   -1.1911211   -0.0000007   -0.6955263  
O   -2.4371526   -0.0002319   -0.1032858  
C    0.0000000    0.0000000    0.0000000  
H    3.0031534   -0.0000661    0.6222578  
H    2.7054623   -0.0071098   -3.5745266  
H   -0.1193555    0.0014846   -3.9297472  
H   -3.1132992   -0.0000646   -2.0551783  
H   -2.3200279   -0.0004070    0.8516411  
C    0.8400945    0.7047457    2.2710304  
C    0.0000000    0.0000000    1.4700000  
C   -0.8844236   -0.7423113    2.3369512  
C   -0.4878984   -0.4098547    3.7186280  
N    0.5629682    0.4714286    3.6095011  
C   -1.0836927   -0.9095027    4.8308716  
C   -2.1891196   -1.8367527    4.6554461  
O   -2.7906899   -2.3413415    5.5944904  
C   -2.6257283   -2.2031529    3.2011665  
O   -3.5549479   -2.9829990    3.0410059  
C   -1.9068976   -1.5999348    2.0816745  
H   -0.7774656   -0.6525820    5.8354244  
H   -2.2155208   -1.8586617    1.0779135  
H    1.6384792    1.3747609    1.9961646  
H    1.0518368    0.8833920    4.3830260  
