62

C    1.1188649    0.0008232   -0.8003809  
C    0.0000000    0.0000000    0.0000000  
C   -1.1323859    0.0008897   -0.8673532  
C   -0.6382652    0.0019680   -2.1969285  
N    0.7324027    0.0038490   -2.1202241  
C   -1.4770899    0.0027316   -3.3154819  
C   -2.8395467    0.0020934   -3.0876869  
O   -3.7039184    0.0024412   -4.1440363  
C   -3.3517862    0.0013915   -1.7684344  
O   -4.7300486    0.0012343   -1.7073138  
C   -2.5248541    0.0009111   -0.6644828  
H   -1.1067551    0.0036988   -4.3313816  
H   -4.5940015    0.0021809   -3.7685148  
H   -4.9934595    0.0007235   -0.7819932  
H   -2.9462574    0.0005586    0.3339641  
H    2.1619898    0.0009369   -0.5342063  
C    2.8054217   -0.6982259   -3.4042816  
C    1.6478447   -0.0100084   -3.2702996  
C    1.4994882    0.7211756   -4.5192433  
C    2.6893854    0.3473425   -5.3135843  
N    3.4585391   -0.4845268   -4.6652122  
C    2.9176258    0.8683871   -6.6332452  
C    1.9987265    1.7236973   -7.1366367  
O    2.0843858    2.2859882   -8.3542296  
C    0.7872973    2.1199535   -6.3597321  
O   -0.0071232    2.9029339   -6.8803656  
C    0.5757371    1.5718717   -5.0081505  
H    1.2880807    2.8425596   -8.4268860  
H   -0.3143090    1.8835698   -4.4781577  
H    3.2692090   -1.3626327   -2.6926366  
C    4.6511970   -0.7917057   -7.4201752  
C    5.7719614   -0.7905311   -8.2178921  
C    5.9348347    0.5401392   -8.7051178  
C    4.8747453    1.3133279   -8.1663071  
N    4.1129053    0.4735287   -7.3923859  
C    4.7199151    2.6764300   -8.4360638  
C    5.6523961    3.2698806   -9.2646008  
O    5.5487960    4.5982708   -9.5606761  
C    6.7169438    2.5150851   -9.8121769  
O    7.5620084    3.2495486  -10.6182617  
C    6.8701518    1.1702518   -9.5467019  
H    6.3948079   -1.6440414   -8.4242326  
H    3.9140790    3.2712721   -8.0286414  
H    6.2890512    4.8061991  -10.1455293  
H    8.2523724    2.6656829  -10.9470501  
H    7.6955415    0.6181193   -9.9807064  
H    4.1923785   -1.5952762   -6.8699757  
C    0.8400945    0.7047457    2.2710304  
C    0.0000000    0.0000000    1.4700000  
C   -0.8844236   -0.7423113    2.3369512  
C   -0.4878984   -0.4098547    3.7186280  
N    0.5629682    0.4714286    3.6095011  
C   -1.0836927   -0.9095027    4.8308716  
C   -2.1891196   -1.8367527    4.6554461  
O   -2.7906899   -2.3413415    5.5944904  
C   -2.6257283   -2.2031529    3.2011665  
O   -3.5549479   -2.9829990    3.0410059  
C   -1.9068976   -1.5999348    2.0816745  
H   -0.7774656   -0.6525820    5.8354244  
H   -2.2155208   -1.8586617    1.0779135  
H    1.6384792    1.3747609    1.9961646  
H    1.0518368    0.8833920    4.3830260  
