60

C   -1.1160430    0.1367147   -0.7919006  
C   -0.7440838    0.0742130   -2.1148547  
C    0.6698844   -0.1117602   -2.1414702  
C    1.1093231   -0.1558529   -0.7935554  
N    0.0000000    0.0000000    0.0000000  
C    2.4511324   -0.3288224   -0.4408241  
C    3.3659559   -0.4599683   -1.4675061  
O    4.6890413   -0.6315000   -1.1793474  
C    2.9469908   -0.4182284   -2.8186328  
O    3.9771956   -0.5629708   -3.7247626  
C    1.6234638   -0.2473479   -3.1673483  
H   -1.4098189    0.1540686   -2.9571210  
H    2.7925060   -0.3631511    0.5845968  
H    5.1465185   -0.7002053   -2.0274390  
H    3.6090395   -0.5233399   -4.6127350  
H   -2.0889494    0.2694317   -0.3505409  
C    1.2288445   -0.2092078   -4.5828767  
C   -0.0070474   -0.0516108   -5.1230711  
C    0.1529330   -0.0867917   -6.5576456  
C    1.5936622   -0.2792115   -6.8107562  
N    2.1902611   -0.3452836   -5.5727767  
C    2.1528152   -0.3654413   -8.0442944  
C    1.2772431   -0.2615951   -9.1997699  
O    1.6846084   -0.3269184  -10.3521964  
C   -0.2519008   -0.0573537   -8.9552088  
O   -0.9988437    0.0317544   -9.9202978  
C   -0.7363940    0.0201797   -7.5793066  
H   -0.9258782    0.0750329   -4.5787134  
H    3.2121115   -0.5068219   -8.2080421  
H    3.1724876   -0.4746693   -5.4129719  
C   -3.0139033    2.4613411   -4.6896503  
C   -2.0272785    1.8576839   -5.4011588  
C   -2.6704136    1.0282651   -6.3927619  
C   -4.1230134    1.1994423   -6.1992611  
N   -4.2644556    2.0800126   -5.1516545  
C   -5.0757624    0.5813378   -6.9421753  
C   -4.6415516   -0.3123197   -8.0030110  
O   -5.4225974   -0.9156933   -8.7270329  
C   -3.1080284   -0.5087245   -8.2255807  
O   -2.7304988   -1.2588932   -9.1155125  
C   -2.1773202    0.2122386   -7.3607999  
H   -0.9696686    1.9793834   -5.2486330  
H   -6.1361437    0.7207759   -6.7838783  
H   -2.9326435    3.1525337   -3.8665226  
H   -5.1410901    2.3983546   -4.7812250  
C    0.0000000    0.0000000    1.4700000  
C    1.0541688    0.0001722    2.3260392  
C    0.5103138    0.0000454    3.6635956  
C   -0.9576371   -0.0002459    3.5155732  
N   -1.2018458    0.0001392    2.1615969  
C   -1.8348311   -0.0008317    4.5510609  
C   -1.2972847   -0.0009736    5.9014604  
O   -2.0050672   -0.0014265    6.9001319  
C    0.2542623   -0.0004184    6.0817573  
O    0.7184670   -0.0002256    7.2139121  
C    1.0974552   -0.0000873    4.8889129  
H    2.0940752    0.0005483    2.0517982  
H   -2.9081052   -0.0011668    4.4207061  
H    2.1707277    0.0000911    5.0223670  
H   -2.1128194   -0.0014912    1.7406791  
