58

C    2.4521484    0.0014842   -3.7217481  
C    3.5087820    0.0024555   -2.8687537  
C    4.7039150    0.0027665   -3.6789965  
C    4.2537131    0.0019197   -5.0840259  
N    2.8785577    0.0007668   -5.0411852  
C    5.0840338    0.0023144   -6.1574656  
C    6.5167227    0.0034371   -5.9126443  
O    7.3462793    0.0038069   -6.8127195  
C    7.0158847    0.0040952   -4.4325625  
O    8.2198450    0.0047346   -4.2140697  
C    6.0245765    0.0038618   -3.3596409  
H    3.4569035    0.0027207   -1.7945466  
H    4.7332282    0.0018078   -7.1801314  
H    6.3784128    0.0045265   -2.3376217  
H    2.2773151    0.0015478   -5.8446488  
C    0.0000000    0.0000000    0.0000000  
C    1.0662922   -0.0000101   -0.8334266  
C    0.4961875    0.0000066   -2.1718886  
C   -0.9663853   -0.0000848   -1.9540248  
N   -1.2632772   -0.0000083   -0.6828658  
C   -1.8985359   -0.0000514   -3.0477260  
C   -1.3925768    0.0004568   -4.3020543  
O   -2.1456378    0.0005413   -5.4151314  
C    0.0786238    0.0009327   -4.5544999  
O    0.4683768    0.0012594   -5.7221098  
C    1.0143171    0.0008446   -3.4159030  
H    2.1107199    0.0000634   -0.5721863  
H   -1.5042266    0.0009697   -6.1484425  
C   -4.2186865    2.1401321   -0.0437266  
C   -5.4804249    1.7323143   -0.3144303  
C   -5.3466894    0.8217464   -1.4411425  
C   -3.8965659    0.7958598   -1.7293377  
N   -3.2302257    1.5666945   -0.9133757  
C   -3.3460091   -0.0004261   -2.7913651  
C   -4.2050292   -0.7376506   -3.5315803  
O   -3.8298198   -1.5261787   -4.5530900  
C   -5.6737583   -0.7329690   -3.2651718  
O   -6.3965393   -1.4282088   -3.9789299  
C   -6.2140635    0.0921568   -2.1701089  
H   -6.3895961    2.0144738    0.1884308  
H   -4.6590771   -1.9185766   -4.8809757  
H   -7.2835613    0.0679007   -2.0094331  
H   -3.8917480    2.8223390    0.7248292  
C    1.0965515   -0.0001358    2.2710304  
C    0.0000000    0.0000000    1.4700000  
C   -1.1546562   -0.0001469    2.3369512  
C   -0.6372014   -0.0003519    3.7186280  
N    0.7342871   -0.0007337    3.6095011  
C   -1.4147739   -0.0001353    4.8308716  
C   -2.8576048    0.0001048    4.6554461  
O   -3.6427778    0.0002493    5.5944904  
C   -3.4275839    0.0000726    3.2011665  
O   -4.6406829   -0.0000333    3.0410059  
C   -2.4891866    0.0001091    2.0816745  
H   -1.0150448   -0.0001615    5.8354244  
H   -2.8919121    0.0002919    1.0779135  
H    2.1388271   -0.0000662    1.9961646  
H    1.3735872    0.0006099    4.3830260  
