58

C   -0.0307357   -0.0004648   -4.4215605  
C    1.0209936   -0.0006525   -5.2805953  
C    0.4733354   -0.0007748   -6.6165992  
C   -0.9941884   -0.0006127   -6.4644009  
N   -1.2345441   -0.0008272   -5.1097354  
C   -1.8743250   -0.0002665   -7.4973890  
C   -1.3406225   -0.0002646   -8.8493125  
O   -2.0512434   -0.0000286   -9.8459665  
C    0.2104050   -0.0006867   -9.0340228  
O    0.6713870   -0.0009954  -10.1674933  
C    1.0569883   -0.0007589   -7.8435821  
H    2.0616756   -0.0008823   -5.0093139  
H    2.1298764   -0.0008465   -7.9800891  
H   -2.1443168    0.0007705   -4.6862276  
C    3.2573671   -0.0002921   -1.5109385  
C    2.5379468   -0.0001709   -0.3591966  
C    1.1435043    0.0000332   -0.7338505  
C    1.1092606   -0.0000083   -2.2088481  
N    2.4227561    0.0001908   -2.6182617  
C   -0.0265535   -0.0002524   -2.9515665  
C   -1.3003038   -0.0002640   -2.2514985  
O   -2.3786788   -0.0004132   -2.8306428  
C   -1.2877726    0.0000312   -0.6895607  
O   -2.3539957    0.0003306   -0.0892034  
C    0.0000000    0.0000000    0.0000000  
H    2.9384092   -0.0000368    0.6389229  
H    4.3270393   -0.0004765   -1.6439450  
H    2.7280488   -0.0013408   -3.5742119  
C   -4.5240997    2.0940768   -4.6532988  
C   -3.4492644    1.6313667   -5.3422858  
C   -3.9530636    0.7351134   -6.3560661  
C   -5.4200347    0.7134701   -6.2001224  
N   -5.7019430    1.5575682   -5.1508770  
C   -6.2646350   -0.0161413   -6.9721474  
C   -5.6905157   -0.8349053   -8.0269206  
O   -6.3673461   -1.5277113   -8.7754004  
C   -4.1393050   -0.8274302   -8.2099381  
O   -3.6444616   -1.5130362   -9.0944350  
C   -3.3330910    0.0000650   -7.3160013  
H   -2.4208460    1.8884084   -5.1609049  
H   -7.3378333   -0.0177547   -6.8411778  
H   -4.5548282    2.7817063   -3.8237737  
H   -6.6218040    1.7551633   -4.8017935  
C    0.8175213    0.6860729    2.3021913  
C    0.0000000    0.0000000    1.4700000  
C   -0.8887526   -0.7456559    2.3478473  
C   -0.4549825   -0.3816753    3.7138435  
N    0.5448156    0.4573574    3.6934124  
C   -1.0945674   -0.9182058    4.8835240  
C   -2.1210866   -1.7789155    4.6970523  
O   -2.8083856   -2.3554314    5.6976972  
C   -2.5824069   -2.1655116    3.3310774  
O   -3.5227682   -2.9541547    3.2362962  
C   -1.9100805   -1.6015804    2.1470656  
H   -0.7567140   -0.6349833    5.8697035  
H   -3.4728268   -2.9124471    5.2533954  
H   -2.2742832   -1.9066565    1.1752040  
H    1.6189533    1.3585343    2.0405121  
