64

C    3.3041270    0.0001178   -1.5420432  
C    2.5845372   -0.0004779   -0.3695853  
C    1.2040007   -0.0000006   -0.7283591  
C    1.1422373    0.0006039   -2.1454374  
N    2.4348636    0.0026110   -2.6077466  
C   -0.0655186    0.0008800   -2.8497915  
C   -1.2321770    0.0002326   -2.1101397  
O   -2.4392818    0.0001149   -2.7472515  
C   -1.1911209   -0.0000006   -0.6955262  
O   -2.4371522   -0.0002319   -0.1032858  
C    0.0000000    0.0000000    0.0000000  
H    3.0031535   -0.0000661    0.6222580  
H    2.7054625   -0.0071097   -3.5745263  
H   -3.1132993   -0.0000646   -2.0551781  
H   -2.3200286   -0.0004070    0.8516413  
C    5.7082757    0.0170072   -0.7673040  
C    6.9602955    0.0287163   -1.3371950  
C    6.7741497    0.0207406   -2.7513683  
C    5.3755275    0.0043196   -2.9869819  
N    4.7577214    0.0005130   -1.7610465  
C    4.8251842   -0.0068313   -4.2722002  
C    5.7027234   -0.0009973   -5.3390031  
O    5.2190233   -0.0110097   -6.6153055  
C    7.1014511    0.0149721   -5.1242409  
O    7.8424792    0.0185579   -6.2879461  
C    7.6450841    0.0257060   -3.8566158  
H    7.8930383    0.0403357   -0.7997483  
H    3.7601289   -0.0195069   -4.4584764  
H    5.9887337   -0.0049083   -7.1990633  
H    8.7756807    0.0295845   -6.0542418  
H    8.7205207    0.0376812   -3.7233001  
H    5.4181286    0.0176706    0.2694090  
C    2.2991554   -2.1048097   -5.8924429  
C    1.6888956   -1.6397492   -7.0128789  
C    0.6412937   -0.7448181   -6.5810641  
C    0.6916331   -0.7264670   -5.1066422  
N    1.7177148   -1.5716516   -4.7520878  
C   -0.1387086    0.0017020   -4.3179679  
C   -1.1495782    0.8219302   -4.9644225  
O   -1.9445183    1.5135267   -4.3414737  
C   -1.2212027    0.8175536   -6.5247612  
O   -2.0683181    1.5039444   -7.0802108  
C   -0.2716616   -0.0081808   -7.2666415  
H    1.9434327   -1.8946828   -8.0262068  
H   -0.3277644   -0.0054792   -8.3467194  
H    3.1245930   -2.7923373   -5.8038523  
H    2.0018696   -1.7690375   -3.8100996  
C    2.5285572    2.1210227    2.9438989  
C    1.9331703    1.6216660    4.0790748  
C    0.8903039    0.7472258    3.6520102  
C    0.8972198    0.7527806    2.2336141  
N    1.9028376    1.5986179    1.8362361  
C    0.0000000    0.0000000    1.4700000  
C   -0.9207814   -0.7726952    2.1506477  
O   -1.8198395   -1.5274828    1.4542253  
C   -0.9436862   -0.7911793    3.5655508  
O   -1.9197945   -1.6098497    4.0950179  
C   -0.0590329   -0.0485852    4.3195194  
H    2.2150357    1.8593692    5.0905303  
H    2.1533708    1.7953814    0.8841339  
H   -2.3621246   -1.9821033    2.1118817  
H   -1.8668290   -1.5649508    5.0545920  
H   -0.1007624   -0.0827977    5.4019087  
H    3.3491200    2.8096064    2.8367138  
