60

C    3.3003546    0.0005277   -1.4738991  
C    2.5232814    0.0003500   -2.6090751  
C    1.1623200   -0.0001317   -2.1820105  
C    1.1711884    0.0000584   -0.7636149  
N    2.4852301   -0.0014918   -0.3662360  
C    0.0000000    0.0000000    0.0000000  
C   -1.2020381    0.0000520   -0.6806482  
O   -2.3759249    0.0003494    0.0157741  
C   -1.2314658   -0.0005112   -2.0955513  
O   -2.5054389   -0.0008037   -2.6250183  
C   -0.0764516   -0.0007271   -2.8495197  
H    2.8919954   -0.0005617   -3.6205304  
H    2.8036264    0.0088181    0.5858648  
H   -3.0835636    0.0000347   -0.6418825  
H   -2.4360049   -0.0011526   -3.5845926  
H    4.3715554    0.0004896   -1.3667140  
C   -0.1496415   -0.0015610   -4.3176962  
C    0.8605985   -0.0020141   -5.2251600  
C    0.2508223   -0.0027517   -6.5339793  
C   -1.2079382   -0.0026617   -6.3130523  
N   -1.3844307   -0.0023261   -4.9485967  
C   -2.1356001   -0.0028338   -7.3035813  
C   -1.6659557   -0.0033535   -8.6790695  
O   -2.4225831   -0.0036047   -9.6412625  
C   -0.1253096   -0.0037095   -8.9363927  
O    0.2819504   -0.0044544  -10.0902555  
C    0.7762281   -0.0032001   -7.7870096  
H    1.9128695   -0.0020326   -5.0030345  
H   -3.2010530   -0.0026332   -7.1199510  
H   -2.2733178   -0.0006339   -4.4828456  
C    3.9827997   -2.1437951   -5.7564309  
C    5.0761432   -1.7364127   -6.4421566  
C    4.5656143   -0.8259271   -7.4555053  
C    3.1043251   -0.7996066   -7.2307288  
N    2.7567869   -1.5701364   -6.2359973  
C    2.2241539   -0.0032620   -8.0408031  
C    2.7786483    0.7336041   -9.0301963  
O    2.0771110    1.5221391   -9.8621211  
C    4.2499825    0.7284801   -9.2818110  
O    4.6854737    1.4234082  -10.1997669  
C    5.1318028   -0.0966975   -8.4371803  
H    6.1023573   -2.0188086   -6.2802531  
H    2.7444694    1.9142340  -10.4537687  
H    6.1918177   -0.0727672   -8.6517180  
H    3.9380457   -2.8258114   -4.9222706  
C    2.5128556    2.1077716    2.9199648  
C    1.9592212    1.6432552    4.0696553  
C    0.8915788    0.7479214    3.6910360  
C    0.8684491    0.7287414    2.2159470  
N    1.8754542    1.5738793    1.8102719  
C    0.0000000    0.0000000    1.4700000  
C   -0.9772830   -0.8200135    2.1664417  
O   -1.8021297   -1.5120829    1.5842315  
C   -0.9711318   -0.8147624    3.7284083  
O   -1.7894187   -1.5009653    4.3257297  
C    0.0140216    0.0115358    4.4216297  
H    2.2638494    1.8988021    5.0689105  
H    0.0117648    0.0094386    5.5031631  
H    3.3327358    2.7953732    2.7900019  
H    2.1123206    1.7707734    0.8551938  
