64

C    3.3003547    0.0005275   -1.4738980  
C    2.5232816    0.0003495   -2.6090742  
C    1.1623206   -0.0001320   -2.1820096  
C    1.1711889    0.0000583   -0.7636136  
N    2.4852300   -0.0014920   -0.3662353  
C    0.0000000    0.0000000    0.0000000  
C   -1.2020382    0.0000519   -0.6806479  
O   -2.3759247    0.0003494    0.0157745  
C   -1.2314650   -0.0005113   -2.0955508  
O   -2.5054383   -0.0008037   -2.6250181  
C   -0.0764510   -0.0007273   -2.8495192  
H    2.8919962   -0.0005621   -3.6205295  
H    2.8036265    0.0088181    0.5858667  
H   -3.0835641    0.0000347   -0.6418820  
H   -2.4360047   -0.0011529   -3.5845921  
C    5.6708527    0.0001559   -2.3611556  
C    4.7630506    0.0004754   -1.3275394  
C    5.5133495   -0.0009826   -0.1144235  
C    6.8855148   -0.0018732   -0.4737112  
N    6.9456606   -0.0031000   -1.8452062  
C    7.9149931   -0.0030748    0.4723126  
C    7.5526788   -0.0030760    1.8053193  
O    8.5177183   -0.0038718    2.7705708  
C    6.1889808   -0.0025710    2.1836640  
O    5.9909385   -0.0030667    3.5489927  
C    5.1728468   -0.0016587    1.2509268  
H    7.7894877    0.0066338   -2.3891194  
H    8.9627174   -0.0039020    0.2049649  
H    8.0554429   -0.0040212    3.6188428  
H    5.0439893   -0.0026485    3.7189663  
H    4.1374041   -0.0014714    1.5708277  
H    5.5098591    0.0005473   -3.4255990  
C    0.6776457   -0.7282730   -5.1604451  
C    0.3570668   -0.5122898   -6.4622344  
C   -0.7499167    0.4146732   -6.4749881  
C   -1.0501122    0.7232609   -5.0638016  
N   -0.1496409   -0.0015614   -4.3176961  
C   -2.0330240    1.5639238   -4.6528574  
C   -2.8499150    2.2075899   -5.6681989  
O   -3.7597000    2.9811073   -5.3993804  
C   -2.5498356    1.8951556   -7.1689126  
O   -3.2311597    2.4309174   -8.0326358  
C   -1.4636358    0.9719958   -7.4879706  
H    0.8407339   -0.9522739   -7.3161047  
H   -2.2366034    1.7767220   -3.6125777  
H   -1.2621726    0.7611268   -8.5294455  
H    1.4485168   -1.3573555   -4.7458340  
C    0.0000000    0.0000000    1.4700000  
C    1.0521667    0.0011902    2.3562342  
C    0.4917218    0.0011957    3.6679131  
C   -0.9187428   -0.0003148    3.5178682  
N   -1.1833171    0.0009411    2.1707914  
C   -1.7951701   -0.0010350    4.6072090  
C   -1.2375837   -0.0005224    5.8710424  
O   -2.0474215   -0.0015360    6.9697579  
C    0.1673580    0.0013566    6.0411963  
O    0.5673524    0.0020687    7.3615553  
C    1.0325770    0.0023412    4.9669890  
H    2.0953057    0.0030649    2.0900562  
H   -2.0989778   -0.0102372    1.7591824  
H   -2.8710934   -0.0020419    4.4995513  
H   -1.4634884   -0.0006497    7.7393593  
H    1.5290710    0.0033153    7.3880045  
H    2.1042148    0.0039609    5.1284455  
