62

C    3.3041272    0.0001177   -1.5420431  
C    2.5845370   -0.0004780   -0.3695856  
C    1.2040004   -0.0000008   -0.7283590  
C    1.1422372    0.0006037   -2.1454372  
N    2.4348639    0.0026111   -2.6077465  
C   -0.0655183    0.0008798   -2.8497916  
C   -1.2321770    0.0002324   -2.1101397  
O   -2.4392813    0.0001147   -2.7472520  
C   -1.1911211   -0.0000007   -0.6955262  
O   -2.4371526   -0.0002320   -0.1032861  
C    0.0000000    0.0000000    0.0000000  
H    3.0031535   -0.0000661    0.6222581  
H    2.7054628   -0.0071098   -3.5745262  
H   -3.1132988   -0.0000650   -2.0551783  
H   -2.3200283   -0.0004072    0.8516412  
C    2.3129716   -2.1206345   -5.9853334  
C    1.8203208   -1.6593259   -4.7866024  
C    0.7463510   -0.7716030   -5.0917857  
C    0.6289213   -0.7306573   -6.5047477  
N    1.5963342   -1.5595249   -7.0163213  
C   -0.3301683    0.0460723   -7.1617300  
C   -1.1865071    0.7948777   -6.3780510  
O   -2.1420034    1.5708501   -6.9678871  
C   -1.0848073    0.7675249   -4.9667659  
O   -2.0089558    1.5677380   -4.3272719  
C   -0.1387085    0.0017018   -4.3179686  
H    2.1903016   -1.9285747   -3.8121214  
H    1.7490274   -1.7403238   -7.9920149  
H   -0.4247473    0.0817359   -8.2382918  
H   -2.6234316    2.0034607   -6.2507127  
H   -1.8718975    1.4918036   -3.3780341  
H    3.1197749   -2.8044119   -6.1865217  
C    4.7577221    0.0005130   -1.7610465  
C    5.7612599   -0.0009797   -0.8461780  
C    7.0028644    0.0003067   -1.5832343  
C    6.6377958    0.0027174   -3.0127480  
N    5.2625474    0.0023275   -3.0525137  
C    7.5310406    0.0048719   -4.0344196  
C    8.9464538    0.0045862   -3.7040573  
O    9.8285341    0.0063487   -4.5527235  
C    9.3558922    0.0017973   -2.1966894  
O   10.5445699    0.0012260   -1.9063366  
C    8.3019807   -0.0000948   -1.1851960  
H    5.6450065   -0.0029591    0.2229783  
H    7.2422424    0.0067507   -5.0762935  
H    8.5938431   -0.0018160   -0.1437848  
H    4.7106080    0.0051847   -3.8906083  
C    2.4951002    2.0940188    2.9809380  
C    1.9440701    1.6314916    1.8291961  
C    0.8759964    0.7350050    2.2038498  
C    0.8497377    0.7130254    3.6788474  
N    1.8560616    1.5571714    4.0882609  
C   -0.0205033   -0.0168748    4.4215661  
C   -0.9962600   -0.8356168    3.7214979  
O   -1.8224391   -1.5286685    4.3006425  
C   -0.9864710   -0.8277881    2.1595606  
O   -1.8030528   -1.5133726    1.5592035  
C    0.0000000    0.0000000    1.4700000  
H    2.2509283    1.8888011    0.8310761  
H   -0.0229599   -0.0187323    5.5027230  
H    3.3143982    2.7817323    3.1139444  
H    2.0889452    1.7545833    5.0442112  
