58

C    0.0000000    0.0000000    0.0000000  
C    1.0541685   -0.0001718   -0.8560392  
C    0.5103137   -0.0000448   -2.1935958  
C   -0.9576367    0.0002463   -2.0455734  
N   -1.2018458   -0.0001390   -0.6915970  
C   -1.8348312    0.0008321   -3.0810610  
C   -1.2972852    0.0009745   -4.4314608  
O   -2.0050675    0.0014276   -5.4301319  
C    0.2542623    0.0004195   -4.6117577  
O    0.7184669    0.0002269   -5.7439119  
C    1.0974552    0.0000881   -3.4189132  
H    2.0940750   -0.0005479   -0.5817985  
H   -2.9081044    0.0011672   -2.9507062  
H   -2.1128195    0.0014912   -0.2706792  
C    4.1988040   -2.1397328   -1.2302381  
C    5.3249605   -1.7327105   -1.8608595  
C    4.8655807   -0.8226603   -2.8987799  
C    3.3949139   -0.7961719   -2.7470504  
N    2.9982276   -1.5662358   -1.7705102  
C    2.5562211   -0.0001540   -3.6003008  
C    3.1593389    0.7362391   -4.5611901  
O    2.5001461    1.5244295   -5.4273667  
C    4.6413757    0.7309348   -4.7392339  
O    5.1220776    1.4254277   -5.6346811  
C    5.4799926   -0.0939005   -3.8513751  
H    6.3418218   -2.0150794   -1.6479354  
H    3.1961609    1.9162266   -5.9852295  
H    4.1125269   -2.8213698   -0.3990337  
C    8.5223309   -3.2582413   -3.7310995  
C    9.6245368   -2.5215476   -4.0252072  
C    9.1840364   -1.1583074   -4.2051288  
C    7.7243884   -1.1611928   -3.9901636  
N    7.3857628   -2.4642808   -3.7069962  
C    6.9331579   -0.0615792   -4.0708410  
C    7.5610479    1.2095664   -4.3909634  
O    6.9343749    2.2566838   -4.4864976  
C    9.1055013    1.2359365   -4.6228565  
O    9.6452298    2.3002815   -4.8932708  
C    9.8518736   -0.0145232   -4.5082621  
H   10.6312343   -2.8909862   -4.1069801  
H   10.9208975    0.0123131   -4.6701007  
H    8.4447027   -4.3144051   -3.5301470  
H    6.4564511   -2.7882382   -3.5108364  
C    1.1319247   -0.0015655    2.2709268  
C    0.7969915   -0.0034943    3.5869401  
C   -0.6453339   -0.0035710    3.6542670  
C   -1.1266833   -0.0015433    2.2596025  
N    0.0000000    0.0000000    1.4700000  
C   -2.4346130   -0.0013964    1.8976294  
C   -3.4350110   -0.0031408    2.9520183  
O   -4.6384611   -0.0030974    2.7283916  
C   -2.9478959   -0.0050506    4.4361073  
O   -3.7809380   -0.0062218    5.3323774  
C   -1.5113823   -0.0053090    4.7012123  
H    1.4821238   -0.0045407    4.4159191  
H   -2.7664565   -0.0000232    0.8686553  
H   -1.1823530   -0.0068408    5.7314848  
H    2.1104316   -0.0009391    1.8188057  
