62

C    2.3021924   -2.1255963   -5.9826723  
C    1.8095081   -1.6629751   -4.7844605  
C    0.7354744   -0.7756730   -5.0906428  
C    0.6180426   -0.7363248   -6.5036491  
N    1.5855154   -1.5656979   -7.0142907  
C   -0.3411026    0.0395967   -7.1615057  
C   -1.1974952    0.7892214   -6.3786696  
O   -2.1530476    1.5644615   -6.9693781  
C   -1.0957943    0.7634630   -4.9673541  
O   -2.0200001    1.5643279   -4.3287611  
C   -0.1496406   -0.0015622   -4.3176960  
H    2.1795076   -1.9311013   -3.8096778  
H    1.7382216   -1.7475826   -7.9897799  
H   -0.4356841    0.0740430   -8.2381069  
H   -2.6345068    1.9978434   -6.2526905  
H   -1.8829368    1.4894711   -3.3794383  
C    3.3003545    0.0005276   -1.4738981  
C    2.5232817    0.0003495   -2.6090741  
C    1.1623206   -0.0001324   -2.1820098  
C    1.1711884    0.0000583   -0.7636136  
N    2.4852302   -0.0014919   -0.3662353  
C    0.0000000    0.0000000    0.0000000  
C   -1.2020385    0.0000519   -0.6806479  
O   -2.3759247    0.0003489    0.0157740  
C   -1.2314655   -0.0005118   -2.0955509  
O   -2.5054387   -0.0008046   -2.6250180  
C   -0.0764511   -0.0007279   -2.8495192  
H    2.8919962   -0.0005624   -3.6205293  
H    2.8036265    0.0088186    0.5858667  
H   -3.0835637    0.0000341   -0.6418819  
H   -2.4360044   -0.0011536   -3.5845924  
H    4.3715550    0.0004898   -1.3667129  
C    5.0648281   -4.3333382   -3.3387831  
C    4.0849366   -3.5322478   -3.8308624  
C    4.1395452   -3.6358256   -5.2700028  
C    5.2394418   -4.5696435   -5.5782268  
N    5.7595975   -4.9560894   -4.3645595  
C    5.6115953   -4.9323073   -6.8318937  
C    4.8801715   -4.3648893   -7.9524253  
O    5.1391131   -4.6290916   -9.1192363  
C    3.7117542   -3.3735522   -7.6493464  
O    3.0889430   -2.8892288   -8.5846526  
C    3.4039279   -3.0595054   -6.2563390  
H    3.4019470   -2.9365929   -3.2517824  
H    6.4213010   -5.6190027   -7.0361862  
H    5.3380027   -4.5209918   -2.3130876  
H    6.5246286   -5.5939899   -4.2426719  
C    2.4951002    2.0940188    2.9809380  
C    1.9440701    1.6314916    1.8291961  
C    0.8759964    0.7350050    2.2038498  
C    0.8497377    0.7130254    3.6788474  
N    1.8560616    1.5571714    4.0882609  
C   -0.0205033   -0.0168748    4.4215661  
C   -0.9962600   -0.8356168    3.7214979  
O   -1.8224391   -1.5286685    4.3006425  
C   -0.9864710   -0.8277881    2.1595606  
O   -1.8030528   -1.5133726    1.5592035  
C    0.0000000    0.0000000    1.4700000  
H    2.2509283    1.8888011    0.8310761  
H   -0.0229599   -0.0187323    5.5027230  
H    3.3143982    2.7817323    3.1139444  
H    2.0889452    1.7545833    5.0442112  
