60

C    1.1243403    0.0100029   -0.7919009  
C    0.7474064    0.0234619   -2.1148552  
C   -0.6787394    0.0234431   -2.1414700  
C   -1.1201752    0.0098490   -0.7935546  
N    0.0000000    0.0000000    0.0000000  
C   -2.4730820    0.0063480   -0.4408229  
C   -3.3971966    0.0170669   -1.4675046  
O   -4.7313529    0.0145821   -1.1793447  
C   -2.9763667    0.0303235   -2.8186309  
O   -4.0166495    0.0394751   -3.7247606  
C   -1.6418583    0.0335116   -3.1673474  
H    1.4178696    0.0311112   -2.9571216  
H   -2.8160166   -0.0041375    0.5845978  
H   -5.1938831    0.0230387   -2.0274364  
H   -3.6464704    0.0481967   -4.6127325  
H    2.1062461    0.0053017   -0.3505415  
C    1.5662356   -2.0369162   -5.3849803  
C    0.7247490   -1.5841809   -4.4200930  
C   -0.2036066   -0.6824642   -5.0603260  
C    0.1686564   -0.6467444   -6.4875381  
N    1.2488382   -1.4887384   -6.6184712  
C   -0.4698326    0.0914794   -7.4304386  
C   -1.5988986    0.9053202   -7.0116215  
O   -2.2390138    1.6051045   -7.7854791  
C   -2.0104680    0.8829708   -5.5049968  
O   -2.9592560    1.5643190   -5.1405433  
C   -1.2456357    0.0471620   -4.5828760  
H    0.7514465   -1.8512621   -3.3786672  
H   -0.1807858    0.1033808   -8.4721781  
H    2.3916716   -2.7247378   -5.2986885  
C    1.9550499   -1.7654723   -7.8776710  
C    3.0210422   -2.5765830   -8.1009077  
C    3.3258642   -2.4930358   -9.5097858  
C    2.3430492   -1.5600519  -10.0932291  
N    1.5406378   -1.1549159   -9.0516484  
C    2.2959682   -1.2138063  -11.4045647  
C    3.2787309   -1.7992787  -12.3011894  
O    3.3191179   -1.5506351  -13.4990393  
C    4.3288170   -2.7900716  -11.7049902  
O    5.1609647   -3.2895039  -12.4502146  
C    4.2793374   -3.0855397  -10.2752691  
H    3.5350438   -3.1662774   -7.3628855  
H    1.5668391   -0.5274075  -11.8121629  
H    5.0100523   -3.7724017   -9.8702991  
H    0.7735391   -0.5128741   -9.1315869  
C    0.8681109    0.7263879    2.2709268  
C    0.6127770    0.5096195    3.5869401  
C   -0.4920590   -0.4175482    3.6542670  
C   -0.8620974   -0.7254003    2.2596025  
N    0.0000000    0.0000000    1.4700000  
C   -1.8641242   -1.5660088    1.8976294  
C   -2.6293522   -2.2103885    2.9520183  
O   -3.5512764   -2.9839180    2.7283916  
C   -2.2549728   -1.8987399    4.4361073  
O   -2.8923672   -2.4351063    5.3323774  
C   -1.1543735   -0.9755647    4.7012123  
H    1.1382914    0.9492124    4.4159191  
H   -2.1192137   -1.7782617    0.8686553  
H   -0.9013378   -0.7652422    5.7314848  
H    1.6172880    1.3558399    1.8188057  
