58

C   -0.9804205    0.5657140   -0.8009271  
C   -0.6915150    0.3962509   -2.1169404  
C    0.5567221   -0.3263881   -2.1842674  
C    0.9743268   -0.5657785   -0.7896026  
N    0.0000000    0.0000000    0.0000000  
C    2.1063612   -1.2208945   -0.4276293  
C    2.9712926   -1.7235812   -1.4820183  
O    4.0128524   -2.3264447   -1.2583917  
C    2.5487572   -1.4812000   -2.9661070  
O    3.2691357   -1.8995491   -3.8623773  
C    1.3053821   -0.7617630   -3.2312125  
H    2.3942461   -1.3859521    0.6013445  
H    1.0198532   -0.5982522   -4.2614851  
H   -1.8269655    1.0564661   -0.3488062  
C   -3.0369836    4.0731047   -3.0356157  
C   -2.2534970    3.1801584   -2.3872521  
C   -2.1362526    2.0525553   -3.2989892  
C   -2.9329369    2.4448686   -4.4813459  
N   -3.4632913    3.6283558   -4.3327800  
C   -3.0702191    1.5860756   -5.6253366  
C   -2.4399348    0.3899058   -5.5899299  
O   -2.4818256   -0.5103401   -6.5868471  
C   -1.6282325   -0.0345178   -4.4113014  
O   -1.0822475   -1.1371466   -4.4477816  
C   -1.5027158    0.8641672   -3.2500368  
H   -1.8098351    3.2749997   -1.4109095  
H   -3.6587898    1.8982437   -6.4756574  
H   -1.9404672   -1.2559946   -6.2704871  
C   -2.4248818    6.5077475    0.6470856  
C   -2.3565712    5.4927925   -0.2455397  
C   -3.1545179    5.9354536   -1.3786029  
C   -3.6432165    7.2757007   -0.9893804  
N   -3.2186900    7.6165732    0.1970314  
C   -4.4806578    8.0608396   -1.8538662  
C   -4.8143888    7.5313127   -3.0528486  
O   -5.5888410    8.1527665   -3.9584199  
C   -4.3367057    6.1814517   -3.4745781  
O   -4.6797835    5.7622296   -4.5799155  
C   -3.4787388    5.3955895   -2.5700132  
H   -1.8296866    4.5590845   -0.1472647  
H   -4.8234633    9.0371506   -1.5436850  
H   -5.6464038    7.5294143   -4.7049261  
H   -1.9646184    6.5681944    1.6204702  
C    0.8681109    0.7263879    2.2709268  
C    0.6127770    0.5096195    3.5869401  
C   -0.4920590   -0.4175482    3.6542670  
C   -0.8620974   -0.7254003    2.2596025  
N    0.0000000    0.0000000    1.4700000  
C   -1.8641242   -1.5660088    1.8976294  
C   -2.6293522   -2.2103885    2.9520183  
O   -3.5512764   -2.9839180    2.7283916  
C   -2.2549728   -1.8987399    4.4361073  
O   -2.8923672   -2.4351063    5.3323774  
C   -1.1543735   -0.9755647    4.7012123  
H    1.1382914    0.9492124    4.4159191  
H   -2.1192137   -1.7782617    0.8686553  
H   -0.9013378   -0.7652422    5.7314848  
H    1.6172880    1.3558399    1.8188057  
