58

C    6.8894657    0.1892331   -4.3681675  
C    7.8709863   -0.4697668   -3.7000265  
C    9.1233910   -0.0910497   -4.3106754  
C    8.7886563    0.8493717   -5.3971151  
N    7.4188391    0.9765700   -5.3794060  
C    9.6997056    1.4360987   -6.2140883  
C   11.1036222    1.1201148   -6.0098574  
O   12.0000133    1.5970621   -6.6934537  
C   11.4809697    0.1264681   -4.8652700  
O   12.6597037   -0.1473846   -4.6840228  
C   10.4100251   -0.4416350   -4.0502926  
H    7.7333505   -1.1443444   -2.8738215  
H    9.4331021    2.1232881   -7.0050385  
H   10.6797039   -1.1286359   -3.2597065  
H    6.8859446    1.5541238   -6.0035074  
C    4.5414472   -2.0136864   -1.4319367  
C    3.2784306   -1.6314301   -1.7323497  
C    3.4206903   -0.7132107   -2.8517851  
C    4.8766551   -0.6552126   -3.1035523  
N    5.5387695   -1.4155493   -2.2744069  
C    5.4363359    0.1572550   -4.1484162  
C    4.5803865    0.8786770   -4.9075175  
O    4.9639647    1.6794178   -5.9163398  
C    3.1058537    0.8409940   -4.6783999  
O    2.3863360    1.5234829   -5.4075938  
C    2.5562217   -0.0001543   -3.6003001  
H    2.3632541   -1.9351318   -1.2535048  
H    4.1348743    2.0549943   -6.2637662  
H    4.8636452   -2.6922675   -0.6581867  
C    0.0000000    0.0000000    0.0000000  
C    1.0541688   -0.0001719   -0.8560391  
C    0.5103141   -0.0000449   -2.1935955  
C   -0.9576367    0.0002461   -2.0455733  
N   -1.2018459   -0.0001392   -0.6915970  
C   -1.8348306    0.0008319   -3.0810611  
C   -1.2972842    0.0009739   -4.4314605  
O   -2.0050664    0.0014267   -5.4301321  
C    0.2542628    0.0004190   -4.6117571  
O    0.7184677    0.0002263   -5.7439119  
C    1.0974556    0.0000880   -3.4189127  
H    2.0940752   -0.0005479   -0.5817978  
H   -2.9081050    0.0011669   -2.9507065  
H   -2.1128195    0.0014911   -0.2706793  
C    3.2573670    0.0002920    2.9809380  
C    2.5379467    0.0001709    1.8291961  
C    1.1435042   -0.0000331    2.2038498  
C    1.1092607    0.0000083    3.6788474  
N    2.4227561   -0.0001909    4.0882609  
C   -0.0265533    0.0002524    4.4215661  
C   -1.3003036    0.0002640    3.7214979  
O   -2.3786784    0.0004133    4.3006425  
C   -1.2877726   -0.0000311    2.1595606  
O   -2.3539958   -0.0003306    1.5592035  
C    0.0000000    0.0000000    1.4700000  
H    2.9384090    0.0000368    0.8310761  
H   -0.0296291    0.0004086    5.5027230  
H    4.3270393    0.0004765    3.1139444  
H    2.7280493    0.0013407    5.0442112  
