60

C    3.3041270    0.0001178   -1.5420432  
C    2.5845372   -0.0004779   -0.3695853  
C    1.2040007   -0.0000006   -0.7283591  
C    1.1422373    0.0006039   -2.1454374  
N    2.4348636    0.0026110   -2.6077466  
C   -0.0655186    0.0008800   -2.8497915  
C   -1.2321770    0.0002326   -2.1101397  
O   -2.4392818    0.0001149   -2.7472515  
C   -1.1911209   -0.0000006   -0.6955262  
O   -2.4371522   -0.0002319   -0.1032858  
C    0.0000000    0.0000000    0.0000000  
H    3.0031535   -0.0000661    0.6222580  
H    2.7054625   -0.0071097   -3.5745263  
H   -3.1132993   -0.0000646   -2.0551781  
H   -2.3200286   -0.0004070    0.8516413  
C    6.7370859   -0.0008254    1.2348660  
C    5.4910171   -0.0006932    0.6950625  
C    5.6537425    0.0002335   -0.7396342  
C    7.1071773    0.0006038   -0.9932431  
N    7.7077095    0.0003272    0.2445987  
C    7.6723918    0.0010659   -2.2270332  
C    6.7903710    0.0014341   -3.3822708  
O    7.2023938    0.0019214   -4.5348932  
C    5.2477322    0.0013038   -3.1371792  
O    4.4952266    0.0019173   -4.1020607  
C    4.7577214    0.0005130   -1.7610465  
H    4.5636978   -0.0010059    1.2397576  
H    8.7410255    0.0012018   -2.3911475  
H    7.0279700   -0.0014511    2.2727843  
H    8.6984747   -0.0010834    0.4040643  
C    0.6605675   -0.7024456   -5.1602323  
C   -0.1387086    0.0017020   -4.3179679  
C   -1.0653118    0.7443399   -5.1393883  
C   -0.7380207    0.4127269   -6.5392824  
N    0.3171086   -0.4684296   -6.4831128  
C   -1.3885289    0.9128903   -7.6201989  
C   -2.4839900    1.8398446   -7.3894268  
O   -3.1316444    2.3448509   -8.2970686  
C   -2.8477053    2.2053534   -5.9150050  
O   -3.7679154    2.9849439   -5.7083353  
C   -2.0739367    1.6016380   -4.8330337  
H   -1.1326587    0.6565861   -8.6388987  
H   -2.3322398    1.8597483   -3.8150049  
H    1.4717483   -1.3724717   -4.9258385  
H    0.7669198   -0.8798730   -7.2802521  
C    2.5128556    2.1077716    2.9199648  
C    1.9592212    1.6432552    4.0696553  
C    0.8915788    0.7479214    3.6910360  
C    0.8684491    0.7287414    2.2159470  
N    1.8754542    1.5738793    1.8102719  
C    0.0000000    0.0000000    1.4700000  
C   -0.9772830   -0.8200135    2.1664417  
O   -1.8021297   -1.5120829    1.5842315  
C   -0.9711318   -0.8147624    3.7284083  
O   -1.7894187   -1.5009653    4.3257297  
C    0.0140216    0.0115358    4.4216297  
H    2.2638494    1.8988021    5.0689105  
H    0.0117648    0.0094386    5.5031631  
H    3.3327358    2.7953732    2.7900019  
H    2.1123206    1.7707734    0.8551938  
