60

C    1.1188643    0.0008223   -0.8003800  
C    0.0000000    0.0000000    0.0000000  
C   -1.1323863    0.0008900   -0.8673525  
C   -0.6382660    0.0019680   -2.1969276  
N    0.7324020    0.0038481   -2.1202235  
C   -1.4770910    0.0027320   -3.3154805  
C   -2.8395474    0.0020946   -3.0876854  
O   -3.7039197    0.0024427   -4.1440346  
C   -3.3517868    0.0013932   -1.7684330  
O   -4.7300490    0.0012368   -1.7073125  
C   -2.5248544    0.0009124   -0.6644815  
H    1.3576317   -0.0056168   -2.9057037  
H   -4.5940029    0.0021830   -3.7685132  
H   -4.9934599    0.0007264   -0.7819921  
H   -2.9462577    0.0005604    0.3339654  
H    2.1619894    0.0009352   -0.5342064  
C    1.8906703   -2.0861101   -5.2626198  
C    0.9779264   -1.6251676   -4.3690284  
C    0.1016437   -0.7294207   -5.0863857  
C    0.5821191   -0.7061486   -6.4811585  
N    1.6688571   -1.5489157   -6.5215722  
C    0.0179716    0.0235401   -7.4766469  
C   -1.1395629    0.8406742   -7.1527017  
O   -1.7182901    1.5334123   -7.9794359  
C   -1.6653058    0.8314585   -5.6818803  
O   -2.6389757    1.5156844   -5.3971650  
C   -0.9736291    0.0040466   -4.6965759  
H    0.9247008   -1.8830608   -3.3263054  
H    2.7068313   -2.7728805   -5.1073203  
H    2.2153077   -1.7452386   -7.3400443  
C    0.5182900    0.0273768   -8.8588793  
C    1.5701786   -0.6472268   -9.3904007  
C    1.6330766   -0.2945201  -10.7891425  
C    0.5236699    0.6476429  -11.0306711  
N   -0.1136011    0.8005795   -9.8209662  
C    0.2435131    1.2138943  -12.2317434  
C    1.0910783    0.8724590  -13.3620492  
O    0.9205504    1.3297615  -14.4845889  
C    2.2716297   -0.1234853  -13.1292417  
O    2.9917929   -0.4186666  -14.0734306  
C    2.4738494   -0.6681257  -11.7889708  
H    2.2269597   -1.3157809   -8.8628714  
H   -0.5750739    1.9027810  -12.3874994  
H    3.2935851   -1.3568831  -11.6360960  
H   -0.9131930    1.3855149   -9.6611216  
C    0.8681109    0.7263879    2.2709268  
C    0.6127770    0.5096195    3.5869401  
C   -0.4920590   -0.4175482    3.6542670  
C   -0.8620974   -0.7254003    2.2596025  
N    0.0000000    0.0000000    1.4700000  
C   -1.8641242   -1.5660088    1.8976294  
C   -2.6293522   -2.2103885    2.9520183  
O   -3.5512764   -2.9839180    2.7283916  
C   -2.2549728   -1.8987399    4.4361073  
O   -2.8923672   -2.4351063    5.3323774  
C   -1.1543735   -0.9755647    4.7012123  
H    1.1382914    0.9492124    4.4159191  
H   -2.1192137   -1.7782617    0.8686553  
H   -0.9013378   -0.7652422    5.7314848  
H    1.6172880    1.3558399    1.8188057  
