58

C   -1.0965411   -0.0047682   -0.8010304  
C    0.0000000    0.0000000    0.0000000  
C    1.1546467    0.0047310   -0.8669507  
C    0.6371974    0.0023400   -2.2486280  
N   -0.7342774   -0.0038359   -2.1395010  
C    1.4147618    0.0058416   -3.3608711  
C    2.8575794    0.0121770   -3.1854457  
O    3.6427446    0.0156386   -4.1244900  
C    3.4275535    0.0145528   -1.7311659  
O    4.6406411    0.0195718   -1.5710053  
C    2.4891633    0.0106250   -0.6116745  
H    1.0150363    0.0041267   -4.3654243  
H    2.8918856    0.0125091    0.3920872  
H   -2.1388077   -0.0091019   -0.5261643  
C   -1.6707544   -0.0058239   -3.2725972  
C   -3.0236022   -0.0105688   -3.2357226  
C   -3.4368403   -0.0104559   -4.6306178  
C   -2.1706870   -0.0050937   -5.3944315  
N   -1.1320373   -0.0024410   -4.6037422  
C   -2.1489311   -0.0034348   -6.8313065  
C   -3.3380071   -0.0073608   -7.4758348  
O   -3.4666386   -0.0063886   -8.8135546  
C   -4.6328403   -0.0131836   -6.7331811  
O   -5.6771004   -0.0164153   -7.3848963  
C   -4.6287263   -0.0147391   -5.2594430  
H   -3.6622287   -0.0138423   -2.3689921  
H   -1.2090241    0.0007142   -7.3637227  
H   -4.4282033   -0.0099908   -8.9701840  
C   -5.9452385    2.1178643   -1.6948538  
C   -7.2283299    1.7049338   -1.5734271  
C   -7.4364339    0.7943069   -2.6887528  
C   -6.1402581    0.7739846   -3.4001599  
N   -5.2622080    1.5478693   -2.8221296  
C   -5.9318556   -0.0206841   -4.5792090  
C   -6.9709733   -0.7616786   -5.0269774  
O   -6.9176140   -1.5492593   -6.1145936  
C   -8.2913669   -0.7626458   -4.3307589  
O   -9.1927662   -1.4611048   -4.7942835  
C   -8.4801611    0.0609205   -3.1232737  
H   -7.9450319    1.9837724   -0.8199931  
H   -7.8055672   -1.9450953   -6.1778857  
H   -9.4515663    0.0325336   -2.6480930  
H   -5.4047661    2.8017592   -1.0599125  
C    2.5128556    2.1077716    2.9199648  
C    1.9592212    1.6432552    4.0696553  
C    0.8915788    0.7479214    3.6910360  
C    0.8684491    0.7287414    2.2159470  
N    1.8754542    1.5738793    1.8102719  
C    0.0000000    0.0000000    1.4700000  
C   -0.9772830   -0.8200135    2.1664417  
O   -1.8021297   -1.5120829    1.5842315  
C   -0.9711318   -0.8147624    3.7284083  
O   -1.7894187   -1.5009653    4.3257297  
C    0.0140216    0.0115358    4.4216297  
H    2.2638494    1.8988021    5.0689105  
H    0.0117648    0.0094386    5.5031631  
H    3.3327358    2.7953732    2.7900019  
H    2.1123206    1.7707734    0.8551938  
