64

C   -3.9682051    0.7216920   -2.0578206  
C   -3.2578655    0.0024282   -2.9908505  
C   -4.2079031   -0.7252728   -3.7670463  
C   -5.4928184   -0.4072582   -3.2573538  
N   -5.3110076    0.4722168   -2.2190444  
C   -6.6702484   -0.9459426   -3.7848632  
C   -6.5483633   -1.8213774   -4.8464357  
O   -7.6658887   -2.3762214   -5.3998763  
C   -5.2750889   -2.1513167   -5.3686705  
O   -5.3202343   -3.0371227   -6.4253879  
C   -4.1130838   -1.6204795   -4.8485905  
H   -7.6525699   -0.7076997   -3.4008234  
H   -7.3606740   -2.9484702   -6.1158659  
H   -4.4197931   -3.2069056   -6.7186181  
H   -3.1520153   -1.8920014   -5.2694251  
H   -3.6231571    1.3918167   -1.2891638  
C   -5.8537442    4.5550895   -0.6083098  
C   -7.0628501    4.3401508    0.0116352  
C   -7.4145541    2.9778083   -0.2227306  
C   -6.3730066    2.4064758   -0.9977695  
N   -5.4423227    3.3918418   -1.2157104  
C   -6.3858715    1.0723064   -1.4156391  
C   -7.4697725    0.3007580   -1.0440908  
O   -7.5329138   -1.0084325   -1.4249409  
C   -8.5189700    0.8528159   -0.2712816  
O   -9.5275750   -0.0431566    0.0173235  
C   -8.5070720    2.1690005    0.1410800  
H   -7.6230390    5.0751859    0.5638179  
H   -4.5859452    3.2783827   -1.7273024  
H   -8.3590586   -1.3576535   -1.0660627  
H  -10.1955191    0.4092753    0.5415001  
H   -9.3251240    2.5639167    0.7321062  
H   -5.2529622    5.4465131   -0.6664837  
C    0.0000000    0.0000000    0.0000000  
C    1.0521666   -0.0011982   -0.8862343  
C    0.4917215   -0.0011996   -2.1979132  
C   -0.9187429    0.0003215   -2.0478682  
N   -1.1833171   -0.0009323   -0.7007913  
C   -1.7951703    0.0010483   -3.1372089  
C   -1.2375841    0.0005313   -4.4010422  
O   -2.0474218    0.0015510   -5.4997578  
C    0.1673576   -0.0013585   -4.5711963  
O    0.5673520   -0.0020735   -5.8915554  
C    1.0325768   -0.0023493   -3.4969892  
H    2.0953056   -0.0030808   -0.6200564  
H   -2.0989778    0.0102529   -0.2891822  
H   -1.4634888    0.0006601   -6.2693595  
H    1.5290707   -0.0033271   -5.9180047  
H    2.1042146   -0.0039770   -3.6584456  
C    3.2573670    0.0002920    2.9809380  
C    2.5379467    0.0001709    1.8291961  
C    1.1435042   -0.0000331    2.2038498  
C    1.1092607    0.0000083    3.6788474  
N    2.4227561   -0.0001909    4.0882609  
C   -0.0265533    0.0002524    4.4215661  
C   -1.3003036    0.0002640    3.7214979  
O   -2.3786784    0.0004133    4.3006425  
C   -1.2877726   -0.0000311    2.1595606  
O   -2.3539958   -0.0003306    1.5592035  
C    0.0000000    0.0000000    1.4700000  
H    2.9384090    0.0000368    0.8310761  
H   -0.0296291    0.0004086    5.5027230  
H    4.3270393    0.0004765    3.1139444  
H    2.7280493    0.0013407    5.0442112  
