58

C   -1.7334752    0.0025762   -3.2500361  
C   -3.0913816    0.0078207   -3.2383135  
C   -3.5242764    0.0082503   -4.6157886  
C   -2.2984722    0.0027578   -5.4368640  
N   -1.2476716   -0.0000933   -4.5487769  
C   -2.2819937    0.0010686   -6.7938571  
C   -3.5566220    0.0051431   -7.4923143  
O   -3.6472720    0.0040909   -8.7130036  
C   -4.8674220    0.0112382   -6.6428608  
O   -5.9464820    0.0150115   -7.2198147  
C   -4.7574481    0.0122777   -5.1862355  
H   -3.7182397    0.0112053   -2.3644427  
H   -1.3716644   -0.0031088   -7.3771177  
H   -0.2773437   -0.0055383   -4.8046713  
C   -1.1319213    0.0033323   -0.8009271  
C   -0.7969996   -0.0000455   -2.1169402  
C    0.6453119   -0.0063632   -2.1842674  
C    1.1266657   -0.0064183   -0.7896031  
N    0.0000000    0.0000000    0.0000000  
C    2.4345838   -0.0119308   -0.4276300  
C    3.4349648   -0.0180038   -1.4820187  
O    4.6384042   -0.0231676   -1.2583923  
C    2.9478461   -0.0178057   -2.9661081  
O    3.7808749   -0.0225813   -3.8623778  
C    1.5113448   -0.0118484   -3.2312127  
H    2.7664303   -0.0119935    0.6013441  
H    1.1823119   -0.0119563   -4.2614850  
H   -2.1104161    0.0081926   -0.3488058  
C   -5.8629733    2.1279835   -1.5004601  
C   -7.1318583    1.6683938   -1.3495201  
C   -7.3892621    0.7728978   -2.4525461  
C   -6.1574837    0.7482537   -3.2642760  
N   -5.2712652    1.5907048   -2.6335762  
C   -5.9974282    0.0177500   -4.3967298  
C   -7.1128578   -0.7985291   -4.8462190  
O   -7.0673619   -1.4918022   -5.8539900  
C   -8.4270907   -0.7874706   -4.0021363  
O   -9.3730130   -1.4704939   -4.3708790  
C   -8.4796243    0.0402573   -2.7996565  
H   -7.8101827    1.9273045   -0.5561382  
H   -9.3931434    0.0421888   -2.2206890  
H   -5.3104181    2.8141434   -0.8793664  
H   -4.3376772    1.7837668   -2.9469251  
C    0.0000000    0.0000000    1.4700000  
C    1.0662921    0.0000102    2.3034270  
C    0.4961870   -0.0000064    3.6418889  
C   -0.9663858    0.0000850    3.4240247  
N   -1.2632773    0.0000084    2.1528658  
C   -1.8985362    0.0000517    4.5177257  
C   -1.3925775   -0.0004564    5.7720543  
O   -2.1456383   -0.0005410    6.8851312  
C    0.0786232   -0.0009323    6.0245000  
O    0.4683759   -0.0012588    7.1921102  
C    1.0143166   -0.0008442    4.8859032  
H    2.1107198   -0.0000632    2.0421868  
H   -2.9622183    0.0003270    4.3293377  
H   -1.5042274   -0.0009692    7.6184419  
H    2.0724152   -0.0013148    5.1109744  
