58

C    5.1118932   -0.0090911   -7.9073958  
C    6.1988416   -0.6840670   -8.3623982  
C    6.3608244   -0.3324898   -9.7534380  
C    5.2713525    0.6094164  -10.0738356  
N    4.5498579    0.7632975   -8.9125187  
C    5.0771208    1.1746794  -11.2922178  
C    6.0027463    0.8323752  -12.3592627  
O    5.9122942    1.2887592  -13.4914422  
C    7.1638010   -0.1633152  -12.0424709  
O    7.9491399   -0.4592215  -12.9329440  
C    7.2704163   -0.7068589  -10.6907890  
H    6.8165361   -1.3521576   -7.7890556  
H    4.2716492    1.8633950  -11.5062192  
H    8.0772372   -1.3954470  -10.4795794  
H    3.7409415    1.3483184   -8.8102837  
C    6.1837013   -2.1071897   -4.1730098  
C    6.1473622   -1.6429267   -5.4486332  
C    5.0179319   -0.7478970   -5.5388750  
C    4.3948020   -0.7286187   -4.2016659  
N    5.1487786   -1.5734158   -3.4201748  
C    3.2973506   -0.0000934   -3.8752374  
C    2.6891817    0.8195673   -4.9100425  
O    1.6983690    1.5114227   -4.7152923  
C    3.3322639    0.8142068   -6.3334969  
O    2.8288284    1.5001132   -7.2128972  
C    4.5147647   -0.0118356   -6.5641428  
H    6.8333442   -1.8984505   -6.2365100  
H    6.8793287   -2.7945278   -3.7196240  
H    4.9752871   -1.7701682   -2.4515488  
C    3.3321174    0.0004714   -1.3379332  
C    2.6974186    0.0000115   -2.5332308  
C    1.2800441   -0.0002119   -2.2052838  
C    1.2395035    0.0000643   -0.7271293  
N    2.4394063    0.0005458   -0.2131034  
C    0.0000000    0.0000000    0.0000000  
C   -1.1468701    0.0000634   -0.7169542  
O   -2.3742201    0.0000072   -0.1695492  
C   -1.1388767    0.0001606   -2.2096354  
O   -2.2206229    0.0000903   -2.7970413  
C    0.1454526    0.0001815   -2.9324239  
H   -2.9844344    0.0001023   -0.9290168  
H    0.1083580    0.0003680   -4.0135594  
H    4.3940040    0.0007617   -1.1498630  
C    0.8175213    0.6860729    2.3021913  
C    0.0000000    0.0000000    1.4700000  
C   -0.8887526   -0.7456559    2.3478473  
C   -0.4549825   -0.3816753    3.7138435  
N    0.5448156    0.4573574    3.6934124  
C   -1.0945674   -0.9182058    4.8835240  
C   -2.1210866   -1.7789155    4.6970523  
O   -2.8083856   -2.3554314    5.6976972  
C   -2.5824069   -2.1655116    3.3310774  
O   -3.5227682   -2.9541547    3.2362962  
C   -1.9100805   -1.6015804    2.1470656  
H   -0.7567140   -0.6349833    5.8697035  
H   -3.4728268   -2.9124471    5.2533954  
H   -2.2742832   -1.9066565    1.1752040  
H    1.6189533    1.3585343    2.0405121  
