60

C    3.3003549    0.0005280   -1.4738980  
C    2.5232820    0.0003502   -2.6090743  
C    1.1623202   -0.0001315   -2.1820098  
C    1.1711886    0.0000585   -0.7636141  
N    2.4852302   -0.0014917   -0.3662354  
C    0.0000000    0.0000000    0.0000000  
C   -1.2020383    0.0000521   -0.6806484  
O   -2.3759250    0.0003495    0.0157736  
C   -1.2314652   -0.0005109   -2.0955513  
O   -2.5054384   -0.0008033   -2.6250187  
C   -0.0764509   -0.0007269   -2.8495196  
H    2.8036263    0.0088183    0.5858669  
H   -3.0835633    0.0000348   -0.6418822  
H   -2.4360041   -0.0011522   -3.5845929  
H   -0.1304089   -0.0013416   -3.9319087  
H    4.3715550    0.0004899   -1.3667126  
C    5.8843132   -2.1416050   -4.3706061  
C    5.8364449   -1.7353557   -5.6606640  
C    4.7035117   -0.8249887   -5.7254243  
C    4.1682347   -0.7974897   -4.3472709  
N    4.8563802   -1.5672820   -3.5486063  
C    3.0267444   -0.0008945   -3.9901697  
C    2.4466112    0.7350856   -4.9654197  
O    1.3754302    1.5237296   -4.7739748  
C    2.9636557    0.7287627   -6.3657006  
O    2.3859605    1.4229262   -7.2021369  
C    4.1359067   -0.0966501   -6.7069423  
H    1.1962576    1.9150489   -5.6479992  
H    4.4795915   -0.0735996   -7.7324081  
H    6.5846116   -2.8231835   -3.9145295  
C    7.5686226   -5.6107260   -6.6448209  
C    8.2876567   -5.3275296   -7.7558422  
C    8.0763008   -3.9068928   -7.9873999  
C    7.1797222   -3.4800190   -6.8917212  
N    6.8787725   -4.4744746   -6.1014829  
C    6.7279457   -2.1218583   -6.7637246  
C    7.1528573   -1.2305734   -7.6880599  
O    6.8101886    0.0688924   -7.6908254  
C    8.0582596   -1.6305445   -8.8053911  
O    8.4050635   -0.7665401   -9.6106517  
C    8.5077580   -3.0297765   -8.9150538  
H    8.8874761   -5.9996436   -8.3453802  
H    7.2655616    0.4437448   -8.4662433  
H    9.1632536   -3.2790722   -9.7387089  
H    7.4640040   -6.5609820   -6.1457800  
C    2.5128556    2.1077716    2.9199648  
C    1.9592212    1.6432552    4.0696553  
C    0.8915788    0.7479214    3.6910360  
C    0.8684491    0.7287414    2.2159470  
N    1.8754542    1.5738793    1.8102719  
C    0.0000000    0.0000000    1.4700000  
C   -0.9772830   -0.8200135    2.1664417  
O   -1.8021297   -1.5120829    1.5842315  
C   -0.9711318   -0.8147624    3.7284083  
O   -1.7894187   -1.5009653    4.3257297  
C    0.0140216    0.0115358    4.4216297  
H    2.2638494    1.8988021    5.0689105  
H    0.0117648    0.0094386    5.5031631  
H    3.3327358    2.7953732    2.7900019  
H    2.1123206    1.7707734    0.8551938  
