62

C    1.1188644    0.0008220   -0.8003805  
C    0.0000000    0.0000000    0.0000000  
C   -1.1323861    0.0008897   -0.8673528  
C   -0.6382658    0.0019676   -2.1969280  
N    0.7324021    0.0038479   -2.1202235  
C   -1.4770908    0.0027313   -3.3154810  
C   -2.8395468    0.0020939   -3.0876860  
O   -3.7039193    0.0024420   -4.1440354  
C   -3.3517864    0.0013925   -1.7684331  
O   -4.7300488    0.0012361   -1.7073129  
C   -2.5248543    0.0009122   -0.6644820  
H    1.3576321   -0.0056170   -2.9057040  
H   -4.5940021    0.0021818   -3.7685138  
H   -4.9934598    0.0007257   -0.7819921  
H   -2.9462577    0.0005601    0.3339650  
H    2.1619891    0.0009354   -0.5342067  
C    1.9333069   -2.1182746   -5.2802154  
C    1.0133391   -1.6572496   -4.3672080  
C    0.1426192   -0.7691975   -5.0656425  
C    0.5838558   -0.7277679   -6.4130548  
N    1.6740003   -1.5566766   -6.5085135  
C   -0.0442374    0.0493809   -7.3909748  
C   -1.1378605    0.7981152   -7.0016649  
O   -1.7887531    1.5744837   -7.9163250  
C   -1.5929370    0.7702823   -5.6619077  
O   -2.6929646    1.5704859   -5.4317842  
C   -0.9736287    0.0040457   -4.6965766  
H    0.9752628   -1.9268942   -3.3256538  
H    2.1940570   -1.7371913   -7.3481186  
H   -2.5111336    2.0069650   -7.4426253  
H   -2.9358036    1.4942139   -4.5039824  
H    2.7547995   -2.8021595   -5.1521113  
C    0.8452270   -0.9540481   -9.5268564  
C    0.4064048    0.0983676   -8.7893386  
C    0.4689486    1.2635988   -9.6397268  
C    0.9838440    0.8004425  -10.9424784  
N    1.1923026   -0.5528303  -10.8079894  
C    1.1876591    1.6026904  -12.0179144  
C    0.8795353    3.0167146  -11.8832630  
O    1.0289835    3.8206833  -12.7940878  
C    0.3333544    3.5291826  -10.5125455  
O    0.0706959    4.7176931  -10.3871897  
C    0.1554062    2.5683788   -9.4267087  
H    1.5660415    1.2427916  -12.9645977  
H   -0.2234079    2.9312257   -8.4808934  
H    0.9444714   -1.9889393   -9.2421802  
H    1.5407749   -1.1564322  -11.5299862  
C    2.4951002    2.0940188    2.9809380  
C    1.9440701    1.6314916    1.8291961  
C    0.8759964    0.7350050    2.2038498  
C    0.8497377    0.7130254    3.6788474  
N    1.8560616    1.5571714    4.0882609  
C   -0.0205033   -0.0168748    4.4215661  
C   -0.9962600   -0.8356168    3.7214979  
O   -1.8224391   -1.5286685    4.3006425  
C   -0.9864710   -0.8277881    2.1595606  
O   -1.8030528   -1.5133726    1.5592035  
C    0.0000000    0.0000000    1.4700000  
H    2.2509283    1.8888011    0.8310761  
H   -0.0229599   -0.0187323    5.5027230  
H    3.3143982    2.7817323    3.1139444  
H    2.0889452    1.7545833    5.0442112  
