60

C    1.1243410    0.0100057   -0.7919012  
C    0.7474071    0.0234632   -2.1148552  
C   -0.6787388    0.0234405   -2.1414702  
C   -1.1201747    0.0098455   -0.7935550  
N    0.0000000    0.0000000    0.0000000  
C   -2.4730818    0.0063410   -0.4408242  
C   -3.3971964    0.0170568   -1.4675057  
O   -4.7313521    0.0145688   -1.1793464  
C   -2.9763659    0.0303145   -2.8186321  
O   -4.0166488    0.0394632   -3.7247622  
C   -1.6418573    0.0335061   -3.1673482  
H    1.4178706    0.0311140   -2.9571214  
H   -2.8160165   -0.0041450    0.5845965  
H   -5.1938826    0.0230239   -2.0274378  
H   -3.6464684    0.0481850   -4.6127340  
H    2.1062463    0.0053072   -0.3505414  
C    1.5648391   -2.0538328   -5.3222158  
C    1.3416268   -1.5771671   -6.5740310  
C    0.2115315   -0.6825096   -6.4885404  
C   -0.2083348   -0.6769667   -5.0741601  
N    0.6519736   -1.5285503   -4.4202761  
C   -1.2456343    0.0471574   -4.5828768  
C   -1.9989504    0.8762378   -5.5089848  
O   -2.9501312    1.5650944   -5.1639735  
C   -1.5720157    0.8854755   -7.0114647  
O   -2.1989497    1.5794022   -7.8005663  
C   -0.4365522    0.0629949   -7.4214654  
H   -0.1472093    0.0751417   -8.4635098  
H    2.3192788   -2.7448219   -4.9827391  
H    0.6226237   -1.7349441   -3.4386515  
C    2.5857570   -3.1437163   -8.1096312  
C    2.1107137   -1.9148867   -7.7804105  
C    2.5056202   -1.0138410   -8.8372930  
C    3.2550212   -1.8242748   -9.8162646  
N    3.2680905   -3.1059231   -9.3161683  
C    3.7971546   -1.3389517  -10.9618028  
C    3.6316985    0.0760753  -11.2496532  
O    4.0828900    0.6084460  -12.2552915  
C    2.8418394    0.9532828  -10.2266987  
O    2.6963627    2.1459761  -10.4581721  
C    2.3038883    0.3163360   -9.0272162  
H    4.3431022   -1.9506074  -11.6665924  
H    1.7580690    0.9306339   -8.3240490  
H    2.4949655   -4.0736932   -7.5722397  
H    3.7042011   -3.8930444   -9.7603478  
C    0.0000000    0.0000000    1.4700000  
C    1.0541688    0.0001722    2.3260392  
C    0.5103138    0.0000454    3.6635956  
C   -0.9576371   -0.0002459    3.5155732  
N   -1.2018458    0.0001392    2.1615969  
C   -1.8348311   -0.0008317    4.5510609  
C   -1.2972847   -0.0009736    5.9014604  
O   -2.0050672   -0.0014265    6.9001319  
C    0.2542623   -0.0004184    6.0817573  
O    0.7184670   -0.0002256    7.2139121  
C    1.0974552   -0.0000873    4.8889129  
H    2.0940752    0.0005483    2.0517982  
H   -2.9081052   -0.0011668    4.4207061  
H    2.1707277    0.0000911    5.0223670  
H   -2.1128194   -0.0014912    1.7406791  
