64

C    3.8706493   -0.7380878   -4.5561747  
C    2.8310662   -0.0116220   -4.0232752  
C    2.2320928    0.7087010   -5.0988984  
C    2.9547298    0.3789711   -6.2740583  
N    3.9438703   -0.5000829   -5.9087061  
C    2.6394088    0.9080278   -7.5292320  
C    1.5750126    1.7857026   -7.5994170  
O    1.2238685    2.3314677   -8.8001884  
C    0.8420581    2.1272704   -6.4379842  
O   -0.1887473    3.0138617   -6.6719458  
C    1.1527393    1.6059352   -5.1993504  
H    3.1863418    0.6608349   -8.4286543  
H    0.4674999    2.9071620   -8.6277091  
H   -0.6323004    3.1917833   -5.8369553  
H    0.5733114    1.8862637   -4.3274808  
H    4.5665932   -1.4060752   -4.0782489  
C    5.6133165   -4.5893523   -6.1316592  
C    6.4328917   -4.3856182   -7.2175945  
C    6.2662080   -3.0261095   -7.6157813  
C    5.3247937   -2.4448779   -6.7281804  
N    4.9471623   -3.4218850   -5.8407862  
C    4.9188919   -1.1103923   -6.8239961  
C    5.4736728   -0.3486993   -7.8340549  
O    5.1128344    0.9603299   -7.9728056  
C    6.4142595   -0.9107208   -8.7297366  
O    6.8746901   -0.0238607   -9.6809602  
C    6.8149492   -2.2272243   -8.6359721  
H    7.0714114   -5.1261162   -7.6680933  
H    4.2959588   -3.3004170   -5.0863582  
H    5.6096133    1.3019614   -8.7276330  
H    7.5049316   -0.4826686  -10.2447838  
H    7.5370563   -2.6298975   -9.3366128  
H    5.4501538   -5.4754645   -5.5424718  
C    3.3041270    0.0001177   -1.5420434  
C    2.5845372   -0.0004781   -0.3695856  
C    1.2040006   -0.0000008   -0.7283592  
C    1.1422371    0.0006037   -2.1454375  
N    2.4348636    0.0026109   -2.6077467  
C   -0.0655183    0.0008798   -2.8497920  
C   -1.2321770    0.0002326   -2.1101400  
O   -2.4392818    0.0001147   -2.7472520  
C   -1.1911210   -0.0000007   -0.6955263  
O   -2.4371527   -0.0002320   -0.1032859  
C    0.0000000    0.0000000    0.0000000  
H    3.0031533   -0.0000660    0.6222577  
H   -0.1193553    0.0014844   -3.9297472  
H   -3.1132989   -0.0000648   -2.0551784  
H   -2.3200282   -0.0004069    0.8516410  
H    4.3686624    0.0004070   -1.7024294  
C    2.5128556    2.1077716    2.9199648  
C    1.9592212    1.6432552    4.0696553  
C    0.8915788    0.7479214    3.6910360  
C    0.8684491    0.7287414    2.2159470  
N    1.8754542    1.5738793    1.8102719  
C    0.0000000    0.0000000    1.4700000  
C   -0.9772830   -0.8200135    2.1664417  
O   -1.8021297   -1.5120829    1.5842315  
C   -0.9711318   -0.8147624    3.7284083  
O   -1.7894187   -1.5009653    4.3257297  
C    0.0140216    0.0115358    4.4216297  
H    2.2638494    1.8988021    5.0689105  
H    0.0117648    0.0094386    5.5031631  
H    3.3327358    2.7953732    2.7900019  
H    2.1123206    1.7707734    0.8551938  
