58

C    1.0639010   -0.0252099   -4.6315339  
C   -0.2005759   -0.0055397   -5.1262930  
C   -0.0894609   -0.0091811   -6.5659026  
C    1.3537489   -0.0327833   -6.8714827  
N    1.9982432   -0.0411661   -5.6559799  
C    1.8742440   -0.0431644   -8.1247507  
C    0.9514451   -0.0300021   -9.2476060  
O    1.3217821   -0.0377584  -10.4142641  
C   -0.5812014   -0.0047209   -8.9473386  
O   -1.3677481    0.0068357   -9.8846067  
C   -1.0214470    0.0042994   -7.5545165  
H   -1.1076283    0.0099554   -4.5486870  
H    2.9361591   -0.0606244   -8.3270903  
H    2.9939413   -0.0584729   -5.5321523  
C   -1.1317923    0.0173898   -0.8009271  
C   -0.7969379    0.0098526   -2.1169403  
C    0.6451838   -0.0143770   -2.1842675  
C    1.1264996   -0.0204102   -0.7896027  
N    0.0000000    0.0000000    0.0000000  
C    2.4342482   -0.0421656   -0.4276298  
C    3.4344769   -0.0606621   -1.4820177  
O    4.6377589   -0.0807713   -1.2583910  
C    2.9473983   -0.0544144   -2.9661070  
O    3.7803037   -0.0695353   -3.8623774  
C    1.5110817   -0.0306171   -3.2312126  
H   -1.4819916    0.0202795   -2.9459196  
H    2.7660683   -0.0463495    0.6013453  
H   -2.1101517    0.0344019   -0.3488057  
C   -3.3939609    2.1546658   -4.5494472  
C   -4.6333017    1.7094699   -4.8809736  
C   -4.4723886    0.8098386   -5.9988317  
C   -3.0273465    0.7670817   -6.2934776  
N   -2.4294934    1.6040611   -5.3797348  
C   -2.4660591    0.0278330   -7.2835143  
C   -3.3437753   -0.7794162   -8.1144770  
O   -2.9347708   -1.4794437   -9.0315250  
C   -4.8775477   -0.7491693   -7.8204820  
O   -5.6264003   -1.4244577   -8.5136387  
C   -5.3639426    0.0865992   -6.7256014  
H   -5.5550458    1.9805107   -4.3977161  
H   -6.4272468    0.1018203   -6.5284298  
H   -3.1040790    2.8388322   -3.7685662  
H   -1.4440887    1.7852740   -5.3232841  
C    0.0000000    0.0000000    1.4700000  
C    1.0662921    0.0000102    2.3034270  
C    0.4961870   -0.0000064    3.6418889  
C   -0.9663858    0.0000850    3.4240247  
N   -1.2632773    0.0000084    2.1528658  
C   -1.8985362    0.0000517    4.5177257  
C   -1.3925775   -0.0004564    5.7720543  
O   -2.1456383   -0.0005410    6.8851312  
C    0.0786232   -0.0009323    6.0245000  
O    0.4683759   -0.0012588    7.1921102  
C    1.0143166   -0.0008442    4.8859032  
H    2.1107198   -0.0000632    2.0421868  
H   -2.9622183    0.0003270    4.3293377  
H   -1.5042274   -0.0009692    7.6184419  
H    2.0724152   -0.0013148    5.1109744  
