58

C   -0.3343473   -0.7062072   -9.5704435  
C   -0.0078892   -0.7005700  -10.8885733  
C   -0.1813025    0.6533304  -11.3594422  
C   -0.6388027    1.4416603  -10.1992609  
N   -0.7115684    0.5589648   -9.1464347  
C   -0.9149724    2.7699302  -10.2329289  
C   -0.7508675    3.4697730  -11.4961877  
O   -0.9741807    4.6659416  -11.6289054  
C   -0.2676162    2.6546833  -12.7379217  
O   -0.1261050    3.2330492  -13.8069060  
C   -0.0013726    1.2273390  -12.5777515  
H    0.3171168   -1.5481624  -11.4652636  
H   -1.2492893    3.3294562   -9.3703322  
H    0.3330840    0.6702092  -13.4423144  
H   -0.3313014   -1.5282136   -8.8731727  
C    0.8071496   -0.7052396   -5.2248761  
C   -0.0307352   -0.0004646   -4.4215603  
C   -0.9176980    0.7416309   -5.2860992  
C   -0.5250709    0.4090153   -6.6688504  
N    0.5261926   -0.4721444   -6.5625869  
C   -1.1240786    0.9084415   -7.7794666  
C   -2.2290975    1.8356035   -7.6010306  
O   -2.8333889    2.3399948   -8.5384326  
C   -2.6616047    2.2021689   -6.1455678  
O   -3.5904454    2.9819428   -5.9828763  
C   -1.9395302    1.5991863   -5.0280379  
H   -2.2453231    1.8580266   -4.0234404  
H    1.6063821   -1.3751332   -4.9521863  
H    1.0129011   -0.8841695   -7.3374394  
C    3.2573670   -0.0002920   -1.5109380  
C    2.5379468   -0.0001709   -0.3591961  
C    1.1435043    0.0000332   -0.7338500  
C    1.1092609   -0.0000082   -2.2088477  
N    2.4227562    0.0001909   -2.6182613  
C   -0.0265532   -0.0002522   -2.9515663  
C   -1.3003035   -0.0002639   -2.2514981  
O   -2.3786784   -0.0004131   -2.8306429  
C   -1.2877725    0.0000312   -0.6895608  
O   -2.3539958    0.0003307   -0.0892036  
C    0.0000000    0.0000000    0.0000000  
H    2.9384091   -0.0000369    0.6389239  
H    4.3270394   -0.0004765   -1.6439446  
H    2.7280494   -0.0013406   -3.5742113  
C    0.0000000    0.0000000    1.4700000  
C    1.0541688    0.0001722    2.3260392  
C    0.5103138    0.0000454    3.6635956  
C   -0.9576371   -0.0002459    3.5155732  
N   -1.2018458    0.0001392    2.1615969  
C   -1.8348311   -0.0008317    4.5510609  
C   -1.2972847   -0.0009736    5.9014604  
O   -2.0050672   -0.0014265    6.9001319  
C    0.2542623   -0.0004184    6.0817573  
O    0.7184670   -0.0002256    7.2139121  
C    1.0974552   -0.0000873    4.8889129  
H    2.0940752    0.0005483    2.0517982  
H   -2.9081052   -0.0011668    4.4207061  
H    2.1707277    0.0000911    5.0223670  
H   -2.1128194   -0.0014912    1.7406791  
