58

C    1.0639010   -0.0252099   -4.6315339  
C   -0.2005759   -0.0055397   -5.1262930  
C   -0.0894609   -0.0091811   -6.5659026  
C    1.3537489   -0.0327833   -6.8714827  
N    1.9982432   -0.0411661   -5.6559799  
C    1.8742440   -0.0431644   -8.1247507  
C    0.9514451   -0.0300021   -9.2476060  
O    1.3217821   -0.0377584  -10.4142641  
C   -0.5812014   -0.0047209   -8.9473386  
O   -1.3677481    0.0068357   -9.8846067  
C   -1.0214470    0.0042994   -7.5545165  
H   -1.1076283    0.0099554   -4.5486870  
H    2.9361591   -0.0606244   -8.3270903  
H    2.9939413   -0.0584729   -5.5321523  
C   -1.1317923    0.0173898   -0.8009271  
C   -0.7969379    0.0098526   -2.1169403  
C    0.6451838   -0.0143770   -2.1842675  
C    1.1264996   -0.0204102   -0.7896027  
N    0.0000000    0.0000000    0.0000000  
C    2.4342482   -0.0421656   -0.4276298  
C    3.4344769   -0.0606621   -1.4820177  
O    4.6377589   -0.0807713   -1.2583910  
C    2.9473983   -0.0544144   -2.9661070  
O    3.7803037   -0.0695353   -3.8623774  
C    1.5110817   -0.0306171   -3.2312126  
H   -1.4819916    0.0202795   -2.9459196  
H    2.7660683   -0.0463495    0.6013453  
H   -2.1101517    0.0344019   -0.3488057  
C   -2.4660591    0.0278330   -7.2835143  
C   -3.1129706    0.0400825   -6.0896004  
C   -4.5276906    0.0622086   -6.3775470  
C   -4.6528524    0.0618136   -7.8476234  
N   -3.3672750    0.0408995   -8.3372598  
C   -5.8321801    0.0791594   -8.5188832  
C   -7.0601606    0.0998066   -7.7415979  
O   -8.1720743    0.1164344   -8.2531364  
C   -6.9513002    0.1008531   -6.1834081  
O   -7.9783209    0.1184543   -5.5184425  
C   -5.6236056    0.0807859   -5.5745766  
H   -2.6517485    0.0344628   -5.1180777  
H   -5.9019451    0.0783943   -9.5977905  
H   -5.5568897    0.0814440   -4.4950985  
H   -3.1215947    0.0339369   -9.3102141  
C    0.8175213    0.6860729    2.3021913  
C    0.0000000    0.0000000    1.4700000  
C   -0.8887526   -0.7456559    2.3478473  
C   -0.4549825   -0.3816753    3.7138435  
N    0.5448156    0.4573574    3.6934124  
C   -1.0945674   -0.9182058    4.8835240  
C   -2.1210866   -1.7789155    4.6970523  
O   -2.8083856   -2.3554314    5.6976972  
C   -2.5824069   -2.1655116    3.3310774  
O   -3.5227682   -2.9541547    3.2362962  
C   -1.9100805   -1.6015804    2.1470656  
H   -0.7567140   -0.6349833    5.8697035  
H   -3.4728268   -2.9124471    5.2533954  
H   -2.2742832   -1.9066565    1.1752040  
H    1.6189533    1.3585343    2.0405121  
