58

C    0.2271049   -0.6901136   -9.6262647  
C    0.9423833   -0.6826453  -10.7805594  
C    0.9221030    0.6721065  -11.2796304  
C    0.1307268    1.4589404  -10.3145360  
N   -0.2618283    0.5746544   -9.3363593  
C   -0.1215459    2.7874508  -10.4290917  
C    0.4224962    3.4891499  -11.5798186  
O    0.2509070    4.6856772  -11.7726433  
C    1.2634067    2.6756655  -12.6146697  
O    1.7262951    3.2556004  -13.5876404  
C    1.4673869    1.2478906  -12.3829319  
H    1.4285578   -1.5295608  -11.2310951  
H   -0.7043862    3.3458606   -9.7097974  
H    2.0509648    0.6918798  -13.1040524  
H    0.0158446   -1.5132084   -8.9631106  
C   -0.0202922   -0.6967075   -5.1400949  
C   -1.0641734    0.0073898   -4.6315339  
C   -1.6428383    0.7514419   -5.7253206  
C   -0.8448100    0.4207134   -6.9213806  
N    0.1229399   -0.4613334   -6.4990734  
C   -1.0739325    0.9222824   -8.1613952  
C   -2.1802186    1.8499243   -8.3291660  
O   -2.4675341    2.3561921   -9.4059403  
C   -3.0385139    2.2145169   -7.0760867  
O   -3.9723190    2.9946743   -7.2050177  
C   -2.6944048    1.6092960   -5.7918949  
H   -3.2937358    1.8667796   -4.9292082  
H    0.6565474   -1.3675747   -4.6363936  
H    0.8239109   -0.8724841   -7.0878369  
C    1.1319248    0.0015675   -0.8009270  
C    0.7969916    0.0034959   -2.1169404  
C   -0.6453336    0.0035703   -2.1842672  
C   -1.1266831    0.0015415   -0.7896027  
N    0.0000000    0.0000000    0.0000000  
C   -2.4346129    0.0013924   -0.4276297  
C   -3.4350110    0.0031352   -1.4820184  
O   -4.6384610    0.0030897   -1.2583919  
C   -2.9478958    0.0050460   -2.9661075  
O   -3.7809377    0.0062160   -3.8623775  
C   -1.5113821    0.0053068   -3.2312125  
H    1.4821240    0.0045436   -2.9459192  
H   -2.7664565    0.0000185    0.6013447  
H    2.1104318    0.0009428   -0.3488058  
C    0.0000000    0.0000000    1.4700000  
C    1.0662921    0.0000102    2.3034270  
C    0.4961870   -0.0000064    3.6418889  
C   -0.9663858    0.0000850    3.4240247  
N   -1.2632773    0.0000084    2.1528658  
C   -1.8985362    0.0000517    4.5177257  
C   -1.3925775   -0.0004564    5.7720543  
O   -2.1456383   -0.0005410    6.8851312  
C    0.0786232   -0.0009323    6.0245000  
O    0.4683759   -0.0012588    7.1921102  
C    1.0143166   -0.0008442    4.8859032  
H    2.1107198   -0.0000632    2.0421868  
H   -2.9622183    0.0003270    4.3293377  
H   -1.5042274   -0.0009692    7.6184419  
H    2.0724152   -0.0013148    5.1109744  
