60

C    2.5409847   -2.0883880   -5.9976700  
C    2.0288632   -1.6271493   -4.8275993  
C    0.9468074   -0.7327103   -5.1651928  
C    0.8699422   -0.7105281   -6.6384172  
N    1.8632952   -1.5526132   -7.0822998  
C   -0.0266912    0.0177793   -7.3506832  
C   -0.9794780    0.8344709   -6.6173703  
O   -1.8263935    1.5259884   -7.1676779  
C   -0.9161196    0.8263918   -5.0566895  
O   -1.7129824    1.5102577   -4.4285200  
C    0.0950450    0.0004357   -4.4015596  
H    2.3702732   -1.8840240   -3.8406506  
H   -0.0662236    0.0198186   -8.4311192  
H    3.3565926   -2.7744583   -6.1588575  
H    2.0636497   -1.7493994   -8.0457214  
C    3.3321174    0.0004722   -1.3379336  
C    2.6974183    0.0000122   -2.5332313  
C    1.2800441   -0.0002113   -2.2052840  
C    1.2395036    0.0000646   -0.7271298  
N    2.4394063    0.0005463   -0.2131037  
C    0.0000000    0.0000000    0.0000000  
C   -1.1468699    0.0000637   -0.7169543  
O   -2.3742201    0.0000076   -0.1695489  
C   -1.1388769    0.0001611   -2.2096357  
O   -2.2206234    0.0000908   -2.7970412  
C    0.1454523    0.0001820   -2.9324241  
H    3.1367987   -0.0000643   -3.5160945  
H   -2.9844345    0.0001025   -0.9290168  
C    6.7793186   -0.0000196   -4.0582538  
C    7.7853567    0.0004716   -3.1461343  
C    7.1695419    0.0010655   -1.8401451  
C    5.7118174    0.0008495   -2.0678069  
N    5.5416285    0.0005856   -3.4330633  
C    4.7795905    0.0008679   -1.0815729  
C    5.2428774    0.0013432    0.2960701  
O    4.4818140    0.0014591    1.2547585  
C    6.7823186    0.0018308    0.5605059  
O    7.1842453    0.0025397    1.7162373  
C    7.6891554    0.0014827   -0.5847011  
H    8.8386418    0.0006057   -3.3633971  
H    8.7535790    0.0016187   -0.3930571  
H    6.8379582   -0.0005559   -5.1345674  
H    4.6549026   -0.0011617   -3.9029153  
C    2.5285572    2.1210227    2.9438989  
C    1.9331703    1.6216660    4.0790748  
C    0.8903039    0.7472258    3.6520102  
C    0.8972198    0.7527806    2.2336141  
N    1.9028376    1.5986179    1.8362361  
C    0.0000000    0.0000000    1.4700000  
C   -0.9207814   -0.7726952    2.1506477  
O   -1.8198395   -1.5274828    1.4542253  
C   -0.9436862   -0.7911793    3.5655508  
O   -1.9197945   -1.6098497    4.0950179  
C   -0.0590329   -0.0485852    4.3195194  
H    2.2150357    1.8593692    5.0905303  
H    2.1533708    1.7953814    0.8841339  
H   -2.3621246   -1.9821033    2.1118817  
H   -1.8668290   -1.5649508    5.0545920  
H   -0.1007624   -0.0827977    5.4019087  
H    3.3491200    2.8096064    2.8367138  
