58

C    5.6664810    0.0014065   -2.2647026  
C    4.7390840    0.0009613   -1.2727298  
C    5.4604950    0.0006395   -0.0219693  
C    6.8944812    0.0009652   -0.3690619  
N    6.9515096    0.0010262   -1.7437030  
C    7.9048599    0.0011991    0.5369403  
C    7.5567532    0.0008990    1.9480948  
O    8.3942798    0.0010140    2.8407597  
C    6.0443611    0.0002996    2.3385749  
O    5.7391068   -0.0002636    3.5235129  
C    5.0461778    0.0003722    1.2720468  
H    8.9502793    0.0015667    0.2612452  
H    4.0011829    0.0001603    1.5508120  
H    5.5192864    0.0017636   -3.3325147  
C    8.1111155    2.0976035   -5.4526261  
C    7.4395655    1.6336453   -4.3673430  
C    8.3330633    0.7389598   -3.6701811  
C    9.5892212    0.7195963   -4.4437971  
N    9.3893282    1.5633829   -5.5119526  
C   10.6855623   -0.0080691   -4.1117650  
C   10.6241827   -0.8269944   -2.9125446  
O   11.5589477   -1.5181453   -2.5293669  
C    9.3037351   -0.8219167   -2.0781606  
O    9.2401675   -1.5076799   -1.0667512  
C    8.1892491    0.0036053   -2.5367312  
H    6.4330781    1.8888749   -4.0872453  
H   11.5972253   -0.0080269   -4.6929539  
H    7.7797042    2.7846729   -6.2141981  
H   10.0681978    1.7622227   -6.2237434  
C    3.2798077    0.0005856   -1.4499661  
C    2.5571132    0.0005565   -2.5996564  
C    1.1637425    0.0001547   -2.2210366  
C    1.1336959   -0.0000200   -0.7459475  
N    2.4483509   -0.0001429   -0.3402730  
C    0.0000000    0.0000000    0.0000000  
C   -1.2757370   -0.0000187   -0.6964411  
O   -2.3524597   -0.0000640   -0.1142306  
C   -1.2676502   -0.0000874   -2.2584078  
O   -2.3355774   -0.0004102   -2.8557287  
C    0.0181551    0.0001758   -2.9516297  
H    2.9547342    0.0006074   -3.5989118  
H    0.0150776    0.0003317   -4.0331632  
H    2.7563626    0.0012823    0.6148051  
C    2.4951002    2.0940188    2.9809380  
C    1.9440701    1.6314916    1.8291961  
C    0.8759964    0.7350050    2.2038498  
C    0.8497377    0.7130254    3.6788474  
N    1.8560616    1.5571714    4.0882609  
C   -0.0205033   -0.0168748    4.4215661  
C   -0.9962600   -0.8356168    3.7214979  
O   -1.8224391   -1.5286685    4.3006425  
C   -0.9864710   -0.8277881    2.1595606  
O   -1.8030528   -1.5133726    1.5592035  
C    0.0000000    0.0000000    1.4700000  
H    2.2509283    1.8888011    0.8310761  
H   -0.0229599   -0.0187323    5.5027230  
H    3.3143982    2.7817323    3.1139444  
H    2.0889452    1.7545833    5.0442112  
