60

C    2.5250703   -2.1043380   -5.8790413  
C    1.9676442   -1.6402805   -7.0270840  
C    0.9000741   -0.7462065   -6.6452971  
C    0.8811192   -0.7272654   -5.1701454  
N    1.8902268   -1.5713252   -4.7674612  
C    0.0139746    0.0003883   -4.4216235  
C   -0.9662098    0.8193994   -5.1151615  
O   -1.7901763    1.5104538   -4.5305050  
C   -0.9644962    0.8143806   -6.6771403  
O   -1.7852523    1.4997461   -7.2720303  
C    0.0196125   -0.0107059   -7.3732832  
H    2.2697161   -1.8953396   -8.0272392  
H    0.0142763   -0.0084552   -8.4548046  
H    3.3460917   -2.7910331   -5.7515133  
H    2.1300313   -1.7680898   -3.8130901  
C    3.2798087    0.0005858   -1.4499643  
C    2.5571149    0.0005569   -2.5996548  
C    1.1637440    0.0001551   -2.2210358  
C    1.1336966   -0.0000198   -0.7459468  
N    2.4483512   -0.0001426   -0.3402714  
C    0.0000000    0.0000000    0.0000000  
C   -1.2757369   -0.0000185   -0.6964416  
O   -2.3524599   -0.0000639   -0.1142315  
C   -1.2676492   -0.0000870   -2.2584080  
O   -2.3355760   -0.0004099   -2.8557298  
C    0.0181565    0.0001762   -2.9516296  
H    2.9547360    0.0006079   -3.5989102  
H    2.7563627    0.0012824    0.6148067  
C    6.4690089    0.0019760   -4.4192229  
C    7.5790615    0.0025238   -3.6450379  
C    7.0826145    0.0021769   -2.2775436  
C    5.6103558    0.0015088   -2.4155191  
N    5.2447515    0.0013075   -3.6686446  
C    4.7390849    0.0009618   -1.2727274  
C    5.3125317    0.0006881   -0.0477812  
O    4.6211392    0.0001830    1.1046148  
C    6.7952872    0.0009754    0.1242552  
O    7.2479829    0.0008246    1.2689331  
C    7.6676537    0.0015801   -1.0635585  
H    8.6077305    0.0030027   -3.9627096  
H    5.3014934    0.0000726    1.8019459  
H    8.7364300    0.0016573   -0.8963826  
H    6.4103419    0.0020020   -5.4960386  
C    2.5311839    2.1237619    3.0120429  
C    1.9795631    1.6616747    1.8395852  
C    0.9223175    0.7739173    2.1983588  
C    0.8753926    0.7337535    3.6154372  
N    1.8668922    1.5631002    4.0777464  
C   -0.0496243   -0.0427881    4.3197917  
C   -0.9437528   -0.7922060    3.5801400  
O   -1.8685244   -1.5680278    4.2172520  
C   -0.9124520   -0.7656372    2.1655264  
O   -1.8671164   -1.5663939    1.5732860  
C    0.0000000    0.0000000    1.4700000  
H    2.3005065    1.9304404    0.8477417  
H    2.0679347    1.7444845    5.0445261  
H   -0.0904770   -0.0778569    5.3997470  
H   -2.3849669   -2.0011402    3.5251786  
H   -1.7775064   -1.4909735    0.6183591  
H    3.3468514    2.8078103    3.1724291  
