58

C    0.1957337   -2.9320481   -9.5376934  
C   -0.2511791   -1.9525028   -8.7101460  
C   -0.3087763   -0.7376638   -9.4884029  
C    0.1444374   -1.0922980  -10.8469396  
N    0.4355215   -2.4364783  -10.8103487  
C    0.2328596   -0.2176266  -11.8807852  
C   -0.1432457    1.1654024  -11.6393077  
O   -0.0983055    2.0289100  -12.5057003  
C   -0.6258974    1.5633386  -10.2080499  
O   -0.9448845    2.7248643   -9.9927240  
C   -0.6791280    0.5315762   -9.1753422  
H   -0.5106863   -2.0677728   -7.6728506  
H    0.5676897   -0.4983347  -12.8697240  
H    0.3702932   -3.9742185   -9.3248561  
H    0.7686972   -2.9750094  -11.5888250  
C    0.7844860   -0.6865739   -5.2559748  
C   -0.0307352   -0.0004646   -4.4215603  
C   -0.9220583    0.7449733   -5.2969831  
C   -0.4921385    0.3808399   -6.6641554  
N    0.5078001   -0.4580872   -6.6464478  
C   -1.1351037    0.9171360   -7.8320886  
C   -2.1611769    1.7777671   -7.6428221  
O   -2.8513792    2.3540681   -8.6415896  
C   -2.6186491    2.1645132   -6.2755956  
O   -3.5588179    2.9530733   -6.1782535  
C   -1.9428990    1.6008220   -5.0934203  
H   -3.5146108    2.9110798   -8.1954798  
H   -2.3043670    1.9060013   -4.1205703  
H    1.5867282   -1.3589152   -4.9964798  
C    3.2573670   -0.0002920   -1.5109380  
C    2.5379468   -0.0001709   -0.3591961  
C    1.1435043    0.0000332   -0.7338500  
C    1.1092609   -0.0000082   -2.2088477  
N    2.4227562    0.0001909   -2.6182613  
C   -0.0265532   -0.0002522   -2.9515663  
C   -1.3003035   -0.0002639   -2.2514981  
O   -2.3786784   -0.0004131   -2.8306429  
C   -1.2877725    0.0000312   -0.6895608  
O   -2.3539958    0.0003307   -0.0892036  
C    0.0000000    0.0000000    0.0000000  
H    2.9384091   -0.0000369    0.6389239  
H    4.3270394   -0.0004765   -1.6439446  
H    2.7280494   -0.0013406   -3.5742113  
C    2.5528530    2.1414826    2.8079335  
C    2.0663498    1.7338582    4.0032312  
C    0.9804344    0.8229586    3.6752840  
C    0.9495562    0.7966882    2.1971295  
N    1.8690446    1.5676019    1.6831036  
C    0.0000000    0.0000000    1.4700000  
C   -0.8785127   -0.7372425    2.1869543  
O   -1.8187535   -1.5261249    1.6395491  
C   -0.8723269   -0.7321790    3.6796354  
O   -1.7010379   -1.4274584    4.2670412  
C    0.1115397    0.0933559    4.4024240  
H    2.4028853    2.0163452    4.9860947  
H   -2.2861435   -1.9184361    2.3990168  
H    0.0832434    0.0693689    5.4835595  
H    3.3664920    2.8238276    2.6198634  
