58

C    3.9404946   -0.7293549   -4.5163119  
C    4.0976525   -0.5146855   -5.8479626  
C    3.0657855    0.4119876   -6.2496624  
C    2.2890365    0.7218372   -5.0341600  
N    2.8699638   -0.0020525   -4.0185828  
C    1.2244920    1.5626425   -4.9954967  
C    0.8163860    2.2051420   -6.2337132  
O   -0.1297734    2.9786859   -6.3023647  
C    1.6244746    1.8913611   -7.5330745  
O    1.2900269    2.4261332   -8.5816085  
C    2.7534399    0.9681715   -7.4493443  
H    4.8503965   -0.9553573   -6.4770881  
H    0.6684827    1.7763755   -4.0932316  
H    4.5165360   -1.3578515   -3.8567220  
C    3.2573670   -0.0002920   -1.5109384  
C    2.5379466   -0.0001708   -0.3591964  
C    1.1435042    0.0000333   -0.7338500  
C    1.1092606   -0.0000082   -2.2088477  
N    2.4227559    0.0001910   -2.6182614  
C   -0.0265533   -0.0002524   -2.9515665  
C   -1.3003040   -0.0002640   -2.2514980  
O   -2.3786785   -0.0004135   -2.8306426  
C   -1.2877727    0.0000313   -0.6895608  
O   -2.3539959    0.0003306   -0.0892036  
C    0.0000000    0.0000000    0.0000000  
H    2.9384090   -0.0000368    0.6389239  
H   -0.0296293   -0.0004086   -4.0327231  
H    4.3270391   -0.0004761   -1.6439451  
C    3.9922148   -0.5307255   -9.0551934  
C    3.5070317    0.6802910   -8.6782152  
C    3.8732341    1.6205685   -9.7109828  
C    4.6168415    0.8525686  -10.7278490  
N    4.6543042   -0.4444686  -10.2704861  
C    5.1340730    1.3822283  -11.8652307  
C    4.9460144    2.8036042  -12.1036845  
O    5.3740018    3.3745035  -13.0982714  
C    4.1618263    3.6363625  -11.0400274  
O    3.9974811    4.8339624  -11.2297773  
C    3.6515775    2.9534637   -9.8537951  
H    5.6762058    0.8012248  -12.5983314  
H    3.1095130    3.5371625   -9.1222308  
H    3.9219825   -1.4789029   -8.5473383  
H    5.0930877   -1.2108054  -10.7471879  
C    0.0000000    0.0000000    1.4700000  
C    1.0662921    0.0000102    2.3034270  
C    0.4961870   -0.0000064    3.6418889  
C   -0.9663858    0.0000850    3.4240247  
N   -1.2632773    0.0000084    2.1528658  
C   -1.8985362    0.0000517    4.5177257  
C   -1.3925775   -0.0004564    5.7720543  
O   -2.1456383   -0.0005410    6.8851312  
C    0.0786232   -0.0009323    6.0245000  
O    0.4683759   -0.0012588    7.1921102  
C    1.0143166   -0.0008442    4.8859032  
H    2.1107198   -0.0000632    2.0421868  
H   -2.9622183    0.0003270    4.3293377  
H   -1.5042274   -0.0009692    7.6184419  
H    2.0724152   -0.0013148    5.1109744  
