58

C    2.6563300   -1.8456645   -7.6481052  
C    3.7387111   -2.6593966   -7.7499187  
C    4.1906517   -2.5894394   -9.1194767  
C    3.2763051   -1.6615733   -9.8121710  
N    2.3690534   -1.2461247   -8.8649719  
C    3.3684085   -1.3278249  -11.1243579  
C    4.4394342   -1.9223086  -11.9066801  
O    4.6063924   -1.6851189  -13.0958665  
C    5.4192430   -2.9078930  -11.1936558  
O    6.3246454   -3.4148221  -11.8421402  
C    5.2187009   -3.1896895   -9.7744228  
H    4.1710644   -3.2422820   -6.9562388  
H    2.6874010   -0.6449814  -11.6130946  
H    5.9015613   -3.8730216   -9.2881275  
H    1.6156405   -0.6044933   -9.0314832  
C    2.0060354   -2.0933382   -5.2079950  
C    1.0681400   -1.6309435   -4.3416125  
C    0.2140993   -0.7346500   -5.0846522  
C    0.7350362   -0.7126396   -6.4648439  
N    1.8215800   -1.5565849   -6.4731475  
C    0.2009231    0.0171137   -7.4767177  
C   -0.9646761    0.8356538   -7.1870525  
O   -1.5183198    1.5285630   -8.0306496  
C   -1.5330617    0.8277888   -5.7321706  
O   -2.5138750    1.5132041   -5.4762944  
C   -0.8712826    0.0001710   -4.7267111  
H    0.9842756   -1.8882191   -3.3007521  
H    0.5983679    0.0189970   -8.4821750  
H    2.8165825   -2.7808929   -5.0286314  
C    1.0965514    0.0001359   -0.8010305  
C    0.0000000    0.0000000    0.0000000  
C   -1.1546563    0.0001470   -0.8669513  
C   -0.6372014    0.0003519   -2.2486282  
N    0.7342871    0.0007337   -2.1395014  
C   -1.4147739    0.0001352   -3.3608717  
C   -2.8576049   -0.0001048   -3.1854462  
O   -3.6427779   -0.0002494   -4.1244907  
C   -3.4275840   -0.0000725   -1.7311666  
O   -4.6406831    0.0000333   -1.5710060  
C   -2.4891867   -0.0001091   -0.6116744  
H   -2.8919122   -0.0002918    0.3920866  
H    2.1388272    0.0000663   -0.5261648  
H    1.3735872   -0.0006099   -2.9130262  
C    0.8175213    0.6860729    2.3021913  
C    0.0000000    0.0000000    1.4700000  
C   -0.8887526   -0.7456559    2.3478473  
C   -0.4549825   -0.3816753    3.7138435  
N    0.5448156    0.4573574    3.6934124  
C   -1.0945674   -0.9182058    4.8835240  
C   -2.1210866   -1.7789155    4.6970523  
O   -2.8083856   -2.3554314    5.6976972  
C   -2.5824069   -2.1655116    3.3310774  
O   -3.5227682   -2.9541547    3.2362962  
C   -1.9100805   -1.6015804    2.1470656  
H   -0.7567140   -0.6349833    5.8697035  
H   -3.4728268   -2.9124471    5.2533954  
H   -2.2742832   -1.9066565    1.1752040  
H    1.6189533    1.3585343    2.0405121  
