58

C    2.5152334   -0.0008772   -8.0291188  
C    3.4974792   -0.0000772   -7.0914254  
C    4.7556959   -0.0005959   -7.7997516  
C    4.4235788   -0.0017430   -9.2372799  
N    3.0496081   -0.0022598   -9.3086420  
C    5.3400700   -0.0021076  -10.2381537  
C    6.7475175   -0.0015439   -9.8753475  
O    7.6488688   -0.0018711  -10.7035186  
C    7.1222014   -0.0005808   -8.3589647  
O    8.3038921   -0.0004066   -8.0413681  
C    6.0453202    0.0000177   -7.3719599  
H    3.3566839    0.0005963   -6.0252224  
H    5.0752942   -0.0028224  -11.2863920  
H    6.3131710    0.0008888   -6.3241152  
H    2.5170774   -0.0014954  -10.1592052  
C   -0.0307354   -0.0004645   -4.4215603  
C    1.0209938   -0.0006521   -5.2805949  
C    0.4733361   -0.0007743   -6.6165991  
C   -0.9941877   -0.0006123   -6.4644009  
N   -1.2345439   -0.0008268   -5.1097353  
C   -1.8743241   -0.0002660   -7.4973894  
C   -1.3406216   -0.0002639   -8.8493122  
O   -2.0512421   -0.0000279   -9.8459671  
C    0.2104063   -0.0006859   -9.0340223  
O    0.6713884   -0.0009945  -10.1674938  
C    1.0569892   -0.0007582   -7.8435816  
H    2.0616762   -0.0008820   -5.0093135  
H   -2.9472234   -0.0000222   -7.3639817  
H   -2.1443165    0.0007708   -4.6862281  
C    3.2573669   -0.0002919   -1.5109381  
C    2.5379467   -0.0001709   -0.3591962  
C    1.1435042    0.0000332   -0.7338501  
C    1.1092607   -0.0000081   -2.2088477  
N    2.4227561    0.0001910   -2.6182614  
C   -0.0265534   -0.0002522   -2.9515663  
C   -1.3003036   -0.0002639   -2.2514981  
O   -2.3786785   -0.0004131   -2.8306428  
C   -1.2877726    0.0000312   -0.6895608  
O   -2.3539957    0.0003306   -0.0892035  
C    0.0000000    0.0000000    0.0000000  
H    2.9384091   -0.0000368    0.6389238  
H    4.3270391   -0.0004764   -1.6439447  
H    2.7280492   -0.0013405   -3.5742114  
C    0.8400945    0.7047457    2.2710304  
C    0.0000000    0.0000000    1.4700000  
C   -0.8844236   -0.7423113    2.3369512  
C   -0.4878984   -0.4098547    3.7186280  
N    0.5629682    0.4714286    3.6095011  
C   -1.0836927   -0.9095027    4.8308716  
C   -2.1891196   -1.8367527    4.6554461  
O   -2.7906899   -2.3413415    5.5944904  
C   -2.6257283   -2.2031529    3.2011665  
O   -3.5549479   -2.9829990    3.0410059  
C   -1.9068976   -1.5999348    2.0816745  
H   -0.7774656   -0.6525820    5.8354244  
H   -2.2155208   -1.8586617    1.0779135  
H    1.6384792    1.3747609    1.9961646  
H    1.0518368    0.8833920    4.3830260  
