60

C   -3.3003525    0.0028978   -1.4739002  
C   -2.5232790    0.0022692   -2.6090757  
C   -1.1623180    0.0013383   -2.1820107  
C   -1.1711875    0.0011572   -0.7636146  
N   -2.4852268    0.0040713   -0.3662371  
C    0.0000000    0.0000000    0.0000000  
C    1.2020389   -0.0012995   -0.6806471  
O    2.3759232   -0.0028154    0.0157756  
C    1.2314659   -0.0007669   -2.0955500  
O    2.5054393   -0.0017967   -2.6250164  
C    0.0764541    0.0006478   -2.8495191  
H   -2.8919915    0.0035634   -3.6205315  
H   -2.8036343   -0.0059084    0.5858648  
H    3.0835630   -0.0032351   -0.6418802  
H    2.4360069   -0.0013755   -3.5845911  
H    0.1304128    0.0012067   -3.9319087  
C   -5.6692732    0.0055330   -2.3388927  
C   -4.7630478    0.0044679   -1.3275427  
C   -5.5107295    0.0054631   -0.0923071  
C   -6.9370590    0.0071786   -0.4696269  
N   -6.9650240    0.0075361   -1.8451661  
C   -7.9663585    0.0080977    0.4148203  
C   -7.6481523    0.0075732    1.8330165  
O   -8.5043564    0.0083789    2.7077820  
C   -6.1443504    0.0060137    2.2553710  
O   -5.8642055    0.0058670    3.4464962  
C   -5.1238516    0.0048446    1.2101762  
H   -4.0849821    0.0035626    1.5109631  
H   -5.4995454    0.0052399   -3.4033555  
H   -7.7983572    0.0070618   -2.4042749  
C  -10.1471279   -2.0831715   -2.8050040  
C   -9.1911765   -1.6217656   -1.9580467  
C   -9.8445343   -0.7247366   -1.0343054  
C  -11.2697105   -0.7012169   -1.4152385  
N  -11.3870545   -1.5450799   -2.4955234  
C  -12.2225970    0.0295808   -0.7830625  
C  -11.8174455    0.8477326    0.3478724  
O  -12.6009862    1.5415052    0.9827294  
C  -10.3132117    0.8382757    0.7685818  
O   -9.9602201    1.5233510    1.7190186  
C   -9.3795225    0.0096288    0.0100166  
H   -8.1474138   -1.8801584   -1.9782202  
H  -13.2626272    0.0325647   -1.0784261  
H  -10.0500916   -2.7708633   -3.6293546  
H  -12.2421190   -1.7415294   -2.9826788  
C    2.5128556    2.1077716    2.9199648  
C    1.9592212    1.6432552    4.0696553  
C    0.8915788    0.7479214    3.6910360  
C    0.8684491    0.7287414    2.2159470  
N    1.8754542    1.5738793    1.8102719  
C    0.0000000    0.0000000    1.4700000  
C   -0.9772830   -0.8200135    2.1664417  
O   -1.8021297   -1.5120829    1.5842315  
C   -0.9711318   -0.8147624    3.7284083  
O   -1.7894187   -1.5009653    4.3257297  
C    0.0140216    0.0115358    4.4216297  
H    2.2638494    1.8988021    5.0689105  
H    0.0117648    0.0094386    5.5031631  
H    3.3327358    2.7953732    2.7900019  
H    2.1123206    1.7707734    0.8551938  
