58

C    1.0438075   -0.7088303   -9.5528967  
C    0.5323426    0.5336369   -9.3560345  
C    1.1197810    1.3939875  -10.3558096  
C    2.0218533    0.5448118  -11.1570312  
N    1.9304681   -0.7181277  -10.6189579  
C    2.7650100    0.9857157  -12.2034657  
C    2.6702451    2.3904051  -12.5645794  
O    3.2995677    2.8838485  -13.4912760  
C    1.7213248    3.3081129  -11.7296136  
O    1.6335426    4.4925259  -12.0240967  
C    0.9708791    2.7175962  -10.6241839  
H    3.4204323    0.3461514  -12.7781734  
H    0.3159037    3.3597422  -10.0511395  
H    0.8477583   -1.6184152   -9.0087364  
H    2.4293320   -1.5230842  -10.9509615  
C    0.2574168   -0.6856121   -5.1816669  
C   -0.8287665    0.0000939   -4.7555305  
C   -1.2821017    0.7456923   -5.9196050  
C   -0.3285010    0.3820836   -6.9896606  
N    0.5761659   -0.4566990   -6.5630338  
C   -0.4351970    0.9186760   -8.3184834  
C   -1.4487055    1.7790892   -8.5671271  
O   -1.6679598    2.3556225   -9.7611025  
C   -2.4274560    2.1653065   -7.5083327  
O   -3.3248656    2.9536924   -7.8055255  
C   -2.2967100    1.6013192   -6.1530661  
H   -2.4560473    2.9123843   -9.6266159  
H   -3.0259293    1.9061168   -5.4144402  
H    0.8824803   -1.3579201   -4.6157423  
C    1.0672569   -0.0000698   -0.8321910  
C    0.0000000    0.0000000    0.0000000  
C   -1.1601223   -0.0000736   -0.8778472  
C   -0.5938729   -0.0000768   -2.2438435  
N    0.7113367   -0.0001553   -2.2234123  
C   -1.4286985   -0.0001877   -3.4135239  
C   -2.7683113   -0.0006798   -3.2270524  
O   -3.6653902   -0.0008302   -4.2276970  
C   -3.3702024   -0.0010610   -1.8610774  
O   -4.5974910   -0.0013779   -1.7662963  
C   -2.4926825   -0.0008943   -0.6770658  
H   -4.5324245   -0.0012258   -3.7833954  
H   -2.9677772   -0.0012974    0.2947961  
H    2.1134391   -0.0000547   -0.5705119  
C    2.5528530    2.1414826    2.8079335  
C    2.0663498    1.7338582    4.0032312  
C    0.9804344    0.8229586    3.6752840  
C    0.9495562    0.7966882    2.1971295  
N    1.8690446    1.5676019    1.6831036  
C    0.0000000    0.0000000    1.4700000  
C   -0.8785127   -0.7372425    2.1869543  
O   -1.8187535   -1.5261249    1.6395491  
C   -0.8723269   -0.7321790    3.6796354  
O   -1.7010379   -1.4274584    4.2670412  
C    0.1115397    0.0933559    4.4024240  
H    2.4028853    2.0163452    4.9860947  
H   -2.2861435   -1.9184361    2.3990168  
H    0.0832434    0.0693689    5.4835595  
H    3.3664920    2.8238276    2.6198634  
