58

C    0.1720342   -1.0924519   -9.6471017  
C    0.1088952   -0.7598475  -10.9621919  
C   -0.1424485    0.6605900  -11.0255891  
C   -0.2210998    1.1316388   -9.6296238  
N   -0.0224501    0.0204227   -8.8430954  
C   -0.4470717    2.4188946   -9.2640926  
C   -0.6248953    3.4062820  -10.3157491  
O   -0.8332859    4.5909295  -10.0888455  
C   -0.5458139    2.9297015  -11.8011524  
O   -0.6942599    3.7518940  -12.6951446  
C   -0.2968530    1.5156643  -12.0701673  
H    0.2249488   -1.4327911  -11.7930296  
H   -0.5009245    2.7435153   -8.2342225  
H   -0.2433408    1.1938449  -13.1013283  
H    0.3440659   -2.0569663   -9.1976494  
C    2.5049804   -2.0931563   -5.9399565  
C    1.9571818   -1.6308520   -4.7865848  
C    0.8879546   -0.7344213   -5.1580690  
C    0.8574976   -0.7122319   -6.6329831  
N    1.8627391   -1.5562152   -7.0453796  
C   -0.0149277    0.0176858   -7.3731171  
C   -0.9887729    0.8362263   -6.6701578  
O   -1.8166673    1.5292763   -7.2468494  
C   -0.9745396    0.8281735   -5.1082557  
O   -1.7894805    1.5135874   -4.5054790  
C    0.0139741    0.0003876   -4.4216236  
H    2.2669047   -1.8882738   -3.7893789  
H    3.3239674   -2.7807664   -6.0753927  
H    2.0929226   -1.7534654   -8.0020166  
C    3.2798085    0.0005853   -1.4499648  
C    2.5571144    0.0005562   -2.5996554  
C    1.1637436    0.0001546   -2.2210360  
C    1.1336965   -0.0000201   -0.7459470  
N    2.4483513   -0.0001430   -0.3402717  
C    0.0000000    0.0000000    0.0000000  
C   -1.2757367   -0.0000188   -0.6964414  
O   -2.3524597   -0.0000640   -0.1142313  
C   -1.2676494   -0.0000875   -2.2584081  
O   -2.3355762   -0.0004102   -2.8557294  
C    0.0181562    0.0001757   -2.9516296  
H    2.9547357    0.0006072   -3.5989105  
H    4.3498550    0.0008609   -1.3200021  
H    2.7563627    0.0012824    0.6148063  
C    0.8400945    0.7047457    2.2710304  
C    0.0000000    0.0000000    1.4700000  
C   -0.8844236   -0.7423113    2.3369512  
C   -0.4878984   -0.4098547    3.7186280  
N    0.5629682    0.4714286    3.6095011  
C   -1.0836927   -0.9095027    4.8308716  
C   -2.1891196   -1.8367527    4.6554461  
O   -2.7906899   -2.3413415    5.5944904  
C   -2.6257283   -2.2031529    3.2011665  
O   -3.5549479   -2.9829990    3.0410059  
C   -1.9068976   -1.5999348    2.0816745  
H   -0.7774656   -0.6525820    5.8354244  
H   -2.2155208   -1.8586617    1.0779135  
H    1.6384792    1.3747609    1.9961646  
H    1.0518368    0.8833920    4.3830260  
