58

C    5.6664810    0.0014065   -2.2647026  
C    4.7390840    0.0009613   -1.2727298  
C    5.4604950    0.0006395   -0.0219693  
C    6.8944812    0.0009652   -0.3690619  
N    6.9515096    0.0010262   -1.7437030  
C    7.9048599    0.0011991    0.5369403  
C    7.5567532    0.0008990    1.9480948  
O    8.3942798    0.0010140    2.8407597  
C    6.0443611    0.0002996    2.3385749  
O    5.7391068   -0.0002636    3.5235129  
C    5.0461778    0.0003722    1.2720468  
H    8.9502793    0.0015667    0.2612452  
H    4.0011829    0.0001603    1.5508120  
H    5.5192864    0.0017636   -3.3325147  
C    8.0513303    2.1138070   -5.4328615  
C    9.3187382    1.6513327   -5.5873529  
C    9.5772528    0.7553831   -4.4849549  
C    8.3477345    0.7336161   -3.6697234  
N    7.4616329    1.5779964   -4.2980026  
C    8.1892491    0.0036053   -2.5367312  
C    9.3041041   -0.8151420   -2.0903165  
O    9.2599071   -1.5081954   -1.0823362  
C   10.6159533   -0.8071506   -2.9381336  
O   11.5613742   -1.4922684   -2.5719990  
C   10.6669390    0.0203192   -4.1408580  
H    9.9953884    1.9086189   -6.3826910  
H   11.5788107    0.0201196   -4.7224204  
H    7.4985636    2.8011433   -6.0524643  
H    6.5293783    1.7732042   -3.9820245  
C    3.2798077    0.0005856   -1.4499661  
C    2.5571132    0.0005565   -2.5996564  
C    1.1637425    0.0001547   -2.2210366  
C    1.1336959   -0.0000200   -0.7459475  
N    2.4483509   -0.0001429   -0.3402730  
C    0.0000000    0.0000000    0.0000000  
C   -1.2757370   -0.0000187   -0.6964411  
O   -2.3524597   -0.0000640   -0.1142306  
C   -1.2676502   -0.0000874   -2.2584078  
O   -2.3355774   -0.0004102   -2.8557287  
C    0.0181551    0.0001758   -2.9516297  
H    2.9547342    0.0006074   -3.5989118  
H    0.0150776    0.0003317   -4.0331632  
H    2.7563626    0.0012823    0.6148051  
C    0.8400945    0.7047457    2.2710304  
C    0.0000000    0.0000000    1.4700000  
C   -0.8844236   -0.7423113    2.3369512  
C   -0.4878984   -0.4098547    3.7186280  
N    0.5629682    0.4714286    3.6095011  
C   -1.0836927   -0.9095027    4.8308716  
C   -2.1891196   -1.8367527    4.6554461  
O   -2.7906899   -2.3413415    5.5944904  
C   -2.6257283   -2.2031529    3.2011665  
O   -3.5549479   -2.9829990    3.0410059  
C   -1.9068976   -1.5999348    2.0816745  
H   -0.7774656   -0.6525820    5.8354244  
H   -2.2155208   -1.8586617    1.0779135  
H    1.6384792    1.3747609    1.9961646  
H    1.0518368    0.8833920    4.3830260  
