58

C   10.8176312   -2.1124885   -1.1238376  
C   11.7998696   -1.6487929   -1.9388642  
C   11.1751476   -0.7534213   -2.8837809  
C    9.7381363   -0.7333247   -2.5500342  
N    9.5871613   -1.5780221   -1.4745893  
C    8.8049643   -0.0042791   -3.2128964  
C    9.2452664    0.8151179   -4.3297041  
O    8.4814934    1.5073972   -4.9897804  
C   10.7624919    0.8088928   -4.7009103  
O   11.1449251    1.4945706   -5.6394467  
C   11.6726249   -0.0176550   -3.9120328  
H   12.8429706   -1.9049068   -1.8844623  
H   12.7216082   -0.0162334   -4.1753875  
H   10.8891100   -2.7998564   -0.2966100  
H    8.7174339   -1.7742759   -1.0140393  
C    6.8847525   -0.0023787    0.6986608  
C    5.5715637   -0.0012903    0.3713797  
C    5.5475442   -0.0015351   -1.0832416  
C    6.9721655   -0.0027416   -1.4795204  
N    7.7607270   -0.0033211   -0.4392514  
C    7.3784667   -0.0033614   -2.8579272  
C    6.4057883   -0.0031904   -3.7977309  
O    6.6406184   -0.0037041   -5.1209446  
C    4.9592105   -0.0023543   -3.4295276  
O    4.1279725   -0.0021183   -4.3374176  
C    4.5679461   -0.0016854   -2.0086701  
H    4.7238861   -0.0005185    1.0350949  
H    5.7562738   -0.0034385   -5.5297077  
H    7.3236768   -0.0025893    1.6837085  
C    3.1301149   -0.0010311   -1.7028252  
C    2.5367768   -0.0002767   -0.4864665  
C    1.1089904    0.0001028   -0.7656183  
C    1.0177872   -0.0004148   -2.2415132  
N    2.1993578   -0.0011611   -2.7963820  
C   -0.2459209   -0.0002877   -2.9257118  
C   -1.3675319   -0.0000605   -2.1698524  
O   -2.6129313    0.0000867   -2.6748490  
C   -1.3083584    0.0000910   -0.6783232  
O   -2.3693261    0.0004206   -0.0541692  
C    0.0000000    0.0000000    0.0000000  
H    3.0096017   -0.0001007    0.4807525  
H   -0.2829630   -0.0004687   -4.0053125  
H   -3.1967441    0.0002094   -1.8949034  
C    2.5528530    2.1414826    2.8079335  
C    2.0663498    1.7338582    4.0032312  
C    0.9804344    0.8229586    3.6752840  
C    0.9495562    0.7966882    2.1971295  
N    1.8690446    1.5676019    1.6831036  
C    0.0000000    0.0000000    1.4700000  
C   -0.8785127   -0.7372425    2.1869543  
O   -1.8187535   -1.5261249    1.6395491  
C   -0.8723269   -0.7321790    3.6796354  
O   -1.7010379   -1.4274584    4.2670412  
C    0.1115397    0.0933559    4.4024240  
H    2.4028853    2.0163452    4.9860947  
H   -2.2861435   -1.9184361    2.3990168  
H    0.0832434    0.0693689    5.4835595  
H    3.3664920    2.8238276    2.6198634  
