58

C   -3.1006031    0.0045270   -3.9654945  
C   -4.3965723    0.0056728   -4.3711273  
C   -4.3857772    0.0060526   -5.8149829  
C   -2.9671149    0.0049974   -6.2201826  
N   -2.2396157    0.0045017   -5.0524351  
C   -2.5349194    0.0045925   -7.5066163  
C   -3.5336489    0.0054652   -8.5625876  
O   -3.2452488    0.0052508   -9.7521777  
C   -5.0419157    0.0068413   -8.1564672  
O   -5.8918103    0.0078910   -9.0367741  
C   -5.3843416    0.0068865   -6.7363983  
H   -5.2613997    0.0063751   -3.7318427  
H   -6.4309049    0.0076377   -6.4635839  
H   -1.2375701    0.0022108   -4.9981503  
C   -3.2798055    0.0048657   -1.4499646  
C   -2.5571122    0.0036935   -2.5996551  
C   -1.1637424    0.0017793   -2.2210357  
C   -1.1336951    0.0019042   -0.7459471  
N   -2.4483478    0.0042124   -0.3402715  
C    0.0000000    0.0000000    0.0000000  
C    1.2757349   -0.0021020   -0.6964420  
O    2.3524563   -0.0038463   -0.1142321  
C    1.2676476   -0.0020200   -2.2584083  
O    2.3355731   -0.0034723   -2.8557303  
C   -0.0181567   -0.0001461   -2.9516296  
H   -0.0150802   -0.0003072   -4.0331630  
H   -4.3498504    0.0063689   -1.3200016  
H   -2.7563611    0.0032992    0.6148065  
C   -1.1135162    0.0033606   -7.8814646  
C   -0.0169652    0.0022476   -7.0804343  
C    1.1376907    0.0013687   -7.9473852  
C    0.6202363    0.0020951   -9.3290625  
N   -0.7512520    0.0028965   -9.2199353  
C    1.3978088    0.0019990  -10.4413052  
C    2.8406391    0.0008953  -10.2658799  
O    3.6258123    0.0006612  -11.2049244  
C    3.4106177   -0.0001399   -8.8116004  
O    4.6237162   -0.0013798   -8.6514398  
C    2.4722203    0.0003500   -7.6921087  
H   -0.0169657    0.0018809   -6.0049745  
H    0.9980804    0.0026708  -11.4458586  
H    2.8749458   -0.0001677   -6.6883476  
H   -1.3905503    0.0050727   -9.9934597  
C    2.3971438    2.0127888    3.1728260  
C    1.9431056    1.6308205    1.9564670  
C    0.8496017    0.7127664    2.2356185  
C    0.7794028    0.6545384    3.7115134  
N    1.6840587    1.4146091    4.2663826  
C   -0.1885723   -0.1578550    4.3957118  
C   -1.0476298   -0.8789867    3.6398520  
O   -2.0015663   -1.6796266    4.1448486  
C   -1.0022026   -0.8410666    2.1483229  
O   -1.8147390   -1.5232959    1.5241687  
C    0.0000000    0.0000000    1.4700000  
H    2.3054237    1.9346118    0.9892483  
H   -0.2170646   -0.1815267    5.4753125  
H   -2.4487139   -2.0549881    3.3649027  
H    3.2048689    2.6911772    3.3971983  
