58

C   -3.2941079    0.0012875   -2.9038234  
C   -4.0168013    0.0014139   -1.7541324  
C   -5.4101729    0.0018622   -2.1327515  
C   -5.4402200    0.0019584   -3.6078406  
N   -4.1255655    0.0019957   -4.0135161  
C   -6.5739167    0.0019524   -4.3537873  
C   -7.8496529    0.0020704   -3.6573456  
O   -8.9263771    0.0021360   -4.2395554  
C   -7.8415656    0.0022236   -2.0953789  
O   -8.9094933    0.0026303   -1.4980570  
C   -6.5557599    0.0019361   -1.4021574  
H   -3.6191807    0.0013981   -0.7548775  
H   -6.5739171    0.0018936   -5.4349490  
H   -6.5588367    0.0018391   -0.3206244  
H   -3.8175543    0.0005037   -4.9685941  
C    0.0000000    0.0000000    0.0000000  
C    1.0541686   -0.0001722   -0.8560393  
C    0.5103131   -0.0000453   -2.1935957  
C   -0.9576377    0.0002459   -2.0455727  
N   -1.2018463   -0.0001391   -0.6915965  
C   -1.8348318    0.0008318   -3.0810604  
C   -1.2972856    0.0009738   -4.4314602  
O   -2.0050684    0.0014267   -5.4301314  
C    0.2542612    0.0004186   -4.6117571  
O    0.7184659    0.0002259   -5.7439120  
C    1.0974545    0.0000875   -3.4189131  
H    2.0940750   -0.0005483   -0.5817985  
H   -2.1128195    0.0014912   -0.2706785  
C    3.4828001   -0.6865230   -2.8918314  
C    2.5562205   -0.0001551   -3.6003010  
C    3.3178329    0.7455275   -4.5904544  
C    4.7268461    0.3812378   -4.3286160  
N    4.8297821   -0.4579845   -3.3340811  
C    5.8087681    0.9176987   -5.1075520  
C    5.4972178    1.7786372   -6.1030694  
O    6.4055155    2.3551207   -6.9084902  
C    4.0848301    2.1655479   -6.3922466  
O    3.8748873    2.9543881   -7.3135909  
C    2.9927217    1.6016821   -5.5790557  
H    6.8290466    0.6342483   -4.8940167  
H    5.8827263    2.9123381   -7.5129344  
H    1.9834041    1.9069889   -5.8205016  
H    3.3218857   -1.3590960   -2.0643497  
C    3.3321173   -0.0004715    2.8079335  
C    2.6974184   -0.0000116    4.0032312  
C    1.2800439    0.0002118    3.6752840  
C    1.2395035   -0.0000644    2.1971295  
N    2.4394063   -0.0005460    1.6831036  
C    0.0000000    0.0000000    1.4700000  
C   -1.1468701   -0.0000635    2.1869543  
O   -2.3742202   -0.0000073    1.6395491  
C   -1.1388768   -0.0001607    3.6796354  
O   -2.2206231   -0.0000905    4.2670412  
C    0.1454524   -0.0001816    4.4024240  
H    3.1367986    0.0000651    4.9860947  
H   -2.9844344   -0.0001026    2.3990168  
H    0.1083576   -0.0003682    5.4835595  
H    4.3940039   -0.0007619    2.6198634  
