64

C   -4.5382365    2.1274889   -0.3187875  
C   -3.4269604    1.6643335   -0.9843852  
C   -3.8900485    0.7769750   -2.0006252  
C   -5.3047950    0.7381440   -1.9062261  
N   -5.6653104    1.5678664   -0.8736537  
C   -6.0984770   -0.0376825   -2.7564914  
C   -5.4522273   -0.7877422   -3.7197930  
O   -6.1789762   -1.5629116   -4.5765088  
C   -4.0415022   -0.7625026   -3.8294924  
O   -3.5480069   -1.5637590   -4.8383503  
C   -3.2578655    0.0024282   -2.9908505  
H   -2.4078388    1.9321496   -0.7637973  
H   -6.6070985    1.7501463   -0.5773607  
H   -7.1771659   -0.0717352   -2.6896158  
H   -5.5421674   -1.9966438   -5.1592758  
H   -2.5888323   -1.4892410   -4.8442647  
C   -3.5814613    3.6590717    1.4473581  
C   -4.0515318    4.4553636    2.4658970  
C   -5.4734921    4.3431569    2.4597122  
C   -5.8164921    3.4570045    1.4066171  
N   -4.6443825    3.0616790    0.8112218  
C   -7.1383367    3.1130238    1.1079651  
C   -8.1320082    3.6735881    1.8867853  
O   -9.4397869    3.3715614    1.6387704  
C   -7.8097779    4.5601747    2.9417492  
O   -8.9105072    5.0348102    3.6247282  
C   -6.5059807    4.9001779    3.2367709  
H   -3.4443162    5.0454709    3.1307691  
H   -7.4063649    2.4383525    0.3066018  
H   -9.9610865    3.8621610    2.2874791  
H   -8.6055272    5.6259516    4.3198126  
H   -6.2898961    5.5821068    4.0508703  
H   -2.5721629    3.4711010    1.1234095  
C    0.0000000    0.0000000    0.0000000  
C    1.0521666   -0.0011982   -0.8862343  
C    0.4917215   -0.0011996   -2.1979132  
C   -0.9187429    0.0003215   -2.0478682  
N   -1.1833171   -0.0009323   -0.7007913  
C   -1.7951703    0.0010483   -3.1372089  
C   -1.2375841    0.0005313   -4.4010422  
O   -2.0474218    0.0015510   -5.4997578  
C    0.1673576   -0.0013585   -4.5711963  
O    0.5673520   -0.0020735   -5.8915554  
C    1.0325768   -0.0023493   -3.4969892  
H    2.0953056   -0.0030808   -0.6200564  
H   -2.0989778    0.0102529   -0.2891822  
H   -1.4634888    0.0006601   -6.2693595  
H    1.5290707   -0.0033271   -5.9180047  
H    2.1042146   -0.0039770   -3.6584456  
C    1.0965515   -0.0001358    2.2710304  
C    0.0000000    0.0000000    1.4700000  
C   -1.1546562   -0.0001469    2.3369512  
C   -0.6372014   -0.0003519    3.7186280  
N    0.7342871   -0.0007337    3.6095011  
C   -1.4147739   -0.0001353    4.8308716  
C   -2.8576048    0.0001048    4.6554461  
O   -3.6427778    0.0002493    5.5944904  
C   -3.4275839    0.0000726    3.2011665  
O   -4.6406829   -0.0000333    3.0410059  
C   -2.4891866    0.0001091    2.0816745  
H   -1.0150448   -0.0001615    5.8354244  
H   -2.8919121    0.0002919    1.0779135  
H    2.1388271   -0.0000662    1.9961646  
H    1.3735872    0.0006099    4.3830260  
