60

C    3.3003537    0.0005277   -1.4739000  
C    2.5232799    0.0003499   -2.6090757  
C    1.1623189   -0.0001317   -2.1820106  
C    1.1711885    0.0000585   -0.7636144  
N    2.4852295   -0.0014918   -0.3662368  
C    0.0000000    0.0000000    0.0000000  
C   -1.2020393    0.0000521   -0.6806474  
O   -2.3759254    0.0003495    0.0157755  
C   -1.2314656   -0.0005110   -2.0955503  
O   -2.5054398   -0.0008034   -2.6250168  
C   -0.0764531   -0.0007269   -2.8495194  
H    2.8919938   -0.0005616   -3.6205312  
H    2.8036265    0.0088181    0.5858651  
H   -3.0835643    0.0000349   -0.6418807  
H   -2.4360069   -0.0011524   -3.5845912  
H   -0.1304110   -0.0013418   -3.9319084  
C    6.5907940    0.0004125   -4.4182901  
C    5.3731470    0.0003988   -3.8171156  
C    5.6071040    0.0003106   -2.3923001  
C    7.0713633    0.0003030   -2.2113713  
N    7.6095187   -0.0000323   -3.4775776  
C    7.6973063    0.0006260   -1.0072532  
C    6.8738980    0.0007803    0.1904669  
O    7.3427984    0.0010090    1.3211452  
C    5.3209689    0.0005394    0.0224868  
O    4.6174387    0.0003599    1.0236386  
C    4.7630496    0.0004757   -1.3275420  
H    4.4198578    0.0002628   -4.3149641  
H    6.8296397    0.0004931   -5.4694055  
H    8.5911147    0.0014371   -3.6861768  
C   10.8590369    2.1082258   -3.2083488  
C   11.9460373    1.6439432   -2.5398081  
C   11.4601679    0.7487765   -1.5163614  
C    9.9904653    0.7294399   -1.6443888  
N    9.6899584    1.5743366   -2.6878131  
C    9.1595802    0.0007866   -0.8567347  
C    9.7523666   -0.8189599    0.1868912  
O    9.0888186   -1.5109318    0.9479302  
C   11.3067531   -0.8135393    0.3407066  
O   11.8172077   -1.4995171    1.2159953  
C   12.0971307    0.0126422   -0.5684573  
H   12.9712096    1.8995396   -2.7405703  
H   13.1727486    0.0106636   -0.4554698  
H   10.8136464    2.7956530   -4.0373682  
H    8.7641364    1.7710802   -3.0212689  
C    2.4951002    2.0940188    2.9809380  
C    1.9440701    1.6314916    1.8291961  
C    0.8759964    0.7350050    2.2038498  
C    0.8497377    0.7130254    3.6788474  
N    1.8560616    1.5571714    4.0882609  
C   -0.0205033   -0.0168748    4.4215661  
C   -0.9962600   -0.8356168    3.7214979  
O   -1.8224391   -1.5286685    4.3006425  
C   -0.9864710   -0.8277881    2.1595606  
O   -1.8030528   -1.5133726    1.5592035  
C    0.0000000    0.0000000    1.4700000  
H    2.2509283    1.8888011    0.8310761  
H   -0.0229599   -0.0187323    5.5027230  
H    3.3143982    2.7817323    3.1139444  
H    2.0889452    1.7545833    5.0442112  
