62

C   -2.3384684    2.3289293   -1.4738969  
C   -1.7878354    1.7806179   -2.6090736  
C   -0.8233392    0.8204289   -2.1820096  
C   -0.8297556    0.8265529   -0.7636135  
N   -1.7595778    1.7550665   -0.3662344  
C    0.0000000    0.0000000    0.0000000  
C    0.8515323   -0.8484033   -0.6806486  
O    1.6829481   -1.6771118    0.0157736  
C    0.8727765   -0.8687728   -2.0955513  
O    1.7755135   -1.7677020   -2.6250193  
C    0.0546735   -0.0534416   -2.8495193  
H   -1.9924181    1.9724778    0.5858680  
H    2.1844879   -2.1763216   -0.6418827  
H    1.7265695   -1.7184494   -3.5845931  
H    0.0933326   -0.0910876   -3.9319087  
H   -3.0973204    3.0849809   -1.3667116  
C   -2.7047908    5.6927134   -4.5697779  
C   -2.3795324    4.7156299   -3.6576475  
C   -2.3883568    3.4729085   -4.3577660  
C   -2.7284159    3.7567414   -5.7052545  
N   -2.9157328    5.1134710   -5.7991394  
C   -2.8305100    2.7641923   -6.6846478  
C   -2.5845438    1.4614178   -6.2967598  
O   -2.6700182    0.4532470   -7.2128923  
C   -2.2442636    1.1581952   -4.9569526  
O   -2.0298676   -0.1853519   -4.7283483  
C   -2.1436289    2.1368304   -3.9901688  
H   -2.1636647    4.8784084   -2.6155835  
H   -3.1556949    5.6094960   -6.6384002  
H   -3.0894239    2.9739670   -7.7133171  
H   -2.4640237   -0.3635870   -6.7400140  
H   -1.8052285   -0.3039273   -3.8004039  
C   -2.1910554    8.1483496   -1.0069946  
C   -2.4486406    9.3907748   -1.4777472  
C   -2.7473163    9.2026593   -2.8890959  
C   -2.6202299    7.7454678   -3.1059493  
N   -2.2944135    7.1221913   -2.0062403  
C   -2.8408071    7.1457031   -4.3930830  
C   -3.1736091    7.9644069   -5.4169490  
O   -3.4080007    7.5411191   -6.6707149  
C   -3.3099614    9.4390361   -5.2297698  
O   -3.6155197   10.1234573   -6.2062033  
C   -3.0785281   10.0302145   -3.8997802  
H   -2.4374469   10.3201109   -0.9343463  
H   -3.6201094    8.3503432   -7.1700332  
H   -3.1873608   11.1023773   -3.8056902  
H   -1.9272733    7.8605230   -0.0017342  
C    0.8400945    0.7047457    2.2710304  
C    0.0000000    0.0000000    1.4700000  
C   -0.8844236   -0.7423113    2.3369512  
C   -0.4878984   -0.4098547    3.7186280  
N    0.5629682    0.4714286    3.6095011  
C   -1.0836927   -0.9095027    4.8308716  
C   -2.1891196   -1.8367527    4.6554461  
O   -2.7906899   -2.3413415    5.5944904  
C   -2.6257283   -2.2031529    3.2011665  
O   -3.5549479   -2.9829990    3.0410059  
C   -1.9068976   -1.5999348    2.0816745  
H   -0.7774656   -0.6525820    5.8354244  
H   -2.2155208   -1.8586617    1.0779135  
H    1.6384792    1.3747609    1.9961646  
H    1.0518368    0.8833920    4.3830260  
