58

C    2.1025989   -3.2337318   -9.8855222  
C    2.4533985   -2.5197489  -10.9860874  
C    2.0752212   -1.1487626  -10.7366613  
C    1.4710373   -1.1223524   -9.3909055  
N    1.5174995   -2.4176004   -8.9293178  
C    0.9857760   -0.0077410   -8.7876914  
C    1.0635563    1.2497843   -9.5123412  
O    0.6539075    2.3086389   -9.0548305  
C    1.6992808    1.2451373  -10.9390988  
O    1.7699338    2.2977956  -11.5589201  
C    2.1878344   -0.0192981  -11.4834982  
H    2.9232783   -2.9090948  -11.8716585  
H    2.6268092   -0.0139376  -12.4719292  
H    2.2220900   -4.2874901   -9.6926348  
H    1.1803395   -2.7226423   -8.0347119  
C    2.0577019   -2.1067617   -5.0538575  
C    2.0213371   -1.6421655   -6.3293585  
C    0.8918565   -0.7471753   -6.4193649  
C    0.2687259   -0.7282840   -5.0821507  
N    1.0227496   -1.5732438   -4.3008824  
C   -0.8287665    0.0000939   -4.7555305  
C   -1.4369816    0.8199928   -5.7901201  
O   -2.4278331    1.5117413   -5.5951874  
C   -0.7938994    0.8150427   -7.2135754  
O   -1.2973735    1.5011524   -8.0927953  
C    0.3886478   -0.0108725   -7.4444391  
H    2.7073334   -1.8974435   -7.1173024  
H    2.7533684   -2.7941800   -4.6006527  
H    0.8492697   -1.7702611   -3.3323080  
C    1.0672569   -0.0000698   -0.8321910  
C    0.0000000    0.0000000    0.0000000  
C   -1.1601223   -0.0000736   -0.8778472  
C   -0.5938729   -0.0000768   -2.2438435  
N    0.7113367   -0.0001553   -2.2234123  
C   -1.4286985   -0.0001877   -3.4135239  
C   -2.7683113   -0.0006798   -3.2270524  
O   -3.6653902   -0.0008302   -4.2276970  
C   -3.3702024   -0.0010610   -1.8610774  
O   -4.5974910   -0.0013779   -1.7662963  
C   -2.4926825   -0.0008943   -0.6770658  
H   -4.5324245   -0.0012258   -3.7833954  
H   -2.9677772   -0.0012974    0.2947961  
H    2.1134391   -0.0000547   -0.5705119  
C    0.8400945    0.7047457    2.2710304  
C    0.0000000    0.0000000    1.4700000  
C   -0.8844236   -0.7423113    2.3369512  
C   -0.4878984   -0.4098547    3.7186280  
N    0.5629682    0.4714286    3.6095011  
C   -1.0836927   -0.9095027    4.8308716  
C   -2.1891196   -1.8367527    4.6554461  
O   -2.7906899   -2.3413415    5.5944904  
C   -2.6257283   -2.2031529    3.2011665  
O   -3.5549479   -2.9829990    3.0410059  
C   -1.9068976   -1.5999348    2.0816745  
H   -0.7774656   -0.6525820    5.8354244  
H   -2.2155208   -1.8586617    1.0779135  
H    1.6384792    1.3747609    1.9961646  
H    1.0518368    0.8833920    4.3830260  
