58

C    7.2698668   -3.5952214   -3.7289752  
C    8.3415499   -4.3779886   -4.0168048  
C    8.6036656   -4.2301934   -5.4289971  
C    7.5895878   -3.2903964   -5.9439919  
N    6.8116939   -2.9430575   -4.8636557  
C    7.4986994   -2.8902553   -7.2375640  
C    8.4639342   -3.4207619   -8.1859428  
O    8.4653271   -3.1213983   -9.3728211  
C    9.5465317   -4.4176989   -7.6625849  
O   10.3643048   -4.8711726   -8.4518051  
C    9.5435737   -4.7737274   -6.2458672  
H    8.8861734   -4.9893153   -3.3194677  
H    6.7472068   -2.1998556   -7.5946602  
H   10.2965819   -5.4644525   -5.8914610  
H    6.7761166   -3.4400838   -2.7834423  
C    5.6703524   -2.0177344   -4.9085743  
C    4.8680132   -1.6338541   -3.8885417  
C    3.9117994   -0.7160921   -4.4884317  
C    4.2939635   -0.6601083   -5.9158071  
N    5.3241007   -1.4211366   -6.1680806  
C    3.5804919    0.1513591   -6.8632060  
C    2.5326227    0.8737497   -6.4055417  
O    1.7779995    1.6737359   -7.1779450  
C    2.1221166    0.8381007   -4.9708377  
O    1.1586088    1.5213822   -4.6244278  
C    2.8699641   -0.0020530   -4.0185824  
H    4.9187306   -1.9362135   -2.8565134  
H    3.8818032    0.1733865   -7.9003344  
H    1.1149872    2.0503428   -6.5715340  
C    3.2573670   -0.0002921   -1.5109382  
C    2.5379468   -0.0001711   -0.3591962  
C    1.1435043    0.0000330   -0.7338498  
C    1.1092608   -0.0000085   -2.2088474  
N    2.4227562    0.0001906   -2.6182610  
C   -0.0265533   -0.0002525   -2.9515663  
C   -1.3003033   -0.0002641   -2.2514979  
O   -2.3786785   -0.0004132   -2.8306425  
C   -1.2877724    0.0000310   -0.6895608  
O   -2.3539956    0.0003306   -0.0892035  
C    0.0000000    0.0000000    0.0000000  
H    2.9384091   -0.0000370    0.6389240  
H   -0.0296290   -0.0004088   -4.0327231  
H    4.3270394   -0.0004767   -1.6439445  
C    2.5528530    2.1414826    2.8079335  
C    2.0663498    1.7338582    4.0032312  
C    0.9804344    0.8229586    3.6752840  
C    0.9495562    0.7966882    2.1971295  
N    1.8690446    1.5676019    1.6831036  
C    0.0000000    0.0000000    1.4700000  
C   -0.8785127   -0.7372425    2.1869543  
O   -1.8187535   -1.5261249    1.6395491  
C   -0.8723269   -0.7321790    3.6796354  
O   -1.7010379   -1.4274584    4.2670412  
C    0.1115397    0.0933559    4.4024240  
H    2.4028853    2.0163452    4.9860947  
H   -2.2861435   -1.9184361    2.3990168  
H    0.0832434    0.0693689    5.4835595  
H    3.3664920    2.8238276    2.6198634  
