58

C   -4.3373522    2.0879594    1.7070124  
C   -4.7851090    1.6273616    0.5105853  
C   -5.8840187    0.7328957    0.7883682  
C   -6.0409176    0.7099996    2.2552184  
N   -5.0730977    1.5517391    2.7529023  
C   -6.9750453   -0.0185424    2.9172893  
C   -7.8866114   -0.8347514    2.1328233  
O   -8.7622803   -1.5264303    2.6358986  
C   -7.7384425   -0.8259136    0.5779046  
O   -8.5000214   -1.5093685   -0.0930254  
C   -6.6930515    0.0002344   -0.0208356  
H   -4.3904869    1.8846773   -0.4562011  
H   -7.0732965   -0.0211075    3.9939736  
H   -3.5316514    2.7738457    1.9126726  
H   -4.9254317    1.7480262    3.7258945  
C   -3.2941076    0.0012874   -2.9038237  
C   -3.9928925    0.0012416   -1.7448244  
C   -5.3903267    0.0018082   -2.1493928  
C   -5.3503938    0.0022637   -3.6275636  
N   -4.1243045    0.0018805   -4.0755523  
C   -6.5485052    0.0028447   -4.4210470  
C   -7.7326800    0.0025760   -3.7675455  
O   -8.9284331    0.0030587   -4.3809097  
C   -7.8059026    0.0017443   -2.2766401  
O   -8.9180023    0.0016649   -1.7489529  
C   -6.5627960    0.0012033   -1.4850530  
H   -3.6076317    0.0007788   -0.7395137  
H   -6.4897389    0.0033754   -5.4996831  
H   -9.5790599    0.0026690   -3.6557628  
C    0.0000000    0.0000000    0.0000000  
C    1.0541688   -0.0001722   -0.8560393  
C    0.5103135   -0.0000454   -2.1935957  
C   -0.9576374    0.0002459   -2.0455730  
N   -1.2018460   -0.0001391   -0.6915968  
C   -1.8348314    0.0008317   -3.0810607  
C   -1.2972851    0.0009737   -4.4314604  
O   -2.0050676    0.0014265   -5.4301315  
C    0.2542619    0.0004184   -4.6117571  
O    0.7184666    0.0002257   -5.7439121  
C    1.0974550    0.0000874   -3.4189130  
H    2.0940752   -0.0005483   -0.5817984  
H    2.1707276   -0.0000911   -3.5523671  
H   -2.1128194    0.0014912   -0.2706789  
C    1.0965515   -0.0001358    2.2710304  
C    0.0000000    0.0000000    1.4700000  
C   -1.1546562   -0.0001469    2.3369512  
C   -0.6372014   -0.0003519    3.7186280  
N    0.7342871   -0.0007337    3.6095011  
C   -1.4147739   -0.0001353    4.8308716  
C   -2.8576048    0.0001048    4.6554461  
O   -3.6427778    0.0002493    5.5944904  
C   -3.4275839    0.0000726    3.2011665  
O   -4.6406829   -0.0000333    3.0410059  
C   -2.4891866    0.0001091    2.0816745  
H   -1.0150448   -0.0001615    5.8354244  
H   -2.8919121    0.0002919    1.0779135  
H    2.1388271   -0.0000662    1.9961646  
H    1.3735872    0.0006099    4.3830260  
