58

C    1.0237157   -0.0002861   -7.7961633  
C   -0.0276346   -0.0007512   -6.9366652  
C   -1.2277445   -0.0013417   -7.7395175  
C   -0.7862215   -0.0012106   -9.1472988  
N    0.5891726   -0.0001631   -9.1129440  
C   -1.6231494   -0.0020445  -10.2155937  
C   -3.0543002   -0.0029185   -9.9619366  
O   -3.8893956   -0.0036443  -10.8568748  
C   -3.5443206   -0.0028204   -8.4788026  
O   -4.7469102   -0.0032446   -8.2528846  
C   -2.5464111   -0.0021628   -7.4120184  
H    0.0308714   -0.0005055   -5.8627983  
H   -1.2786614   -0.0020609  -11.2404048  
H   -2.8939341   -0.0023045   -6.3878350  
H    1.1854460   -0.0013848   -9.9201028  
C    3.1006060    0.0006268   -3.9654947  
C    4.3994792    0.0008534   -4.3456354  
C    4.3646294    0.0008282   -5.8000375  
C    2.9251417    0.0004559   -6.1383557  
N    2.1793118    0.0004171   -5.0670355  
C    2.4634066    0.0003686   -7.4991965  
C    3.3972670    0.0010300   -8.4775826  
O    3.1090951    0.0010281   -9.7902120  
C    4.8575565    0.0017902   -8.1682048  
O    5.6513835    0.0022443   -9.1089808  
C    5.3059849    0.0018211   -6.7643400  
H    5.2733148    0.0011078   -3.7167579  
H    3.9761783    0.0016099  -10.2344183  
H    6.3723227    0.0024981   -6.5822606  
C    3.2798085    0.0005859   -1.4499648  
C    2.5571146    0.0005569   -2.5996553  
C    1.1637437    0.0001551   -2.2210359  
C    1.1336966   -0.0000198   -0.7459471  
N    2.4483513   -0.0001427   -0.3402720  
C    0.0000000    0.0000000    0.0000000  
C   -1.2757366   -0.0000185   -0.6964416  
O   -2.3524595   -0.0000640   -0.1142313  
C   -1.2676493   -0.0000870   -2.2584084  
O   -2.3355759   -0.0004098   -2.8557296  
C    0.0181563    0.0001763   -2.9516295  
H    0.0150795    0.0003323   -4.0331630  
H    4.3498549    0.0008614   -1.3200020  
H    2.7563627    0.0012824    0.6148062  
C    2.5128556    2.1077716    2.9199648  
C    1.9592212    1.6432552    4.0696553  
C    0.8915788    0.7479214    3.6910360  
C    0.8684491    0.7287414    2.2159470  
N    1.8754542    1.5738793    1.8102719  
C    0.0000000    0.0000000    1.4700000  
C   -0.9772830   -0.8200135    2.1664417  
O   -1.8021297   -1.5120829    1.5842315  
C   -0.9711318   -0.8147624    3.7284083  
O   -1.7894187   -1.5009653    4.3257297  
C    0.0140216    0.0115358    4.4216297  
H    2.2638494    1.8988021    5.0689105  
H    0.0117648    0.0094386    5.5031631  
H    3.3327358    2.7953732    2.7900019  
H    2.1123206    1.7707734    0.8551938  
