58

C    0.0000000    0.0000000    0.0000000  
C    1.0541693   -0.0001722   -0.8560387  
C    0.5103150   -0.0000453   -2.1935956  
C   -0.9576359    0.0002463   -2.0455738  
N   -1.2018452   -0.0001387   -0.6915977  
C   -1.8348290    0.0008322   -3.0810622  
C   -1.2972821    0.0009744   -4.4314615  
O   -2.0050638    0.0014275   -5.4301331  
C    0.2542652    0.0004188   -4.6117576  
O    0.7184705    0.0002260   -5.7439120  
C    1.0974570    0.0000875   -3.4189127  
H    2.0940754   -0.0005486   -0.5817977  
H    2.1707302   -0.0000913   -3.5523661  
H   -2.1128189    0.0014918   -0.2706805  
C   -4.6945328    2.0112733   -0.3161638  
C   -3.5419717    1.6295587   -0.9140565  
C   -3.9513650    0.7131112   -1.9671571  
C   -5.4249846    0.6554386   -1.8589750  
N   -5.8663720    1.4144239   -0.8929997  
C   -6.2212849   -0.1553971   -2.7384849  
C   -5.5748568   -0.8755691   -3.6833755  
O   -6.1915649   -1.6747263   -4.5705397  
C   -4.0887134   -0.8381747   -3.8180605  
O   -3.5674030   -1.5194682   -4.7008375  
C   -3.2941055    0.0012883   -2.9038262  
H   -2.5379802    1.9325465   -0.6705906  
H   -5.4713988   -2.0497083   -5.1089655  
H   -4.8195600    2.6886083    0.5136308  
C   -7.6843928   -0.1871001   -2.5998861  
C   -8.4514719    0.4789280   -1.7056958  
C   -9.8170424    0.0843436   -2.0155672  
C   -9.6858546   -0.8490844   -3.1549030  
N   -8.4380351   -1.0121755   -3.5018004  
C  -10.8290112   -1.4706441   -3.7647730  
C  -12.0477913   -1.1735281   -3.2591724  
O  -13.1997423   -1.6806641   -3.7301951  
C  -12.2128642   -0.2356060   -2.1097314  
O  -13.3521513   -0.0110233   -1.7013096  
C  -11.0248178    0.3892366   -1.5014193  
H   -8.1302893    1.1544751   -0.9313871  
H  -10.7038166   -2.1486903   -4.5963314  
H  -13.8920212   -1.2853617   -3.1701608  
H  -11.1868355    1.0627602   -0.6705487  
C    3.2573670    0.0002920    2.9809380  
C    2.5379467    0.0001709    1.8291961  
C    1.1435042   -0.0000331    2.2038498  
C    1.1092607    0.0000083    3.6788474  
N    2.4227561   -0.0001909    4.0882609  
C   -0.0265533    0.0002524    4.4215661  
C   -1.3003036    0.0002640    3.7214979  
O   -2.3786784    0.0004133    4.3006425  
C   -1.2877726   -0.0000311    2.1595606  
O   -2.3539958   -0.0003306    1.5592035  
C    0.0000000    0.0000000    1.4700000  
H    2.9384090    0.0000368    0.8310761  
H   -0.0296291    0.0004086    5.5027230  
H    4.3270393    0.0004765    3.1139444  
H    2.7280493    0.0013407    5.0442112  
