58

C    6.2303957   -2.3589464   -6.2373743  
C    5.8009416   -1.0748222   -6.3406657  
C    6.6478539   -0.4245750   -7.3126491  
C    7.6128161   -1.4424383   -7.7704641  
N    7.3063605   -2.5924928   -7.0802829  
C    8.5842416   -1.2215069   -8.6919976  
C    8.6863335    0.1075314   -9.2714542  
O    9.5275134    0.4061896  -10.1090228  
C    7.6749567    1.2010192   -8.8011292  
O    7.7513672    2.3237256   -9.2817040  
C    6.6716207    0.8428723   -7.8016804  
H    9.2819061   -1.9820659   -9.0140607  
H    5.9749479    1.6056749   -7.4815182  
H    5.8515162   -3.1542637   -5.6162378  
H    7.7886166   -3.4673338   -7.1758302  
C    4.3913909   -0.7046358   -4.2635300  
C    3.2973506   -0.0000934   -3.8752374  
C    2.8435632    0.7418821   -5.0277931  
C    3.7695327    0.4094499   -6.1272744  
N    4.6845872   -0.4714999   -5.5986041  
C    3.6794132    0.9088338   -7.3859241  
C    2.5984068    1.8357538   -7.6770942  
O    2.4323273    2.3400889   -8.7799829  
C    1.6062047    2.2021224   -6.5276970  
O    0.6923301    2.9816918   -6.7608611  
C    1.8057158    1.5992068   -5.2121969  
H    4.3690172    0.6519365   -8.1779845  
H    1.1142468    1.8579094   -4.4218375  
H    5.0082527   -1.3743839   -3.6866343  
C    3.3321174    0.0004714   -1.3379332  
C    2.6974186    0.0000115   -2.5332308  
C    1.2800441   -0.0002119   -2.2052838  
C    1.2395035    0.0000643   -0.7271293  
N    2.4394063    0.0005458   -0.2131034  
C    0.0000000    0.0000000    0.0000000  
C   -1.1468701    0.0000634   -0.7169542  
O   -2.3742201    0.0000072   -0.1695492  
C   -1.1388767    0.0001606   -2.2096354  
O   -2.2206229    0.0000903   -2.7970413  
C    0.1454526    0.0001815   -2.9324239  
H   -2.9844344    0.0001023   -0.9290168  
H    0.1083580    0.0003680   -4.0135594  
H    4.3940040    0.0007617   -1.1498630  
C    0.0000000    0.0000000    1.4700000  
C    1.0541688    0.0001722    2.3260392  
C    0.5103138    0.0000454    3.6635956  
C   -0.9576371   -0.0002459    3.5155732  
N   -1.2018458    0.0001392    2.1615969  
C   -1.8348311   -0.0008317    4.5510609  
C   -1.2972847   -0.0009736    5.9014604  
O   -2.0050672   -0.0014265    6.9001319  
C    0.2542623   -0.0004184    6.0817573  
O    0.7184670   -0.0002256    7.2139121  
C    1.0974552   -0.0000873    4.8889129  
H    2.0940752    0.0005483    2.0517982  
H   -2.9081052   -0.0011668    4.4207061  
H    2.1707277    0.0000911    5.0223670  
H   -2.1128194   -0.0014912    1.7406791  
