58

C    4.7131956    0.0202321   -8.0825703  
C    5.7793989   -0.6557603   -8.5828896  
C    5.8834058   -0.3038404   -9.9793750  
C    4.7825217    0.6393746  -10.2535832  
N    4.1104381    0.7936096   -9.0630348  
C    4.5380896    1.2053049  -11.4625825  
C    5.4178617    0.8623890  -12.5675457  
O    5.2806065    1.3192946  -13.6947992  
C    6.5900565   -0.1346871  -12.2999567  
O    7.3371081   -0.4311180  -13.2226185  
C    6.7525524   -0.6788521  -10.9541000  
H    6.4198103   -1.3247393   -8.0361235  
H    3.7251293    1.8949796  -11.6424569  
H    7.5667440   -1.3683999  -10.7770715  
H    3.3071574    1.3794752   -8.9268393  
C    5.9779326   -2.0928591   -4.4468277  
C    5.0400352   -1.6304885   -3.5804345  
C    4.1859904   -0.7341816   -4.3234534  
C    4.7069274   -0.7121369   -5.7036455  
N    5.7934746   -1.5560773   -5.7119683  
C    4.1728105    0.0176375   -6.7155015  
C    3.0072078    0.8361656   -6.4258171  
O    2.4535609    1.5290919   -7.2693982  
C    2.4388222    0.8282646   -4.9709355  
O    1.4580061    1.5136694   -4.7150426  
C    3.1006054    0.0006263   -3.9654951  
H    4.9561723   -1.8877887   -2.5395805  
H    6.7884827   -2.7804145   -4.2674807  
H    6.3633296   -1.7534007   -6.5140749  
C    3.2798083    0.0005857   -1.4499652  
C    2.5571142    0.0005565   -2.5996556  
C    1.1637432    0.0001548   -2.2210361  
C    1.1336964   -0.0000200   -0.7459473  
N    2.4483512   -0.0001428   -0.3402723  
C    0.0000000    0.0000000    0.0000000  
C   -1.2757368   -0.0000186   -0.6964415  
O   -2.3524598   -0.0000639   -0.1142311  
C   -1.2676497   -0.0000872   -2.2584083  
O   -2.3355766   -0.0004101   -2.8557295  
C    0.0181558    0.0001758   -2.9516296  
H    0.0150788    0.0003319   -4.0331631  
H    4.3498547    0.0008612   -1.3200026  
H    2.7563626    0.0012823    0.6148059  
C    0.8175213    0.6860729    2.3021913  
C    0.0000000    0.0000000    1.4700000  
C   -0.8887526   -0.7456559    2.3478473  
C   -0.4549825   -0.3816753    3.7138435  
N    0.5448156    0.4573574    3.6934124  
C   -1.0945674   -0.9182058    4.8835240  
C   -2.1210866   -1.7789155    4.6970523  
O   -2.8083856   -2.3554314    5.6976972  
C   -2.5824069   -2.1655116    3.3310774  
O   -3.5227682   -2.9541547    3.2362962  
C   -1.9100805   -1.6015804    2.1470656  
H   -0.7567140   -0.6349833    5.8697035  
H   -3.4728268   -2.9124471    5.2533954  
H   -2.2742832   -1.9066565    1.1752040  
H    1.6189533    1.3585343    2.0405121  
