60

C    1.1243395    0.0100782   -0.7919010  
C    0.7474040    0.0235115   -2.1148548  
C   -0.6787415    0.0233971   -2.1414696  
C   -1.1201758    0.0097737   -0.7935542  
N    0.0000000    0.0000000    0.0000000  
C   -2.4730830    0.0061822   -0.4408226  
C   -3.3971982    0.0168389   -1.4675040  
O   -4.7313537    0.0142648   -1.1793444  
C   -2.9763692    0.0301236   -2.8186306  
O   -4.0166531    0.0392052   -3.7247602  
C   -1.6418609    0.0334008   -3.1673472  
H   -2.8160167   -0.0043259    0.5845992  
H   -5.1938850    0.0226902   -2.0274352  
H   -3.6464741    0.0479510   -4.6127320  
H   -1.3497532    0.0434839   -4.2109226  
H    2.1062456    0.0054427   -0.3505420  
C    4.5319292   -2.0776305   -2.8537124  
C    4.8147758   -1.6017605   -4.0937207  
C    3.7436675   -0.7030830   -4.4541949  
C    2.8069158   -0.6943140   -3.3143662  
N    3.3421392   -1.5480571   -2.3775907  
C    1.6628901    0.0340172   -3.2649309  
C    1.3320042    0.8645456   -4.4109120  
O    0.3240644    1.5571281   -4.4627604  
C    2.3095777    0.8704226   -5.6291567  
O    2.0413590    1.5655310   -6.5997976  
C    3.5120755    0.0434965   -5.5655555  
H    4.1838666    0.0533359   -6.4130952  
H    5.0924562   -2.7708065   -2.2477370  
H    2.9326581   -1.7531193   -1.4846621  
C    6.5523113   -3.1745354   -5.0250393  
C    5.9911667   -1.9436546   -4.9061945  
C    6.7692562   -1.0453072   -5.7261846  
C    7.8373480   -1.8595595   -6.3368918  
N    7.6502198   -3.1406187   -5.8713168  
C    8.7840191   -1.3775535   -7.1813968  
C    8.7487171    0.0376776   -7.5106537  
O    9.5573806    0.5672211   -8.2616193  
C    7.6264953    0.9188985   -6.8751427  
O    7.5868610    2.1117984   -7.1447336  
C    6.6621441    0.2853226   -5.9793417  
H    9.5587912   -1.9919802   -7.6185669  
H    5.8881308    0.9023892   -5.5436160  
H    6.2562892   -4.1035186   -4.5654189  
H    8.2218208   -3.9298028   -6.1111260  
C    0.8400945    0.7047457    2.2710304  
C    0.0000000    0.0000000    1.4700000  
C   -0.8844236   -0.7423113    2.3369512  
C   -0.4878984   -0.4098547    3.7186280  
N    0.5629682    0.4714286    3.6095011  
C   -1.0836927   -0.9095027    4.8308716  
C   -2.1891196   -1.8367527    4.6554461  
O   -2.7906899   -2.3413415    5.5944904  
C   -2.6257283   -2.2031529    3.2011665  
O   -3.5549479   -2.9829990    3.0410059  
C   -1.9068976   -1.5999348    2.0816745  
H   -0.7774656   -0.6525820    5.8354244  
H   -2.2155208   -1.8586617    1.0779135  
H    1.6384792    1.3747609    1.9961646  
H    1.0518368    0.8833920    4.3830260  
