64

C    1.9332187   -2.1183846   -5.2802483  
C    1.0132700   -1.6573356   -4.3672339  
C    0.1425861   -0.7692372   -5.0656543  
C    0.5838243   -0.7278054   -6.4130662  
N    1.6739347   -1.5567574   -6.5085379  
C   -0.0442373    0.0493839   -7.3909745  
C   -1.1378299    0.7981573   -7.0016524  
O   -1.7886906    1.5745662   -7.9163015  
C   -1.5929068    0.7703230   -5.6618963  
O   -2.6929018    1.5705681   -5.4317602  
C   -0.9736297    0.0040464   -4.6965763  
H    0.9751831   -1.9269943   -3.3256833  
H    0.2872453    0.0854192   -8.4195763  
H   -2.5110530    2.0070699   -7.4425945  
H   -2.9357434    1.4942922   -4.5039593  
H    2.7546830   -2.8023051   -5.1521549  
C    3.4820120   -5.2846475   -8.1888197  
C    2.8202251   -4.3800126   -7.3912364  
C    2.9029431   -3.1131134   -8.0414093  
C    3.6328536   -3.3082358   -9.2418613  
N    3.9709692   -4.6375134   -9.2994446  
C    3.9073635   -2.2701348  -10.1372828  
C    3.4361929   -1.0122015   -9.8151326  
O    3.6755853    0.0372862  -10.6543469  
C    2.7063229   -0.7974810   -8.6218167  
O    2.3059121    0.5105703   -8.4428862  
C    2.4353744   -1.8210743   -7.7378658  
H    2.3382074   -4.6052831   -6.4553383  
H    4.4837570   -5.0741865  -10.0439886  
H    4.4632427   -2.4122838  -11.0537935  
H    3.2664028    0.8116779  -10.2467300  
H    1.8199072    0.5692906   -7.6146622  
H    3.6451679   -6.3400123   -8.0526353  
C    1.1188642    0.0008222   -0.8003808  
C    0.0000000    0.0000000    0.0000000  
C   -1.1323862    0.0008899   -0.8673528  
C   -0.6382663    0.0019679   -2.1969280  
N    0.7324016    0.0038481   -2.1202242  
C   -1.4770914    0.0027318   -3.3154808  
C   -2.8395473    0.0020945   -3.0876857  
O   -3.7039201    0.0024425   -4.1440349  
C   -3.3517868    0.0013931   -1.7684331  
O   -4.7300497    0.0012366   -1.7073121  
C   -2.5248543    0.0009123   -0.6644817  
H    1.3576314   -0.0056167   -2.9057046  
H   -4.5940032    0.0021826   -3.7685128  
H   -4.9934602    0.0007259   -0.7819913  
H   -2.9462577    0.0005603    0.3339659  
H    2.1619895    0.0009355   -0.5342068  
C    2.4951002    2.0940188    2.9809380  
C    1.9440701    1.6314916    1.8291961  
C    0.8759964    0.7350050    2.2038498  
C    0.8497377    0.7130254    3.6788474  
N    1.8560616    1.5571714    4.0882609  
C   -0.0205033   -0.0168748    4.4215661  
C   -0.9962600   -0.8356168    3.7214979  
O   -1.8224391   -1.5286685    4.3006425  
C   -0.9864710   -0.8277881    2.1595606  
O   -1.8030528   -1.5133726    1.5592035  
C    0.0000000    0.0000000    1.4700000  
H    2.2509283    1.8888011    0.8310761  
H   -0.0229599   -0.0187323    5.5027230  
H    3.3143982    2.7817323    3.1139444  
H    2.0889452    1.7545833    5.0442112  
