58

C    0.1565243   -1.0878087   -9.6471035  
C   -0.0323591   -0.0097871   -8.8431965  
C   -0.2394012    1.1284779   -9.7070952  
C   -0.1550798    0.6215936  -11.0901162  
N    0.0868502   -0.7286757  -10.9846043  
C   -0.2974235    1.3890205  -12.2002955  
C   -0.5503474    2.8090359  -12.0210723  
O   -0.6931016    3.5836469  -12.9580348  
C   -0.6433079    3.3675386  -10.5653114  
O   -0.8555951    4.5614857  -10.4019593  
C   -0.4729154    2.4417326   -9.4483064  
H   -0.2321061    0.9973209  -13.2058876  
H   -0.5389170    2.8363558   -8.4434975  
H    0.3409735   -2.1143658   -9.3749864  
H    0.1940587   -1.3568725  -11.7597965  
C    2.4782021   -2.1081876   -5.8783640  
C    1.9212515   -1.6438940   -7.0265418  
C    0.8545985   -0.7486150   -6.6450159  
C    0.8356633   -0.7292245   -5.1698698  
N    1.8439053   -1.5742004   -4.7669395  
C   -0.0307352   -0.0004646   -4.4215603  
C   -1.0100801    0.8193482   -5.1153371  
O   -1.8333384    1.5114170   -4.5308821  
C   -1.0083720    0.8138722   -6.6773139  
O   -1.8284255    1.4999049   -7.2724035  
C   -0.0251095   -0.0124251   -7.3732162  
H    2.2230621   -1.8995540   -8.0266228  
H    3.2985200   -2.7956864   -5.7506354  
H    2.0835085   -1.7709326   -3.8125107  
C    3.2573670   -0.0002920   -1.5109380  
C    2.5379468   -0.0001709   -0.3591961  
C    1.1435043    0.0000332   -0.7338500  
C    1.1092609   -0.0000082   -2.2088477  
N    2.4227562    0.0001909   -2.6182613  
C   -0.0265532   -0.0002522   -2.9515663  
C   -1.3003035   -0.0002639   -2.2514981  
O   -2.3786784   -0.0004131   -2.8306429  
C   -1.2877725    0.0000312   -0.6895608  
O   -2.3539958    0.0003307   -0.0892036  
C    0.0000000    0.0000000    0.0000000  
H    2.9384091   -0.0000369    0.6389239  
H    4.3270394   -0.0004765   -1.6439446  
H    2.7280494   -0.0013406   -3.5742113  
C    2.5128556    2.1077716    2.9199648  
C    1.9592212    1.6432552    4.0696553  
C    0.8915788    0.7479214    3.6910360  
C    0.8684491    0.7287414    2.2159470  
N    1.8754542    1.5738793    1.8102719  
C    0.0000000    0.0000000    1.4700000  
C   -0.9772830   -0.8200135    2.1664417  
O   -1.8021297   -1.5120829    1.5842315  
C   -0.9711318   -0.8147624    3.7284083  
O   -1.7894187   -1.5009653    4.3257297  
C    0.0140216    0.0115358    4.4216297  
H    2.2638494    1.8988021    5.0689105  
H    0.0117648    0.0094386    5.5031631  
H    3.3327358    2.7953732    2.7900019  
H    2.1123206    1.7707734    0.8551938  
