60

C    1.1243411    0.0100026   -0.7919004  
C    0.7474071    0.0234613   -2.1148551  
C   -0.6787384    0.0234422   -2.1414704  
C   -1.1201745    0.0098483   -0.7935555  
N    0.0000000    0.0000000    0.0000000  
C   -2.4730816    0.0063472   -0.4408241  
C   -3.3971960    0.0170656   -1.4675060  
O   -4.7313522    0.0145808   -1.1793467  
C   -2.9763656    0.0303221   -2.8186324  
O   -4.0166481    0.0394731   -3.7247626  
C   -1.6418570    0.0335101   -3.1673484  
H    1.4178713    0.0311102   -2.9571212  
H   -2.8160166   -0.0041379    0.5845965  
H   -5.1938821    0.0230372   -2.0274390  
H   -3.6464680    0.0481939   -4.6127343  
H    2.1062466    0.0053018   -0.3505411  
C   -0.1936758   -0.6738947   -5.1271223  
C   -0.0848703   -0.4442870   -6.4611074  
C   -1.1307898    0.4861841   -6.8148177  
C   -1.8630904    0.7819826   -5.5686117  
N   -1.2456339    0.0471604   -4.5828770  
C   -2.9257077    1.6216592   -5.4820511  
C   -3.3784995    2.2776848   -6.6974298  
O   -4.3266797    3.0513724   -6.7231437  
C   -2.6179146    1.9789096   -8.0286130  
O   -2.9902086    2.5251438   -9.0583151  
C   -1.4864716    1.0555280   -7.9961202  
H    0.6446949   -0.8774561   -7.1219504  
H   -3.4487332    1.8249756   -4.5579212  
H    0.4059922   -1.3093613   -4.4958771  
C   -0.3063382   -0.4246086   -9.6623991  
C   -0.7778009    0.7818322   -9.2546023  
C   -0.4494151    1.7337952  -10.2893799  
C    0.2570490    0.9776387  -11.3410101  
N    0.3113058   -0.3243973  -10.8998209  
C    0.7326611    1.5202682  -12.4903800  
C    0.5358069    2.9441013  -12.7059782  
O    0.9273945    3.5263205  -13.7089647  
C   -0.2095316    3.7644659  -11.6053968  
O   -0.3808796    4.9640083  -11.7756843  
C   -0.6763660    3.0680662  -10.4091759  
H    1.2480172    0.9478087  -13.2490682  
H   -1.1917102    3.6432384   -9.6519956  
H   -0.3579484   -1.3784353   -9.1629586  
H    0.7326999   -1.0851020  -11.4006234  
C    0.0000000    0.0000000    1.4700000  
C    1.0541688    0.0001722    2.3260392  
C    0.5103138    0.0000454    3.6635956  
C   -0.9576371   -0.0002459    3.5155732  
N   -1.2018458    0.0001392    2.1615969  
C   -1.8348311   -0.0008317    4.5510609  
C   -1.2972847   -0.0009736    5.9014604  
O   -2.0050672   -0.0014265    6.9001319  
C    0.2542623   -0.0004184    6.0817573  
O    0.7184670   -0.0002256    7.2139121  
C    1.0974552   -0.0000873    4.8889129  
H    2.0940752    0.0005483    2.0517982  
H   -2.9081052   -0.0011668    4.4207061  
H    2.1707277    0.0000911    5.0223670  
H   -2.1128194   -0.0014912    1.7406791  
