60

C    3.3003552    0.0005285   -1.4738972  
C    2.5232826    0.0003507   -2.6090736  
C    1.1623212   -0.0001311   -2.1820097  
C    1.1711890    0.0000587   -0.7636137  
N    2.4852304   -0.0014914   -0.3662351  
C    0.0000000    0.0000000    0.0000000  
C   -1.2020381    0.0000523   -0.6806491  
O   -2.3759247    0.0003490    0.0157734  
C   -1.2314645   -0.0005108   -2.0955513  
O   -2.5054375   -0.0008033   -2.6250193  
C   -0.0764506   -0.0007263   -2.8495194  
H    2.8036265    0.0088185    0.5858674  
H   -3.0835635    0.0000345   -0.6418830  
H   -2.4360031   -0.0011517   -3.5845931  
H   -0.1304079   -0.0013410   -3.9319087  
H    4.3715557    0.0004903   -1.3667118  
C    5.8850917   -2.1080177   -4.4895951  
C    5.7585093   -1.6448877   -5.7598559  
C    4.6253954   -0.7500301   -5.7707340  
C    4.0984511   -0.7296185   -4.3927995  
N    4.9059601   -1.5736615   -3.6658810  
C    3.0267453   -0.0008938   -3.9901690  
C    2.3467562    0.8178009   -4.9800624  
O    1.3721093    1.5097474   -4.7162936  
C    2.8874981    0.8112320   -6.4454499  
O    2.3229964    1.4963187   -7.2876228  
C    4.0508322   -0.0149179   -6.7584712  
H    6.3870555   -1.9010531   -6.5940757  
H    4.4191272   -0.0137378   -7.7753693  
H    4.8014755   -1.7695703   -2.6872340  
C    7.8915858   -3.6582516   -4.5889836  
C    6.8752642   -3.0447502   -3.9391486  
C    6.9712331   -3.5135870   -2.5652924  
C    8.1331448   -4.4282147   -2.5639107  
N    8.6767646   -4.5169528   -3.7473771  
C    8.5646160   -5.1083650   -1.3738206  
C    7.8672834   -4.8846608   -0.2367109  
O    8.1583355   -5.4522093    0.9461743  
C    6.6903985   -3.9669714   -0.2058916  
O    6.1026847   -3.8105916    0.8643223  
C    6.2674712   -3.2810621   -1.4398230  
H    9.4170201   -5.7713406   -1.4017508  
H    7.4890684   -5.1011461    1.5609820  
H    5.4102125   -2.6243894   -1.3756493  
H    8.1620407   -3.5731239   -5.6294545  
C    0.0000000    0.0000000    1.4700000  
C    1.0541688    0.0001722    2.3260392  
C    0.5103138    0.0000454    3.6635956  
C   -0.9576371   -0.0002459    3.5155732  
N   -1.2018458    0.0001392    2.1615969  
C   -1.8348311   -0.0008317    4.5510609  
C   -1.2972847   -0.0009736    5.9014604  
O   -2.0050672   -0.0014265    6.9001319  
C    0.2542623   -0.0004184    6.0817573  
O    0.7184670   -0.0002256    7.2139121  
C    1.0974552   -0.0000873    4.8889129  
H    2.0940752    0.0005483    2.0517982  
H   -2.9081052   -0.0011668    4.4207061  
H    2.1707277    0.0000911    5.0223670  
H   -2.1128194   -0.0014912    1.7406791  
