62

C    3.3041272    0.0001177   -1.5420431  
C    2.5845370   -0.0004780   -0.3695856  
C    1.2040004   -0.0000008   -0.7283590  
C    1.1422372    0.0006037   -2.1454372  
N    2.4348639    0.0026111   -2.6077465  
C   -0.0655183    0.0008798   -2.8497916  
C   -1.2321770    0.0002324   -2.1101397  
O   -2.4392813    0.0001147   -2.7472520  
C   -1.1911211   -0.0000007   -0.6955262  
O   -2.4371526   -0.0002320   -0.1032861  
C    0.0000000    0.0000000    0.0000000  
H    3.0031535   -0.0000661    0.6222581  
H    2.7054628   -0.0071098   -3.5745262  
H   -3.1132988   -0.0000650   -2.0551783  
H   -2.3200283   -0.0004072    0.8516412  
C    2.3129716   -2.1206345   -5.9853334  
C    1.8203208   -1.6593259   -4.7866024  
C    0.7463510   -0.7716030   -5.0917857  
C    0.6289213   -0.7306573   -6.5047477  
N    1.5963342   -1.5595249   -7.0163213  
C   -0.3301683    0.0460723   -7.1617300  
C   -1.1865071    0.7948777   -6.3780510  
O   -2.1420034    1.5708501   -6.9678871  
C   -1.0848073    0.7675249   -4.9667659  
O   -2.0089558    1.5677380   -4.3272719  
C   -0.1387085    0.0017018   -4.3179686  
H    2.1903016   -1.9285747   -3.8121214  
H    1.7490274   -1.7403238   -7.9920149  
H   -0.4247473    0.0817359   -8.2382918  
H   -2.6234316    2.0034607   -6.2507127  
H   -1.8718975    1.4918036   -3.3780341  
H    3.1197749   -2.8044119   -6.1865217  
C    6.7370869   -0.0041641    1.2348616  
C    5.4910177   -0.0032945    0.6950598  
C    5.6537434   -0.0009386   -0.7396354  
C    7.1071782   -0.0005331   -0.9932446  
N    7.7077101   -0.0021559    0.2445959  
C    7.6723921    0.0010932   -2.2270334  
C    6.7903710    0.0027669   -3.3822696  
O    7.2023937    0.0043595   -4.5348908  
C    5.2477319    0.0026237   -3.1371780  
O    4.4952268    0.0043301   -4.1020580  
C    4.7577221    0.0005130   -1.7610465  
H    4.5636987   -0.0040178    1.2397545  
H    8.7410248    0.0012322   -2.3911479  
H    7.0279706   -0.0058863    2.2727794  
H    8.6984752   -0.0038795    0.4040600  
C    2.5128556    2.1077716    2.9199648  
C    1.9592212    1.6432552    4.0696553  
C    0.8915788    0.7479214    3.6910360  
C    0.8684491    0.7287414    2.2159470  
N    1.8754542    1.5738793    1.8102719  
C    0.0000000    0.0000000    1.4700000  
C   -0.9772830   -0.8200135    2.1664417  
O   -1.8021297   -1.5120829    1.5842315  
C   -0.9711318   -0.8147624    3.7284083  
O   -1.7894187   -1.5009653    4.3257297  
C    0.0140216    0.0115358    4.4216297  
H    2.2638494    1.8988021    5.0689105  
H    0.0117648    0.0094386    5.5031631  
H    3.3327358    2.7953732    2.7900019  
H    2.1123206    1.7707734    0.8551938  
