58

C   -5.5364758    0.7238048    1.1086970  
C   -5.7237991    0.5071298    2.4361144  
C   -6.8244810   -0.4191097    2.5602718  
C   -7.2661990   -0.7265187    1.1865269  
N   -6.4453444   -0.0017740    0.3535602  
C   -8.2862694   -1.5662459    0.8766586  
C   -8.9966619   -2.2100768    1.9690691  
O   -9.9295467   -2.9828057    1.7932361  
C   -8.5459956   -1.8988832    3.4318962  
O   -9.1367846   -2.4347938    4.3598115  
C   -7.4324075   -0.9766637    3.6399460  
H   -5.1558683    0.9462006    3.2369164  
H   -8.5942546   -1.7781868   -0.1378048  
H   -7.1264087   -0.7666515    4.6558122  
H   -4.8110719    1.3526654    0.6185804  
C   -3.3460096   -0.0004265   -2.7913646  
C   -4.0050883   -0.0007136   -1.6040609  
C   -5.4169930   -0.0010574   -1.9063180  
C   -5.5272434   -0.0009755   -3.3775878  
N   -4.2366049   -0.0001893   -3.8541817  
C   -6.6998413   -0.0016249   -4.0607553  
C   -7.9358013   -0.0022343   -3.2959434  
O   -9.0426027   -0.0027802   -3.8187159  
C   -7.8427528   -0.0020796   -1.7367297  
O   -8.8766027   -0.0022816   -1.0821960  
C   -6.5211391   -0.0016368   -1.1144846  
H   -3.5536952   -0.0005051   -0.6279167  
H   -6.7586581   -0.0016816   -5.1403161  
H   -3.9810064   -0.0015040   -4.8246018  
C    0.0000000    0.0000000    0.0000000  
C    1.0662919   -0.0000103   -0.8334269  
C    0.4961869    0.0000064   -2.1718889  
C   -0.9663859   -0.0000850   -1.9540246  
N   -1.2632774   -0.0000084   -0.6828657  
C   -1.8985363   -0.0000518   -3.0477257  
C   -1.3925778    0.0004564   -4.3020545  
O   -2.1456384    0.0005409   -5.4151311  
C    0.0786230    0.0009323   -4.5544998  
O    0.4683758    0.0012588   -5.7221098  
C    1.0143164    0.0008442   -3.4159030  
H    2.1107195    0.0000633   -0.5721867  
H   -1.5042275    0.0009691   -6.1484418  
H    2.0724152    0.0013148   -3.6409744  
C    3.1301144    0.0010313    3.1728260  
C    2.5367765    0.0002768    1.9564670  
C    1.1089900   -0.0001027    2.2356185  
C    1.0177864    0.0004150    3.7115134  
N    2.1993570    0.0011613    4.2663826  
C   -0.2459220    0.0002880    4.3957118  
C   -1.3675327    0.0000606    3.6398520  
O   -2.6129319   -0.0000866    4.1448486  
C   -1.3083589   -0.0000910    2.1483229  
O   -2.3693264   -0.0004206    1.5241687  
C    0.0000000    0.0000000    1.4700000  
H    3.0096015    0.0001008    0.9892483  
H   -0.2829642    0.0004689    5.4753125  
H   -3.1967446   -0.0002093    3.3649027  
H    4.1849273    0.0015113    3.3971983  
