62

C    1.3178873    2.2643457   -5.4060706  
C    1.2148255    1.3093498   -4.4212716  
C    0.7302758    0.1206099   -5.0431318  
C    0.5547926    0.4129761   -6.4199590  
N    0.9188611    1.7235078   -6.6059127  
C    0.0883053   -0.5307657   -7.3400296  
C   -0.2061125   -1.7927255   -6.8615382  
O   -0.6646643   -2.7525560   -7.7167991  
C   -0.0379208   -2.1035362   -5.4911642  
O   -0.3744317   -3.4024741   -5.1704422  
C    0.4219804   -1.1729286   -4.5828760  
H    1.4578267    1.4522787   -3.3822748  
H    0.9094427    2.2094018   -7.4844335  
H   -0.0477462   -0.3141736   -8.3906386  
H   -0.8059811   -3.5468416   -7.1853818  
H   -0.2320673   -3.5295652   -4.2274767  
C   -0.4296497    1.0390589   -0.7919008  
C   -0.3012031    0.6844299   -2.1148545  
C    0.2320263   -0.6382786   -2.1414698  
C    0.4096798   -1.0426175   -0.7935544  
N    0.0000000    0.0000000    0.0000000  
C    0.9187561   -2.2960969   -0.4408238  
C    1.2543255   -3.1571986   -1.4675055  
O    1.7554487   -4.3936664   -1.1793464  
C    1.0846890   -2.7718449   -2.8186319  
O    1.4651454   -3.7401038   -3.7247614  
C    0.5827820   -1.5353121   -3.1673478  
H   -0.5589726    1.3034088   -2.9571208  
H    1.0566986   -2.6102401    0.5845968  
H    1.9205376   -4.8258140   -2.0274373  
H    1.3186526   -3.4000315   -4.6127338  
H   -0.7924075    1.9515103   -0.3505413  
C    1.7619559    3.6633661   -5.3257894  
C    2.1868093    4.3659121   -4.2441223  
C    2.5050604    5.6967587   -4.7049895  
C    2.2287834    5.7120824   -6.1542058  
N    1.7816492    4.4493438   -6.4679762  
C    2.4028314    6.7910277   -6.9587476  
C    2.8953314    8.0190956   -6.3572271  
O    3.0850752    9.0449489   -6.9974814  
C    3.1947778    8.0255228   -4.8242246  
O    3.6101080    9.0535876   -4.3066886  
C    2.9675974    6.8005073   -4.0616116  
H    2.2681635    3.9942116   -3.2382226  
H    2.1940350    6.7812053   -8.0195102  
H    3.1771826    6.8133252   -3.0006526  
H    1.5094311    4.1461004   -7.3850303  
C    2.5128556    2.1077716    2.9199648  
C    1.9592212    1.6432552    4.0696553  
C    0.8915788    0.7479214    3.6910360  
C    0.8684491    0.7287414    2.2159470  
N    1.8754542    1.5738793    1.8102719  
C    0.0000000    0.0000000    1.4700000  
C   -0.9772830   -0.8200135    2.1664417  
O   -1.8021297   -1.5120829    1.5842315  
C   -0.9711318   -0.8147624    3.7284083  
O   -1.7894187   -1.5009653    4.3257297  
C    0.0140216    0.0115358    4.4216297  
H    2.2638494    1.8988021    5.0689105  
H    0.0117648    0.0094386    5.5031631  
H    3.3327358    2.7953732    2.7900019  
H    2.1123206    1.7707734    0.8551938  
