62

C    3.3041272    0.0001177   -1.5420431  
C    2.5845370   -0.0004780   -0.3695856  
C    1.2040004   -0.0000008   -0.7283590  
C    1.1422372    0.0006037   -2.1454372  
N    2.4348639    0.0026111   -2.6077465  
C   -0.0655183    0.0008798   -2.8497916  
C   -1.2321770    0.0002324   -2.1101397  
O   -2.4392813    0.0001147   -2.7472520  
C   -1.1911211   -0.0000007   -0.6955262  
O   -2.4371526   -0.0002320   -0.1032861  
C    0.0000000    0.0000000    0.0000000  
H    3.0031535   -0.0000661    0.6222581  
H    2.7054628   -0.0071098   -3.5745262  
H   -3.1132988   -0.0000650   -2.0551783  
H   -2.3200283   -0.0004072    0.8516412  
C    2.3136480   -2.1180444   -5.9171372  
C    1.6624047   -1.6181595   -7.0209781  
C    0.6419633   -0.7441447   -6.5420230  
C    0.7194920   -0.7504914   -5.1257345  
N    1.7437753   -1.5963711   -4.7793976  
C   -0.1387085    0.0017018   -4.3179686  
C   -1.0923534    0.7746129   -4.9514884  
O   -1.9557355    1.5288503   -4.2107383  
C   -1.1856790    0.7938841   -6.3634854  
O   -2.1870622    1.6126759   -6.8432319  
C   -0.3395509    0.0518697   -7.1609867  
H    1.8935966   -1.8552468   -8.0453476  
H    2.0414319   -1.7936221   -3.8410618  
H   -2.5301612    1.9837417   -4.8403211  
H   -2.1819319    1.5683232   -7.8042785  
H   -0.4351250    0.0866800   -8.2399363  
H    3.1386333   -2.8065415   -5.8513304  
C    5.7131792   -0.0007488   -0.7960725  
C    4.7577221    0.0005130   -1.7610465  
C    5.4429748    0.0025913   -3.0319750  
C    6.8863233    0.0024067   -2.7261401  
N    6.9827413    0.0007418   -1.3537005  
C    7.8703098    0.0036329   -3.6607384  
C    7.4818862    0.0054679   -5.0613306  
O    8.2934746    0.0067308   -5.9776407  
C    5.9589195    0.0059475   -5.4082866  
O    5.6198169    0.0077947   -6.5839849  
C    4.9917259    0.0042297   -4.3135792  
H    8.9232042    0.0033412   -3.4151307  
H    3.9391679    0.0043694   -4.5622679  
H    5.5966610   -0.0024254    0.2755200  
H    7.8428782   -0.0013342   -0.8367789  
C    2.3971438    2.0127888    3.1728260  
C    1.9431056    1.6308205    1.9564670  
C    0.8496017    0.7127664    2.2356185  
C    0.7794028    0.6545384    3.7115134  
N    1.6840587    1.4146091    4.2663826  
C   -0.1885723   -0.1578550    4.3957118  
C   -1.0476298   -0.8789867    3.6398520  
O   -2.0015663   -1.6796266    4.1448486  
C   -1.0022026   -0.8410666    2.1483229  
O   -1.8147390   -1.5232959    1.5241687  
C    0.0000000    0.0000000    1.4700000  
H    2.3054237    1.9346118    0.9892483  
H   -0.2170646   -0.1815267    5.4753125  
H   -2.4487139   -2.0549881    3.3649027  
H    3.2048689    2.6911772    3.3971983  
