58

C   -3.3846725   -0.0016376   -7.2033945  
C   -4.0403711   -0.0018204   -6.0142207  
C   -5.4531305   -0.0023525   -6.3124597  
C   -5.5675657   -0.0024948   -7.7834101  
N   -4.2782880   -0.0016452   -8.2636741  
C   -6.7421019   -0.0033633   -8.4632388  
C   -7.9758814   -0.0039885   -7.6949141  
O   -9.0841647   -0.0047235   -8.2145349  
C   -7.8783974   -0.0035988   -6.1359710  
O   -8.9103808   -0.0038121   -5.4784985  
C   -6.5550188   -0.0029306   -5.5174882  
H   -3.5862030   -0.0014245   -5.0393645  
H   -6.8039898   -0.0035820   -9.5426283  
H   -6.4961816   -0.0028695   -4.4375521  
H   -4.0254511   -0.0030742   -9.2348160  
C   -0.0307354   -0.0004645   -4.4215603  
C    1.0331812   -0.0004858   -5.2580174  
C    0.4592707   -0.0007209   -6.5948520  
C   -1.0026764   -0.0009309   -6.3728274  
N   -1.2959504   -0.0007012   -5.1008292  
C   -1.9379345   -0.0011514   -7.4638724  
C   -1.4355466   -0.0007724   -8.7196356  
O   -2.1917708   -0.0009260   -9.8305658  
C    0.0349300   -0.0001820   -8.9762653  
O    0.4213595    0.0000158  -10.1449796  
C    0.9738589   -0.0000096   -7.8403354  
H    2.0783477   -0.0002673   -4.9997493  
H   -1.5524487   -0.0005379  -10.5656984  
H    2.0313129    0.0005370   -8.0684157  
C    3.2573669   -0.0002919   -1.5109381  
C    2.5379467   -0.0001709   -0.3591962  
C    1.1435042    0.0000332   -0.7338501  
C    1.1092607   -0.0000081   -2.2088477  
N    2.4227561    0.0001910   -2.6182614  
C   -0.0265534   -0.0002522   -2.9515663  
C   -1.3003036   -0.0002639   -2.2514981  
O   -2.3786785   -0.0004131   -2.8306428  
C   -1.2877726    0.0000312   -0.6895608  
O   -2.3539957    0.0003306   -0.0892035  
C    0.0000000    0.0000000    0.0000000  
H    2.9384091   -0.0000368    0.6389238  
H    4.3270391   -0.0004764   -1.6439447  
H    2.7280492   -0.0013405   -3.5742114  
C    2.5528530    2.1414826    2.8079335  
C    2.0663498    1.7338582    4.0032312  
C    0.9804344    0.8229586    3.6752840  
C    0.9495562    0.7966882    2.1971295  
N    1.8690446    1.5676019    1.6831036  
C    0.0000000    0.0000000    1.4700000  
C   -0.8785127   -0.7372425    2.1869543  
O   -1.8187535   -1.5261249    1.6395491  
C   -0.8723269   -0.7321790    3.6796354  
O   -1.7010379   -1.4274584    4.2670412  
C    0.1115397    0.0933559    4.4024240  
H    2.4028853    2.0163452    4.9860947  
H   -2.2861435   -1.9184361    2.3990168  
H    0.0832434    0.0693689    5.4835595  
H    3.3664920    2.8238276    2.6198634  
