62

C    4.8697991    0.2266424   -1.4420373  
C    3.5582470    0.0403841   -1.8129917  
C    3.3083112    0.9143774   -2.9122042  
C    4.5146004    1.6147119   -3.1697381  
N    5.4416796    1.1746374   -2.2578847  
C    4.6353550    2.5633956   -4.1896432  
C    3.5180990    2.8093595   -4.9638648  
O    3.5807884    3.7257120   -5.9735093  
C    2.3054237    2.1210205   -4.7221527  
O    1.2838770    2.4773129   -5.5782141  
C    2.1854970    1.1851879   -3.7159913  
H    2.8664144   -0.6407382   -1.3477683  
H    5.5518744    3.1006769   -4.3909457  
H    2.7051617    3.7430790   -6.3812356  
H    0.5016448    1.9670191   -5.3473115  
H    5.4421698   -0.2406884   -0.6591247  
C    0.0000000    0.0000000    0.0000000  
C    0.9245702    0.5022222   -0.8862337  
C    0.4323963    0.2341484   -2.1979127  
C   -0.8069792   -0.4391711   -2.0478683  
N   -1.0387250   -0.5668243   -0.7007914  
C   -1.5769920   -0.8577465   -3.1372092  
C   -1.0870809   -0.5914946   -4.4010427  
O   -1.7987556   -0.9779617   -5.4997582  
C    0.1476214    0.0788598   -4.5711961  
O    0.4992325    0.2695580   -5.8915551  
C    0.9079177    0.4918422   -3.4969887  
H    1.8415395    0.9995248   -0.6200556  
H   -1.8481943   -0.9949818   -0.2891827  
H   -2.5223373   -1.3714927   -3.0295517  
H   -1.2855283   -0.6994360   -6.2693595  
H    1.3443993    0.7284674   -5.9180039  
C    9.1830646   -0.9975710   -1.5049652  
C   10.0607766    0.0363967   -1.5728431  
C    9.2894807    1.2261190   -1.8457884  
C    7.8803647    0.7974482   -1.9319511  
N    7.8839414   -0.5614092   -1.7165831  
C    6.8371007    1.6298904   -2.1776030  
C    7.1210592    3.0422683   -2.3701950  
O    6.2500750    3.8719651   -2.5966701  
C    8.6061795    3.5184059   -2.2834963  
O    8.8575141    4.7051046   -2.4442355  
C    9.6443310    2.5269940   -2.0129497  
H   11.1268805   -0.0271157   -1.4463442  
H   10.6700674    2.8648511   -1.9542865  
H    9.3760083   -2.0415264   -1.3183652  
H    7.0682243   -1.1458993   -1.7116659  
C    1.0672568    0.0000697    2.3021913  
C    0.0000000    0.0000000    1.4700000  
C   -1.1601224    0.0000736    2.3478473  
C   -0.5938729    0.0000769    3.7138435  
N    0.7113367    0.0001554    3.6934124  
C   -1.4286986    0.0001879    4.8835240  
C   -2.7683114    0.0006799    4.6970523  
O   -3.6653903    0.0008304    5.6976972  
C   -3.3702025    0.0010610    3.3310774  
O   -4.5974910    0.0013779    3.2362962  
C   -2.4926826    0.0008943    2.1470656  
H   -0.9878360   -0.0000190    5.8697035  
H   -4.5324246    0.0012261    5.2533954  
H   -2.9677772    0.0012974    1.1752040  
H    2.1134392    0.0000545    2.0405121  
