60

C    0.0000000    0.0000000    0.0000000  
C    0.7161582    0.7708264   -0.8862346  
C    0.3351591    0.3598042   -2.1979133  
C   -0.6248125   -0.6735721   -2.0478680  
N   -0.8037548   -0.8684587   -0.7007909  
C   -1.2211550   -1.3158350   -3.1372086  
C   -0.8417204   -0.9072625   -4.4010424  
O   -1.3930090   -1.5004907   -5.4997571  
C    0.1147669    0.1218130   -4.5711966  
O    0.3872139    0.4146758   -5.8915555  
C    0.7036837    0.7556762   -3.4969895  
H    1.4266810    1.5345665   -0.6200570  
H   -1.4344378   -1.5323841   -0.2891820  
H   -1.9533290   -2.1042084   -3.0295504  
H   -0.9953892   -1.0728501   -6.2693589  
H    1.0419248    1.1191314   -5.9180051  
C    4.4678147    1.7097850   -1.4465424  
C    4.8456965    2.7981262   -2.1654262  
C    3.8269733    3.0168504   -3.1650256  
C    2.8173639    1.9591569   -2.9681412  
N    3.2650980    1.2000144   -1.9116725  
C    1.6934786    1.8202155   -3.7159930  
C    1.4629351    2.7760666   -4.7863826  
O    0.4805698    2.7354962   -5.5155011  
C    2.5191224    3.9043025   -5.0130032  
O    2.3359316    4.7146442   -5.9113624  
C    3.6907669    3.9513943   -4.1418640  
H    4.4172311    4.7357963   -4.3052256  
H    4.9668776    1.2371155   -0.6162355  
H    2.7901917    0.4001999   -1.5350985  
C    7.2951951    3.1108333   -1.6533955  
C    6.0633189    3.5949206   -1.9570662  
C    6.1828778    5.0317945   -2.0341071  
C    7.5955207    5.3473962   -1.7484071  
N    8.2159626    4.1397471   -1.5258653  
C    8.1137983    6.6014207   -1.7256967  
C    7.2206483    7.7145870   -2.0007944  
O    7.5915069    8.8811011   -2.0038805  
C    5.7205901    7.4036336   -2.3056553  
O    4.9590917    8.3327130   -2.5384464  
C    5.2797264    6.0109826   -2.3017731  
H    9.1530789    6.8111824   -1.5140236  
H    4.2395819    5.8041487   -2.5140061  
H    7.6078003    2.0890083   -1.5118285  
H    9.1883522    4.0235628   -1.3067631  
C    3.2798086   -0.0005857    2.9199648  
C    2.5571146   -0.0005566    4.0696553  
C    1.1637436   -0.0001548    3.6910360  
C    1.1336965    0.0000200    2.2159470  
N    2.4483514    0.0001428    1.8102719  
C    0.0000000    0.0000000    1.4700000  
C   -1.2757367    0.0000186    2.1664417  
O   -2.3524596    0.0000640    1.5842315  
C   -1.2676493    0.0000873    3.7284083  
O   -2.3355761    0.0004100    4.3257297  
C    0.0181563   -0.0001760    4.4216297  
H    2.9547357   -0.0006076    5.0689105  
H    0.0150794   -0.0003319    5.5031631  
H    4.3498549   -0.0008612    2.7900019  
H    2.7563627   -0.0012824    0.8551938  
