58

C    9.8798789   -0.7284674   -2.1813441  
C   11.0952700   -0.5124624   -2.7472425  
C   10.8937279    0.4130011   -3.8370743  
C    9.4509518    0.7206854   -3.8598605  
N    8.8929592   -0.0031758   -2.8314836  
C    8.8576480    1.5598684   -4.7461257  
C    9.6959906    2.2027815   -5.7443143  
O    9.2562875    2.9749685   -6.5861514  
C   11.2265932    1.8912821   -5.7389038  
O   11.9423746    2.4264212   -6.5746919  
C   11.7497053    0.9697100   -4.7334634  
H   12.0266565   -0.9514896   -2.4367784  
H    7.7975074    1.7720250   -4.7455225  
H   12.8106103    0.7594804   -4.7363765  
H    9.6221040   -1.3566481   -1.3441880  
C    6.5698745   -0.0006424    0.9721610  
C    7.6069601   -0.0018567    0.1026609  
C    6.9912940   -0.0024304   -1.2154644  
C    5.5370524   -0.0015106   -0.9475763  
N    5.2839240   -0.0003802    0.3330154  
C    4.5679461   -0.0016854   -2.0086701  
C    5.0305960   -0.0023424   -3.2796107  
O    4.2398095   -0.0025847   -4.3662099  
C    6.4922749   -0.0029068   -3.5823560  
O    6.8417602   -0.0036172   -4.7626442  
C    7.4664610   -0.0027579   -2.4765141  
H    8.6597324   -0.0022168    0.3279336  
H    4.8556979   -0.0030411   -5.1210837  
H    6.6068538    0.0001033    2.0499390  
C    3.1301149   -0.0010311   -1.7028252  
C    2.5367768   -0.0002767   -0.4864665  
C    1.1089904    0.0001028   -0.7656183  
C    1.0177872   -0.0004148   -2.2415132  
N    2.1993578   -0.0011611   -2.7963820  
C   -0.2459209   -0.0002877   -2.9257118  
C   -1.3675319   -0.0000605   -2.1698524  
O   -2.6129313    0.0000867   -2.6748490  
C   -1.3083584    0.0000910   -0.6783232  
O   -2.3693261    0.0004206   -0.0541692  
C    0.0000000    0.0000000    0.0000000  
H    3.0096017   -0.0001007    0.4807525  
H   -0.2829630   -0.0004687   -4.0053125  
H   -3.1967441    0.0002094   -1.8949034  
C    0.0000000    0.0000000    1.4700000  
C    1.0662921    0.0000102    2.3034270  
C    0.4961870   -0.0000064    3.6418889  
C   -0.9663858    0.0000850    3.4240247  
N   -1.2632773    0.0000084    2.1528658  
C   -1.8985362    0.0000517    4.5177257  
C   -1.3925775   -0.0004564    5.7720543  
O   -2.1456383   -0.0005410    6.8851312  
C    0.0786232   -0.0009323    6.0245000  
O    0.4683759   -0.0012588    7.1921102  
C    1.0143166   -0.0008442    4.8859032  
H    2.1107198   -0.0000632    2.0421868  
H   -2.9622183    0.0003270    4.3293377  
H   -1.5042274   -0.0009692    7.6184419  
H    2.0724152   -0.0013148    5.1109744  
