58

C    6.8354439   -0.0024597   -4.0255212  
C    5.5758876   -0.0020017   -3.5179843  
C    5.7016162   -0.0003813   -2.0795735  
C    7.1480384    0.0000996   -1.7886225  
N    7.7802453   -0.0016127   -3.0105885  
C    7.6812953    0.0019477   -0.5406887  
C    6.7698191    0.0033452    0.5914530  
O    7.1520250    0.0049834    1.7543012  
C    5.2340018    0.0026140    0.3067200  
O    4.4569006    0.0034707    1.2519041  
C    4.7795897    0.0008677   -1.0815734  
H    4.6629023   -0.0028997   -4.0863761  
H    8.7453476    0.0023989   -0.3491115  
H    7.1529577   -0.0035616   -5.0556057  
H    8.7747883   -0.0002010   -3.1444920  
C    3.3321166    0.0004717   -1.3379342  
C    2.6974176    0.0000121   -2.5332317  
C    1.2800432   -0.0002115   -2.2052842  
C    1.2395033    0.0000645   -0.7271297  
N    2.4394059    0.0005461   -0.2131042  
C    0.0000000    0.0000000    0.0000000  
C   -1.1468704    0.0000636   -0.7169540  
O   -2.3742206    0.0000073   -0.1695488  
C   -1.1388774    0.0001610   -2.2096351  
O   -2.2206238    0.0000908   -2.7970408  
C    0.1454514    0.0001820   -2.9324241  
H    3.1367977   -0.0000646   -3.5160953  
H   -2.9844351    0.0001027   -0.9290163  
C    2.4320874   -2.0124020   -6.1859213  
C    2.0200827   -1.6305786   -4.9546442  
C    0.9177864   -0.7123201   -5.1959805  
C    0.7970278   -0.6538274   -6.6685905  
N    1.6820117   -1.4139316   -7.2542826  
C   -0.1937187    0.1588225   -7.3190578  
C   -1.0262447    0.8799466   -6.5340644  
O   -1.9968178    1.6808100   -7.0059183  
C   -0.9297042    0.8417626   -5.0449762  
O   -1.7202585    1.5240004   -4.3932124  
C    0.0950440    0.0004357   -4.4015596  
H    2.4153094   -1.9345886   -4.0004695  
H   -0.2592110    0.1826846   -8.3970432  
H   -2.4169017    2.0561008   -6.2110353  
H    3.2315425   -2.6908671   -6.4379729  
C    0.0000000    0.0000000    1.4700000  
C    1.0541688    0.0001722    2.3260392  
C    0.5103138    0.0000454    3.6635956  
C   -0.9576371   -0.0002459    3.5155732  
N   -1.2018458    0.0001392    2.1615969  
C   -1.8348311   -0.0008317    4.5510609  
C   -1.2972847   -0.0009736    5.9014604  
O   -2.0050672   -0.0014265    6.9001319  
C    0.2542623   -0.0004184    6.0817573  
O    0.7184670   -0.0002256    7.2139121  
C    1.0974552   -0.0000873    4.8889129  
H    2.0940752    0.0005483    2.0517982  
H   -2.9081052   -0.0011668    4.4207061  
H    2.1707277    0.0000911    5.0223670  
H   -2.1128194   -0.0014912    1.7406791  
