58

C    7.5989975   -1.0899153   -4.6402744  
C    8.8730588   -0.7569008   -4.9718516  
C    8.8832447    0.6636721   -5.2301238  
C    7.5007737    1.1343532   -5.0203013  
N    6.7719812    0.0228168   -4.6650012  
C    7.0963988    2.4216084   -5.1657627  
C    8.0889716    3.4093833   -5.5551683  
O    7.8239014    4.5940618   -5.7119323  
C    9.5590653    2.9331961   -5.7829319  
O   10.4033928    3.7557169   -6.1113064  
C    9.8737221    1.5191210   -5.5952243  
H    9.7101534   -1.4296577   -5.0291666  
H    6.0773458    2.7459558   -5.0068954  
H   10.8939691    1.1975753   -5.7546884  
H    7.1946122   -2.0546400   -4.3801430  
C    4.4498803   -2.0927816   -1.5965443  
C    3.2085346   -1.6305559   -1.8956810  
C    3.3524545   -0.7335191   -3.0179321  
C    4.7897030   -0.7108882   -3.3504909  
N    5.3998262   -1.5552207   -2.4517466  
C    5.3348522    0.0196505   -4.3558915  
C    4.4468030    0.8384415   -5.1642761  
O    4.8411384    1.5320446   -6.0925625  
C    2.9210858    0.8299298   -4.8297316  
O    2.1637303    1.5155489   -5.5032295  
C    2.4521483    0.0014840   -3.7217481  
H    2.2961914   -1.8884110   -1.3879859  
H    4.7506785   -2.7807341   -0.8231548  
H    6.3833793   -1.7523012   -2.4229400  
C    0.0000000    0.0000000    0.0000000  
C    1.0662923   -0.0000101   -0.8334270  
C    0.4961873    0.0000065   -2.1718887  
C   -0.9663854   -0.0000848   -1.9540250  
N   -1.2632773   -0.0000083   -0.6828660  
C   -1.8985359   -0.0000514   -3.0477261  
C   -1.3925770    0.0004566   -4.3020547  
O   -2.1456378    0.0005414   -5.4151314  
C    0.0786240    0.0009326   -4.5545000  
O    0.4683767    0.0012591   -5.7221100  
C    1.0143171    0.0008444   -3.4159031  
H    2.1107200    0.0000633   -0.5721865  
H   -2.9622181   -0.0003268   -2.8593381  
H   -1.5042265    0.0009697   -6.1484419  
C    1.0672568    0.0000697    2.3021913  
C    0.0000000    0.0000000    1.4700000  
C   -1.1601224    0.0000736    2.3478473  
C   -0.5938729    0.0000769    3.7138435  
N    0.7113367    0.0001554    3.6934124  
C   -1.4286986    0.0001879    4.8835240  
C   -2.7683114    0.0006799    4.6970523  
O   -3.6653903    0.0008304    5.6976972  
C   -3.3702025    0.0010610    3.3310774  
O   -4.5974910    0.0013779    3.2362962  
C   -2.4926826    0.0008943    2.1470656  
H   -0.9878360   -0.0000190    5.8697035  
H   -4.5324246    0.0012261    5.2533954  
H   -2.9677772    0.0012974    1.1752040  
H    2.1134392    0.0000545    2.0405121  
