62

C    3.3041273    0.0001175   -1.5420435  
C    2.5845372   -0.0004779   -0.3695860  
C    1.2040005   -0.0000008   -0.7283593  
C    1.1422374    0.0006037   -2.1454377  
N    2.4348641    0.0026111   -2.6077466  
C   -0.0655181    0.0008798   -2.8497922  
C   -1.2321766    0.0002323   -2.1101403  
O   -2.4392816    0.0001146   -2.7472523  
C   -1.1911209   -0.0000007   -0.6955264  
O   -2.4371522   -0.0002319   -0.1032863  
C    0.0000000    0.0000000    0.0000000  
H    3.0031538   -0.0000661    0.6222575  
H    2.7054628   -0.0071099   -3.5745264  
H   -3.1132990   -0.0000647   -2.0551788  
H   -2.3200277   -0.0004070    0.8516402  
H    4.3686620    0.0004070   -1.7024297  
C    2.3129716   -2.1206346   -5.9853336  
C    1.8203210   -1.6593260   -4.7866025  
C    0.7463512   -0.7716031   -5.0917860  
C    0.6289215   -0.7306575   -6.5047477  
N    1.5963344   -1.5595250   -7.0163214  
C   -0.3301681    0.0460723   -7.1617305  
C   -1.1865065    0.7948777   -6.3780513  
O   -2.1420034    1.5708500   -6.9678874  
C   -1.0848074    0.7675251   -4.9667660  
O   -2.0089556    1.5677381   -4.3272724  
C   -0.1387083    0.0017018   -4.3179686  
H    2.1903016   -1.9285749   -3.8121219  
H   -0.4247473    0.0817359   -8.2382921  
H   -2.6234320    2.0034608   -6.2507130  
H   -1.8718974    1.4918036   -3.3780344  
H    3.1197745   -2.8044120   -6.1865217  
C    2.5693626   -5.2522163   -9.1844046  
C    2.6277639   -4.7614301  -10.4492338  
C    2.3453209   -3.3478901  -10.3657717  
C    2.1159676   -3.0532729   -8.9384006  
N    2.2659370   -4.2496663   -8.2757984  
C    1.8199029   -1.8242452   -8.4449015  
C    1.7202872   -0.7178193   -9.3821494  
O    1.4582393    0.4266967   -9.0361503  
C    1.9590785   -1.0069231  -10.8984619  
O    1.8775688   -0.0833646  -11.6969954  
C    2.2719048   -2.3732785  -11.3096361  
H    2.8438434   -5.3253095  -11.3391570  
H    2.4360487   -2.5650427  -12.3613049  
H    2.7222470   -6.2619932   -8.8396329  
H    2.1716912   -4.3748212   -7.2845864  
C    2.5128556    2.1077716    2.9199648  
C    1.9592212    1.6432552    4.0696553  
C    0.8915788    0.7479214    3.6910360  
C    0.8684491    0.7287414    2.2159470  
N    1.8754542    1.5738793    1.8102719  
C    0.0000000    0.0000000    1.4700000  
C   -0.9772830   -0.8200135    2.1664417  
O   -1.8021297   -1.5120829    1.5842315  
C   -0.9711318   -0.8147624    3.7284083  
O   -1.7894187   -1.5009653    4.3257297  
C    0.0140216    0.0115358    4.4216297  
H    2.2638494    1.8988021    5.0689105  
H    0.0117648    0.0094386    5.5031631  
H    3.3327358    2.7953732    2.7900019  
H    2.1123206    1.7707734    0.8551938  
