60

C    2.5250703   -2.1043380   -5.8790413  
C    1.9676442   -1.6402805   -7.0270840  
C    0.9000741   -0.7462065   -6.6452971  
C    0.8811192   -0.7272654   -5.1701454  
N    1.8902268   -1.5713252   -4.7674612  
C    0.0139746    0.0003883   -4.4216235  
C   -0.9662098    0.8193994   -5.1151615  
O   -1.7901763    1.5104538   -4.5305050  
C   -0.9644962    0.8143806   -6.6771403  
O   -1.7852523    1.4997461   -7.2720303  
C    0.0196125   -0.0107059   -7.3732832  
H    2.2697161   -1.8953396   -8.0272392  
H    0.0142763   -0.0084552   -8.4548046  
H    3.3460917   -2.7910331   -5.7515133  
H    2.1300313   -1.7680898   -3.8130901  
C    3.2798087    0.0005858   -1.4499643  
C    2.5571149    0.0005569   -2.5996548  
C    1.1637440    0.0001551   -2.2210358  
C    1.1336966   -0.0000198   -0.7459468  
N    2.4483512   -0.0001426   -0.3402714  
C    0.0000000    0.0000000    0.0000000  
C   -1.2757369   -0.0000185   -0.6964416  
O   -2.3524599   -0.0000639   -0.1142315  
C   -1.2676492   -0.0000870   -2.2584080  
O   -2.3355760   -0.0004099   -2.8557298  
C    0.0181565    0.0001762   -2.9516296  
H    2.9547360    0.0006079   -3.5989102  
H    2.7563627    0.0012824    0.6148067  
C    6.8068836    0.0035028   -4.1746982  
C    5.5278600    0.0022336   -3.7323449  
C    5.6328285    0.0014355   -2.2813170  
C    7.0869596    0.0022994   -2.0128312  
N    7.7802417    0.0035931   -3.1188818  
C    7.6138029    0.0019137   -0.6758484  
C    6.7282250    0.0011080    0.3464464  
O    7.0793816    0.0006626    1.6436474  
C    5.2547115    0.0005953    0.1078717  
O    4.5071908   -0.0002581    1.0858453  
C    4.7390849    0.0009618   -1.2727274  
H    4.6247057    0.0019725   -4.3183375  
H    8.6810612    0.0023580   -0.5089097  
H    6.2347352    0.0001400    2.1291635  
H    7.1567966    0.0044022   -5.1947641  
C    0.8676693    0.7151171    2.2619005  
C    0.5875920    0.4624972    3.5848544  
C   -0.5048400   -0.4542819    3.6114698  
C   -0.8517165   -0.7276451    2.2635546  
N    0.0000000    0.0000000    1.4700000  
C   -1.8902865   -1.5946756    1.9108239  
C   -2.5912627   -2.1969500    2.9375057  
O   -3.6148162   -3.0527051    2.6493466  
C   -2.2603868   -1.9365747    4.2886322  
O   -3.0513550   -2.6123276    5.1947621  
C   -1.2361111   -1.0811317    4.6373480  
H    1.1060808    0.8876438    4.4271209  
H   -2.1597133   -1.8070987    0.8854031  
H   -3.9636755   -3.3565188    3.4974381  
H   -2.7621927   -2.3810384    6.0827341  
H   -1.0058879   -0.9010589    5.6809233  
H    1.6167816    1.3499334    1.8205408  
