58

C    1.1319247    0.0015672   -0.8009268  
C    0.7969918    0.0034953   -2.1169401  
C   -0.6453339    0.0035696   -2.1842671  
C   -1.1266833    0.0015413   -0.7896028  
N    0.0000000    0.0000000    0.0000000  
C   -2.4346131    0.0013924   -0.4276296  
C   -3.4350115    0.0031349   -1.4820181  
O   -4.6384612    0.0030897   -1.2583917  
C   -2.9478958    0.0050454   -2.9661077  
O   -3.7809379    0.0062151   -3.8623778  
C   -1.5113824    0.0053060   -3.2312123  
H    1.4821237    0.0045428   -2.9459193  
H   -2.7664566    0.0000186    0.6013444  
H    2.1104318    0.0009426   -0.3488058  
C    1.7411999   -1.9992951   -5.5261467  
C    0.9379143   -1.6197493   -4.5052370  
C   -0.0205729   -0.7029843   -5.1030198  
C    0.3614474   -0.6427736   -6.5302614  
N    1.3934676   -1.4006646   -6.7842801  
C   -0.3540361    0.1690980   -7.4757952  
C   -1.4036916    0.8878354   -7.0164749  
O   -2.1602966    1.6877211   -7.7870411  
C   -1.8141040    0.8478723   -5.5818582  
O   -2.7793015    1.5279657   -5.2338823  
C   -1.0641735    0.0073886   -4.6315339  
H    0.9893834   -1.9243529   -3.4739062  
H   -2.8242388    2.0612889   -7.1797676  
H    2.5801840   -2.6761212   -5.4947512  
C    0.4744587   -0.8277371   -9.6573171  
C    0.0559137    0.2033323   -8.8870601  
C    0.0978942    1.3656028   -9.7610538  
C    0.5778037    0.8400888  -11.0572429  
N    0.8001515   -0.4450414  -11.0025470  
C    0.7579886    1.6889788  -12.2026709  
C    0.4713883    3.0030516  -12.0598145  
O    0.5935149    3.9092705  -13.0446459  
C   -0.0151079    3.5635789  -10.7647113  
O   -0.2563404    4.7692633  -10.7068126  
C   -0.1917746    2.6723432   -9.6043612  
H    1.1102597    1.2780668  -13.1375324  
H    0.3176985    4.7522245  -12.6415251  
H   -0.5462212    3.1172469   -8.6842204  
H    0.5843448   -1.8635240   -9.3779535  
C    2.4951002    2.0940188    2.9809380  
C    1.9440701    1.6314916    1.8291961  
C    0.8759964    0.7350050    2.2038498  
C    0.8497377    0.7130254    3.6788474  
N    1.8560616    1.5571714    4.0882609  
C   -0.0205033   -0.0168748    4.4215661  
C   -0.9962600   -0.8356168    3.7214979  
O   -1.8224391   -1.5286685    4.3006425  
C   -0.9864710   -0.8277881    2.1595606  
O   -1.8030528   -1.5133726    1.5592035  
C    0.0000000    0.0000000    1.4700000  
H    2.2509283    1.8888011    0.8310761  
H   -0.0229599   -0.0187323    5.5027230  
H    3.3143982    2.7817323    3.1139444  
H    2.0889452    1.7545833    5.0442112  
