58

C    4.5939382   -2.1037472   -2.7696731  
C    4.8996527   -1.6376002   -4.0079463  
C    3.8355763   -0.7416511   -4.3950538  
C    2.8780294   -0.7238869   -3.2727448  
N    3.3957276   -1.5703485   -2.3196543  
C    1.7334695    0.0049281   -3.2500363  
C    1.4239152    0.8265211   -4.4083525  
O    0.4172712    1.5187838   -4.4841266  
C    2.4237222    0.8227865   -5.6084260  
O    2.1735667    1.5103256   -6.5892280  
C    3.6246411   -0.0037444   -5.5162755  
H    4.3119034   -0.0005914   -6.3513712  
H    5.1430572   -2.7922313   -2.1481042  
H    2.9698478   -1.7683916   -1.4328327  
C    6.6547673   -3.2173798   -4.8933121  
C    6.0906968   -1.9859492   -4.7959609  
C    6.8827516   -1.0945309   -5.6101219  
C    7.9622266   -1.9134487   -6.1939849  
N    7.7676804   -3.1903160   -5.7200112  
C    8.9235743   -1.4384316   -7.0257751  
C    8.8931813   -0.0263350   -7.3686957  
O    9.7148283    0.4969601   -8.1098841  
C    7.7590910    0.8597300   -6.7616257  
O    7.7234530    2.0500527   -7.0429128  
C    6.7792529    0.2336081   -5.8774650  
H    9.7065163   -2.0561882   -7.4432542  
H    5.9970940    0.8539915   -5.4614409  
H    6.3511991   -4.1423373   -4.4305054  
H    8.3440624   -3.9811778   -5.9422011  
C    1.1319246    0.0015678   -0.8009268  
C    0.7969914    0.0034958   -2.1169401  
C   -0.6453340    0.0035696   -2.1842669  
C   -1.1266832    0.0015410   -0.7896025  
N    0.0000000    0.0000000    0.0000000  
C   -2.4346129    0.0013913   -0.4276292  
C   -3.4350111    0.0031335   -1.4820181  
O   -4.6384614    0.0030875   -1.2583914  
C   -2.9478961    0.0050442   -2.9661074  
O   -3.7809382    0.0062135   -3.8623773  
C   -1.5113825    0.0053055   -3.2312122  
H   -2.7664565    0.0000174    0.6013448  
H   -1.1823533    0.0068381   -4.2614848  
H    2.1104316    0.0009435   -0.3488059  
C    2.5128556    2.1077716    2.9199648  
C    1.9592212    1.6432552    4.0696553  
C    0.8915788    0.7479214    3.6910360  
C    0.8684491    0.7287414    2.2159470  
N    1.8754542    1.5738793    1.8102719  
C    0.0000000    0.0000000    1.4700000  
C   -0.9772830   -0.8200135    2.1664417  
O   -1.8021297   -1.5120829    1.5842315  
C   -0.9711318   -0.8147624    3.7284083  
O   -1.7894187   -1.5009653    4.3257297  
C    0.0140216    0.0115358    4.4216297  
H    2.2638494    1.8988021    5.0689105  
H    0.0117648    0.0094386    5.5031631  
H    3.3327358    2.7953732    2.7900019  
H    2.1123206    1.7707734    0.8551938  
