60

C    0.0000000    0.0000000    0.0000000  
C    1.0521663   -0.0011985   -0.8862346  
C    0.4917215   -0.0011999   -2.1979134  
C   -0.9187428    0.0003217   -2.0478684  
N   -1.1833171   -0.0009320   -0.7007913  
C   -1.7951702    0.0010485   -3.1372091  
C   -1.2375839    0.0005316   -4.4010427  
O   -2.0474214    0.0015510   -5.4997580  
C    0.1673579   -0.0013586   -4.5711965  
O    0.5673522   -0.0020741   -5.8915554  
C    1.0325770   -0.0023497   -3.4969894  
H    2.0953053   -0.0030813   -0.6200564  
H   -2.0989774    0.0102535   -0.2891825  
H   -1.4634888    0.0006605   -6.2693593  
H    1.5290702   -0.0033279   -5.9180048  
H    2.1042143   -0.0039778   -3.6584458  
C   -4.4484545    2.1114145   -0.3461923  
C   -5.6479905    1.6480102   -0.7825920  
C   -5.3783926    0.7523835   -1.8825943  
C   -3.9129544    0.7318199   -2.0524736  
N   -3.4082397    1.5765178   -1.0908926  
C   -3.2578654    0.0024289   -2.9908507  
C   -4.0489190   -0.8168734   -3.8939084  
O   -3.5523770   -1.5094411   -4.7725990  
C   -5.6025063   -0.8101561   -3.7322732  
O   -6.2789761   -1.4957501   -4.4869983  
C   -6.1934210    0.0167354   -2.6830244  
H   -6.6117099    1.9044774   -0.3799969  
H   -4.2368607    2.7988459    0.4566501  
H   -2.4341395    1.7725013   -0.9503009  
C   -8.9347400    3.2952454   -1.8321192  
C  -10.1345197    2.6690917   -1.8258947  
C   -9.8307834    1.2736575   -2.1033961  
C   -8.3602904    1.2351643   -2.2542429  
N   -7.8295121    2.4172341   -2.0962086  
C   -7.6564187    0.0152654   -2.5397186  
C   -8.3882598   -1.1148765   -2.6682573  
O   -7.8630608   -2.3229882   -2.9341005  
C   -9.8736928   -1.1085144   -2.5212617  
O  -10.4755762   -2.1743711   -2.6512893  
C  -10.5725336    0.1555398   -2.2284936  
H  -11.1056943    3.1008146   -1.6541079  
H   -8.6286423   -2.9246905   -2.9655819  
H  -11.6490934    0.1178960   -2.1293342  
H   -8.7305860    4.3411071   -1.6663832  
C    0.0000000    0.0000000    1.4700000  
C    1.0541688    0.0001722    2.3260392  
C    0.5103138    0.0000454    3.6635956  
C   -0.9576371   -0.0002459    3.5155732  
N   -1.2018458    0.0001392    2.1615969  
C   -1.8348311   -0.0008317    4.5510609  
C   -1.2972847   -0.0009736    5.9014604  
O   -2.0050672   -0.0014265    6.9001319  
C    0.2542623   -0.0004184    6.0817573  
O    0.7184670   -0.0002256    7.2139121  
C    1.0974552   -0.0000873    4.8889129  
H    2.0940752    0.0005483    2.0517982  
H   -2.9081052   -0.0011668    4.4207061  
H    2.1707277    0.0000911    5.0223670  
H   -2.1128194   -0.0014912    1.7406791  
