58

C   -3.3460099   -0.0004264   -2.7913642  
C   -4.0050887   -0.0007132   -1.6040605  
C   -5.4169941   -0.0010567   -1.9063173  
C   -5.5272438   -0.0009751   -3.3775875  
N   -4.2366052   -0.0001891   -3.8541809  
C   -6.6998416   -0.0016246   -4.0607549  
C   -7.9358028   -0.0022335   -3.2959425  
O   -9.0426036   -0.0027794   -3.8187153  
C   -7.8427533   -0.0020785   -1.7367289  
O   -8.8766032   -0.0022804   -1.0821953  
C   -6.5211392   -0.0016359   -1.1144840  
H   -3.5536960   -0.0005046   -0.6279162  
H   -6.7586587   -0.0016814   -5.1403157  
H   -6.4653744   -0.0017366   -0.0343851  
H   -3.9810069   -0.0015042   -4.8246013  
C    0.0000000    0.0000000    0.0000000  
C    1.0662919   -0.0000103   -0.8334270  
C    0.4961866    0.0000065   -2.1718889  
C   -0.9663862   -0.0000850   -1.9540246  
N   -1.2632775   -0.0000084   -0.6828656  
C   -1.8985367   -0.0000517   -3.0477255  
C   -1.3925784    0.0004565   -4.3020543  
O   -2.1456390    0.0005410   -5.4151309  
C    0.0786224    0.0009324   -4.5544999  
O    0.4683751    0.0012590   -5.7221101  
C    1.0143159    0.0008443   -3.4159032  
H    2.1107193    0.0000633   -0.5721870  
H   -1.5042281    0.0009693   -6.1484413  
C    4.3939396   -2.1065675   -1.5664985  
C    5.4031200   -1.6413501   -2.3470129  
C    4.8103410   -0.7457942   -3.3121180  
C    3.3627132   -0.7272476   -3.0278291  
N    3.1757273   -1.5729269   -1.9588329  
C    2.4521472    0.0014839   -3.7217486  
C    2.9297293    0.8221546   -4.8221802  
O    2.1884012    1.5142696   -5.5075351  
C    4.4587958    0.8175809   -5.1411457  
O    4.8725542    1.5043403   -6.0654976  
C    5.3421058   -0.0087727   -4.3221493  
H    6.4439777   -1.8965726   -2.2570679  
H    6.3995011   -0.0062041   -4.5493777  
H    4.4376443   -2.7945227   -0.7378264  
H    2.2909007   -1.7703224   -1.5285259  
C    3.3321173   -0.0004715    2.8079335  
C    2.6974184   -0.0000116    4.0032312  
C    1.2800439    0.0002118    3.6752840  
C    1.2395035   -0.0000644    2.1971295  
N    2.4394063   -0.0005460    1.6831036  
C    0.0000000    0.0000000    1.4700000  
C   -1.1468701   -0.0000635    2.1869543  
O   -2.3742202   -0.0000073    1.6395491  
C   -1.1388768   -0.0001607    3.6796354  
O   -2.2206231   -0.0000905    4.2670412  
C    0.1454524   -0.0001816    4.4024240  
H    3.1367986    0.0000651    4.9860947  
H   -2.9844344   -0.0001026    2.3990168  
H    0.1083576   -0.0003682    5.4835595  
H    4.3940039   -0.0007619    2.6198634  
