64

C    1.1243401    0.0100483   -0.7919007  
C    0.7474053    0.0234914   -2.1148547  
C   -0.6787405    0.0234146   -2.1414695  
C   -1.1201753    0.0098030   -0.7935540  
N    0.0000000    0.0000000    0.0000000  
C   -2.4730825    0.0062471   -0.4408226  
C   -3.3971975    0.0169279   -1.4675047  
O   -4.7313530    0.0143892   -1.1793449  
C   -2.9763681    0.0302012   -2.8186308  
O   -4.0166516    0.0393103   -3.7247604  
C   -1.6418596    0.0334433   -3.1673474  
H   -2.8160158   -0.0042520    0.5845977  
H   -5.1938843    0.0228267   -2.0274355  
H   -3.6464720    0.0480461   -4.6127323  
H   -1.3497512    0.0435186   -4.2109226  
H    2.1062461    0.0053870   -0.3505415  
C    2.8388809   -0.6742549   -3.3474595  
C    3.4422633   -0.4126037   -4.5557374  
C    2.5990617    0.5027998   -5.2526214  
C    1.4867033    0.7660554   -4.4128112  
N    1.6628917    0.0339729   -3.2649308  
C    0.4496687    1.6290828   -4.7795968  
C    0.5372983    2.2376732   -6.0165759  
O   -0.4477113    3.0899068   -6.4245804  
C    1.6390661    1.9874050   -6.8688026  
O    1.5808034    2.6684852   -8.0671677  
C    2.6623526    1.1359161   -6.5077242  
H    4.3748212   -0.8310021   -4.8937789  
H   -0.4009138    1.8338089   -4.1441454  
H   -0.1941610    3.3992672   -7.3039399  
H    2.3613307    2.4439419   -8.5828817  
H    3.1536194   -1.3111443   -2.5385896  
C    4.4020483   -0.3094286   -7.6439122  
C    3.7895901    0.9022014   -7.4218426  
C    4.4571187    1.8621071   -8.2389032  
C    5.4765607    1.1719626   -8.9434337  
N    5.4167138   -0.1440985   -8.5574048  
C    6.3361569    1.8073533   -9.8446342  
C    6.1632896    3.1640999  -10.0383683  
O    6.9749605    3.8340662  -10.9074763  
C    5.1520340    3.8702374   -9.3444302  
O    5.1073114    5.2158964   -9.6453380  
C    4.3038360    3.2441061   -8.4550226  
H    6.0119482   -0.8768010   -8.8992012  
H    7.1151943    1.2870467  -10.3846177  
H    6.6882836    4.7564929  -10.8929481  
H    4.3978511    5.6182448   -9.1350582  
H    3.5386592    3.8112555   -7.9379885  
H    4.1963105   -1.2782057   -7.2218907  
C    2.4951002    2.0940188    2.9809380  
C    1.9440701    1.6314916    1.8291961  
C    0.8759964    0.7350050    2.2038498  
C    0.8497377    0.7130254    3.6788474  
N    1.8560616    1.5571714    4.0882609  
C   -0.0205033   -0.0168748    4.4215661  
C   -0.9962600   -0.8356168    3.7214979  
O   -1.8224391   -1.5286685    4.3006425  
C   -0.9864710   -0.8277881    2.1595606  
O   -1.8030528   -1.5133726    1.5592035  
C    0.0000000    0.0000000    1.4700000  
H    2.2509283    1.8888011    0.8310761  
H   -0.0229599   -0.0187323    5.5027230  
H    3.3143982    2.7817323    3.1139444  
H    2.0889452    1.7545833    5.0442112  
