58

C    1.1319246    0.0015699   -0.8009270  
C    0.7969910    0.0034973   -2.1169403  
C   -0.6453347    0.0035683   -2.1842668  
C   -1.1266837    0.0015387   -0.7896024  
N    0.0000000    0.0000000    0.0000000  
C   -2.4346131    0.0013865   -0.4276287  
C   -3.4350119    0.0031267   -1.4820171  
O   -4.6384616    0.0030784   -1.2583901  
C   -2.9478970    0.0050382   -2.9661067  
O   -3.7809395    0.0062062   -3.8623766  
C   -1.5113834    0.0053027   -3.2312118  
H   -2.7664564    0.0000119    0.6013457  
H   -1.1823544    0.0068359   -4.2614846  
H    2.1104314    0.0009476   -0.3488061  
C    4.5548774   -2.1353085   -2.6566587  
C    4.9411038   -1.7265060   -3.8876294  
C    3.8945943   -0.8158998   -4.3259368  
C    2.9291045   -0.7910706   -3.2062058  
N    3.3108587   -1.5625084   -2.2248105  
C    1.7334684    0.0049315   -3.2500369  
C    1.5125968    0.7428951   -4.3617741  
O    0.4386411    1.5312663   -4.5382106  
C    2.4682948    0.7392876   -5.5084167  
O    2.2033062    1.4351603   -6.4886017  
C    3.6876297   -0.0855663   -5.4394041  
H    0.5619599    1.9243299   -5.4210731  
H    4.3545519   -0.0605239   -6.2907667  
H    5.0626410   -2.8178568   -1.9938791  
C    7.0545879   -5.5750711   -4.3547102  
C    6.1819394   -4.5960481   -4.0024695  
C    6.6353008   -3.3801846   -4.6356949  
C    7.8523147   -3.7336481   -5.3911604  
N    8.0526478   -5.0781989   -5.1791694  
C    8.5813354   -2.8577997   -6.1281303  
C    8.1378533   -1.4746488   -6.1805964  
O    8.7263805   -0.6101221   -6.8166232  
C    6.8517132   -1.0779400   -5.3879608  
O    6.4688546    0.0836764   -5.4243884  
C    6.1504688   -2.1109172   -4.6296293  
H    5.3192156   -4.7123090   -3.3709590  
H    9.4710328   -3.1376615   -6.6749622  
H    7.0526636   -6.6176991   -4.0811903  
H    8.8064989   -5.6161412   -5.5656571  
C    2.4951002    2.0940188    2.9809380  
C    1.9440701    1.6314916    1.8291961  
C    0.8759964    0.7350050    2.2038498  
C    0.8497377    0.7130254    3.6788474  
N    1.8560616    1.5571714    4.0882609  
C   -0.0205033   -0.0168748    4.4215661  
C   -0.9962600   -0.8356168    3.7214979  
O   -1.8224391   -1.5286685    4.3006425  
C   -0.9864710   -0.8277881    2.1595606  
O   -1.8030528   -1.5133726    1.5592035  
C    0.0000000    0.0000000    1.4700000  
H    2.2509283    1.8888011    0.8310761  
H   -0.0229599   -0.0187323    5.5027230  
H    3.3143982    2.7817323    3.1139444  
H    2.0889452    1.7545833    5.0442112  
