58

C    0.0000000    0.0000000    0.0000000  
C    1.0541685   -0.0001718   -0.8560392  
C    0.5103137   -0.0000448   -2.1935958  
C   -0.9576367    0.0002463   -2.0455734  
N   -1.2018458   -0.0001390   -0.6915970  
C   -1.8348312    0.0008321   -3.0810610  
C   -1.2972852    0.0009745   -4.4314608  
O   -2.0050675    0.0014276   -5.4301319  
C    0.2542623    0.0004195   -4.6117577  
O    0.7184669    0.0002269   -5.7439119  
C    1.0974552    0.0000881   -3.4189132  
H    2.0940750   -0.0005479   -0.5817985  
H   -2.9081044    0.0011672   -2.9507062  
H   -2.1128195    0.0014912   -0.2706792  
C    4.1988040   -2.1397328   -1.2302381  
C    5.3249605   -1.7327105   -1.8608595  
C    4.8655807   -0.8226603   -2.8987799  
C    3.3949139   -0.7961719   -2.7470504  
N    2.9982276   -1.5662358   -1.7705102  
C    2.5562211   -0.0001540   -3.6003008  
C    3.1593389    0.7362391   -4.5611901  
O    2.5001461    1.5244295   -5.4273667  
C    4.6413757    0.7309348   -4.7392339  
O    5.1220776    1.4254277   -5.6346811  
C    5.4799926   -0.0939005   -3.8513751  
H    6.3418218   -2.0150794   -1.6479354  
H    3.1961609    1.9162266   -5.9852295  
H    4.1125269   -2.8213698   -0.3990337  
C    8.5223309   -3.2582413   -3.7310995  
C    9.6245368   -2.5215476   -4.0252072  
C    9.1840364   -1.1583074   -4.2051288  
C    7.7243884   -1.1611928   -3.9901636  
N    7.3857628   -2.4642808   -3.7069962  
C    6.9331579   -0.0615792   -4.0708410  
C    7.5610479    1.2095664   -4.3909634  
O    6.9343749    2.2566838   -4.4864976  
C    9.1055013    1.2359365   -4.6228565  
O    9.6452298    2.3002815   -4.8932708  
C    9.8518736   -0.0145232   -4.5082621  
H   10.6312343   -2.8909862   -4.1069801  
H   10.9208975    0.0123131   -4.6701007  
H    8.4447027   -4.3144051   -3.5301470  
H    6.4564511   -2.7882382   -3.5108364  
C    3.2573670    0.0002920    2.9809380  
C    2.5379467    0.0001709    1.8291961  
C    1.1435042   -0.0000331    2.2038498  
C    1.1092607    0.0000083    3.6788474  
N    2.4227561   -0.0001909    4.0882609  
C   -0.0265533    0.0002524    4.4215661  
C   -1.3003036    0.0002640    3.7214979  
O   -2.3786784    0.0004133    4.3006425  
C   -1.2877726   -0.0000311    2.1595606  
O   -2.3539958   -0.0003306    1.5592035  
C    0.0000000    0.0000000    1.4700000  
H    2.9384090    0.0000368    0.8310761  
H   -0.0296291    0.0004086    5.5027230  
H    4.3270393    0.0004765    3.1139444  
H    2.7280493    0.0013407    5.0442112  
