58

C    7.2394961   -5.5867298   -1.2830268  
C    8.5433813   -5.2073135   -1.2838054  
C    8.5708677   -3.7956388   -1.5858899  
C    7.1660393   -3.3807463   -1.7622752  
N    6.4092125   -4.5128161   -1.5660071  
C    6.7688485   -2.1173124   -2.0583827  
C    7.7933623   -1.0981431   -2.2139467  
O    7.5370940    0.0686932   -2.4806305  
C    9.2875915   -1.5151721   -2.0318124  
O   10.1589624   -0.6658387   -2.1606782  
C    9.5916517   -2.9080098   -1.7133757  
H    9.3893929   -5.8437596   -1.0945584  
H   10.6286992   -3.1885523   -1.5886698  
H    6.8153022   -6.5605661   -1.0997455  
H    5.4078272   -4.5523273   -1.6181022  
C    4.2926942   -2.1403414   -1.5040813  
C    5.3604709   -1.7320208   -2.2284477  
C    4.8134481   -0.8208702   -3.2219621  
C    3.3612071   -0.7952319   -2.9446112  
N    3.0500070   -1.5667026   -1.9386405  
C    2.4521483    0.0014840   -3.7217481  
C    2.9703730    0.7393569   -4.7298756  
O    2.2390463    1.5283419   -5.5352977  
C    4.4316781    0.7349405   -5.0343914  
O    4.8335658    1.4307755   -5.9668722  
C    5.3436396   -0.0906365   -4.2228046  
H    2.8845126    1.9211527   -6.1502982  
H    6.3952201   -0.0661688   -4.4754097  
H    4.2782626   -2.8230632   -0.6694219  
C    0.0000000    0.0000000    0.0000000  
C    1.0662923   -0.0000101   -0.8334270  
C    0.4961873    0.0000065   -2.1718887  
C   -0.9663854   -0.0000848   -1.9540250  
N   -1.2632773   -0.0000083   -0.6828660  
C   -1.8985359   -0.0000514   -3.0477261  
C   -1.3925770    0.0004566   -4.3020547  
O   -2.1456378    0.0005414   -5.4151314  
C    0.0786240    0.0009326   -4.5545000  
O    0.4683767    0.0012591   -5.7221100  
C    1.0143171    0.0008444   -3.4159031  
H    2.1107200    0.0000633   -0.5721865  
H   -2.9622181   -0.0003268   -2.8593381  
H   -1.5042265    0.0009697   -6.1484419  
C    1.0672568    0.0000697    2.3021913  
C    0.0000000    0.0000000    1.4700000  
C   -1.1601224    0.0000736    2.3478473  
C   -0.5938729    0.0000769    3.7138435  
N    0.7113367    0.0001554    3.6934124  
C   -1.4286986    0.0001879    4.8835240  
C   -2.7683114    0.0006799    4.6970523  
O   -3.6653903    0.0008304    5.6976972  
C   -3.3702025    0.0010610    3.3310774  
O   -4.5974910    0.0013779    3.2362962  
C   -2.4926826    0.0008943    2.1470656  
H   -0.9878360   -0.0000190    5.8697035  
H   -4.5324246    0.0012261    5.2533954  
H   -2.9677772    0.0012974    1.1752040  
H    2.1134392    0.0000545    2.0405121  
