62

C    3.3041269    0.0001181   -1.5420435  
C    2.5845374   -0.0004780   -0.3695858  
C    1.2040005   -0.0000006   -0.7283589  
C    1.1422371    0.0006039   -2.1454373  
N    2.4348634    0.0026113   -2.6077468  
C   -0.0655187    0.0008799   -2.8497917  
C   -1.2321773    0.0002325   -2.1101393  
O   -2.4392817    0.0001147   -2.7472515  
C   -1.1911209   -0.0000006   -0.6955265  
O   -2.4371526   -0.0002320   -0.1032855  
C    0.0000000    0.0000000    0.0000000  
H    3.0031535   -0.0000658    0.6222581  
H   -0.1193554    0.0014847   -3.9297468  
H   -3.1132989   -0.0000648   -2.0551776  
H   -2.3200276   -0.0004072    0.8516410  
H    4.3686618    0.0004076   -1.7024298  
C    3.8860202   -0.7395022   -4.5524255  
C    3.9939094   -0.5373176   -5.8909157  
C    2.9441496    0.3812284   -6.2638940  
C    2.2105941    0.6999149   -5.0240854  
N    2.8310656   -0.0116215   -4.0232754  
C    1.1445011    1.5368001   -4.9549938  
C    0.6890259    2.1654510   -6.1837637  
O   -0.2623541    2.9344952   -6.2255529  
C    1.4508803    1.8421335   -7.5084708  
O    1.0763526    2.3652242   -8.5493196  
C    2.5861423    0.9243305   -7.4567932  
H    4.7252832   -0.9811462   -6.5426234  
H    0.6206113    1.7571758   -4.0352746  
H    4.4883012   -1.3591726   -3.9080993  
C    3.7745569   -0.6064452   -9.0849467  
C    3.2959769    0.6273878   -8.7093348  
C    3.6231014    1.5376404   -9.7576808  
C    4.3064210    0.7957162  -10.7549518  
N    4.3829604   -0.5020596  -10.3138884  
C    4.7787099    1.3738513  -11.9371076  
C    4.5568876    2.7255170  -12.1159159  
O    4.9966908    3.3406183  -13.2522428  
C    3.8774014    3.4827977  -11.1322277  
O    3.7351913    4.8160412  -11.4571628  
C    3.4114396    2.9131680   -9.9656406  
H    4.8050625   -1.2618575  -10.8164005  
H    5.3003556    0.8139039  -12.7010090  
H    4.7424409    4.2694784  -13.1758184  
H    3.2664149    5.2553077  -10.7409943  
H    2.8945861    3.5186587   -9.2303015  
H    3.7313146   -1.5523871   -8.5728105  
C    2.5128556    2.1077716    2.9199648  
C    1.9592212    1.6432552    4.0696553  
C    0.8915788    0.7479214    3.6910360  
C    0.8684491    0.7287414    2.2159470  
N    1.8754542    1.5738793    1.8102719  
C    0.0000000    0.0000000    1.4700000  
C   -0.9772830   -0.8200135    2.1664417  
O   -1.8021297   -1.5120829    1.5842315  
C   -0.9711318   -0.8147624    3.7284083  
O   -1.7894187   -1.5009653    4.3257297  
C    0.0140216    0.0115358    4.4216297  
H    2.2638494    1.8988021    5.0689105  
H    0.0117648    0.0094386    5.5031631  
H    3.3327358    2.7953732    2.7900019  
H    2.1123206    1.7707734    0.8551938  
