60

C    3.3003541    0.0005279   -1.4738995  
C    2.5232808    0.0003500   -2.6090755  
C    1.1623195   -0.0001318   -2.1820103  
C    1.1711881    0.0000583   -0.7636142  
N    2.4852299   -0.0014917   -0.3662361  
C    0.0000000    0.0000000    0.0000000  
C   -1.2020385    0.0000519   -0.6806475  
O   -2.3759250    0.0003492    0.0157749  
C   -1.2314661   -0.0005113   -2.0955502  
O   -2.5054394   -0.0008037   -2.6250176  
C   -0.0764521   -0.0007271   -2.8495194  
H    2.8919946   -0.0005617   -3.6205306  
H    2.8036265    0.0088182    0.5858654  
H   -3.0835641    0.0000346   -0.6418810  
H   -2.4360053   -0.0011528   -3.5845915  
H    4.3715547    0.0004896   -1.3667139  
C    2.2883726   -2.1096666   -5.8898014  
C    1.6780794   -1.6459102   -7.0107596  
C    0.6304135   -0.7505693   -6.5799515  
C    0.6807518   -0.7305569   -5.1055513  
N    1.7068938   -1.5752687   -4.7500465  
C   -0.1496422   -0.0015612   -4.3176960  
C   -1.1605707    0.8178672   -4.9650726  
O   -1.9555605    1.5101065   -4.3429007  
C   -1.2321950    0.8117311   -6.5254046  
O   -2.0793598    1.4974361   -7.0816253  
C   -0.2825947   -0.0147688   -7.2663563  
H    1.9326347   -1.9019647   -8.0238006  
H    3.1138595   -2.7970349   -5.8004380  
H    1.9910630   -1.7715751   -3.8078371  
C    0.0953102   -3.0929930  -10.4673198  
C    0.0561235   -2.5102374   -9.2464839  
C   -0.2059010   -1.1037687   -9.5104706  
C   -0.2988063   -1.0120214  -10.9834039  
N   -0.1231585   -2.1749479  -11.5497428  
C   -0.5536001    0.2333821  -11.6535812  
C   -0.7089209    1.3368970  -10.8871179  
O   -0.9512201    2.5640283  -11.3785245  
C   -0.6211263    1.2766062   -9.3982194  
O   -0.7726487    2.3206007   -8.7639190  
C   -0.3588487   -0.0127529   -8.7343756  
H    0.1885696   -2.9771500   -8.2854815  
H   -0.6162126    0.2713087  -12.7313336  
H   -1.0120126    3.1378926  -10.5935811  
H    0.2663541   -4.1315011  -10.7023051  
C    2.5128556    2.1077716    2.9199648  
C    1.9592212    1.6432552    4.0696553  
C    0.8915788    0.7479214    3.6910360  
C    0.8684491    0.7287414    2.2159470  
N    1.8754542    1.5738793    1.8102719  
C    0.0000000    0.0000000    1.4700000  
C   -0.9772830   -0.8200135    2.1664417  
O   -1.8021297   -1.5120829    1.5842315  
C   -0.9711318   -0.8147624    3.7284083  
O   -1.7894187   -1.5009653    4.3257297  
C    0.0140216    0.0115358    4.4216297  
H    2.2638494    1.8988021    5.0689105  
H    0.0117648    0.0094386    5.5031631  
H    3.3327358    2.7953732    2.7900019  
H    2.1123206    1.7707734    0.8551938  
