60

C    4.5679461   -0.0016852   -2.0086700  
C    5.6245802   -0.0018693   -1.1556757  
C    6.8197125   -0.0025282   -1.9659182  
C    6.3695110   -0.0026849   -3.3709480  
N    4.9943550   -0.0025530   -3.3281072  
C    7.1998313   -0.0028670   -4.4443874  
C    8.6325204   -0.0031378   -4.1995657  
O    9.4620779   -0.0033772   -5.0996406  
C    9.1316824   -0.0032301   -2.7194838  
O   10.3356443   -0.0037643   -2.5009911  
C    8.1403752   -0.0027352   -1.6465626  
H    5.5727014   -0.0017593   -0.0814685  
H    6.8490263   -0.0028497   -5.4670534  
H    8.4942126   -0.0025972   -0.6245434  
H    4.3931137   -0.0010542   -4.1315709  
C    3.1301152   -0.0010311   -1.7028251  
C    2.5367770   -0.0002766   -0.4864665  
C    1.1089905    0.0001028   -0.7656183  
C    1.0177873   -0.0004148   -2.2415130  
N    2.1993580   -0.0011610   -2.7963820  
C   -0.2459208   -0.0002877   -2.9257119  
C   -1.3675318   -0.0000605   -2.1698523  
O   -2.6129310    0.0000866   -2.6748492  
C   -1.3083584    0.0000911   -0.6783232  
O   -2.3693259    0.0004206   -0.0541692  
C    0.0000000    0.0000000    0.0000000  
H    3.0096019   -0.0001007    0.4807529  
H   -3.1967440    0.0002093   -1.8949035  
C   -0.2963281   -0.0005339   -4.3948471  
C    0.7407580   -0.0008424   -5.2643483  
C    0.1250914   -0.0009651   -6.5824737  
C   -1.3291505   -0.0008024   -6.3145847  
N   -1.5822785   -0.0004687   -5.0339930  
C   -2.2982564   -0.0008136   -7.3756783  
C   -1.8356072   -0.0005908   -8.6466191  
O   -2.6263931   -0.0005806   -9.7332187  
C   -0.3739281   -0.0003762   -8.9493654  
O   -0.0244428   -0.0003032  -10.1296538  
C    0.6002582   -0.0004128   -7.8435235  
H    1.7935297   -0.0008806   -5.0390756  
H   -3.3548530   -0.0008990   -7.1509267  
H   -2.0105053   -0.0003707  -10.4880926  
H    1.6500167   -0.0001373   -8.1047447  
C    0.0000000    0.0000000    1.4700000  
C    1.0521667    0.0011902    2.3562342  
C    0.4917218    0.0011957    3.6679131  
C   -0.9187428   -0.0003148    3.5178682  
N   -1.1833171    0.0009411    2.1707914  
C   -1.7951701   -0.0010350    4.6072090  
C   -1.2375837   -0.0005224    5.8710424  
O   -2.0474215   -0.0015360    6.9697579  
C    0.1673580    0.0013566    6.0411963  
O    0.5673524    0.0020687    7.3615553  
C    1.0325770    0.0023412    4.9669890  
H    2.0953057    0.0030649    2.0900562  
H   -2.0989778   -0.0102372    1.7591824  
H   -2.8710934   -0.0020419    4.4995513  
H   -1.4634884   -0.0006497    7.7393593  
H    1.5290710    0.0033153    7.3880045  
H    2.1042148    0.0039609    5.1284455  
