60

C    1.1188642    0.0008260   -0.8003807  
C    0.0000000    0.0000000    0.0000000  
C   -1.1323859    0.0008858   -0.8673528  
C   -0.6382662    0.0019654   -2.1969279  
N    0.7324018    0.0038503   -2.1202241  
C   -1.4770916    0.0027262   -3.3154807  
C   -2.8395477    0.0020839   -3.0876858  
O   -3.7039197    0.0024290   -4.1440346  
C   -3.3517868    0.0013808   -1.7684330  
O   -4.7300496    0.0012196   -1.7073117  
C   -2.5248539    0.0009033   -0.6644820  
H   -1.1067568    0.0036942   -4.3313810  
H   -4.5940032    0.0021660   -3.7685128  
H   -4.9934601    0.0007085   -0.7819912  
H   -2.9462574    0.0005498    0.3339654  
H    2.1619895    0.0009428   -0.5342069  
C    2.8254844   -0.7379357   -3.3478732  
C    3.4453611   -0.5353376   -4.5389995  
C    2.6233064    0.3835518   -5.2904673  
C    1.4654083    0.7019891   -4.4333442  
N    1.6478435   -0.0100047   -3.2703000  
C    0.4564042    1.5390767   -4.7839138  
C    0.5146164    2.1682244   -6.0928523  
O   -0.3455921    2.9374835   -6.5009978  
C    1.7315981    1.8451780   -7.0171907  
O    1.7913080    2.3686871   -8.1215610  
C    2.7573620    0.9271184   -6.5284908  
H   -0.3838700    1.7592632   -4.1402006  
H    3.5968388    0.7088361   -7.1745215  
H    3.1297830   -1.3579433   -2.5202967  
C    4.9548429   -4.5846106   -3.9801150  
C    6.1587964   -4.5273286   -4.5955770  
C    6.2637109   -3.1624345   -5.0880778  
C    5.0005396   -2.5172516   -4.6700819  
N    4.2293273   -3.3459818   -4.0201377  
C    4.7127109   -1.1419087   -4.9711995  
C    5.6446009   -0.4427704   -5.6583104  
O    5.5083986    0.8478711   -6.0072137  
C    6.9293591   -1.0656078   -6.0937746  
O    7.7316875   -0.3695485   -6.7158614  
C    7.2011645   -2.4780601   -5.7727995  
H    6.8859319   -5.3140937   -4.7021146  
H    6.3301432    1.0639033   -6.4838879  
H    8.1434852   -2.8919396   -6.1059152  
H    4.5023260   -5.4281586   -3.4834979  
C    0.0000000    0.0000000    1.4700000  
C    1.0541688    0.0001722    2.3260392  
C    0.5103138    0.0000454    3.6635956  
C   -0.9576371   -0.0002459    3.5155732  
N   -1.2018458    0.0001392    2.1615969  
C   -1.8348311   -0.0008317    4.5510609  
C   -1.2972847   -0.0009736    5.9014604  
O   -2.0050672   -0.0014265    6.9001319  
C    0.2542623   -0.0004184    6.0817573  
O    0.7184670   -0.0002256    7.2139121  
C    1.0974552   -0.0000873    4.8889129  
H    2.0940752    0.0005483    2.0517982  
H   -2.9081052   -0.0011668    4.4207061  
H    2.1707277    0.0000911    5.0223670  
H   -2.1128194   -0.0014912    1.7406791  
