58

C   -3.2798075    0.0022237   -1.4499647  
C   -2.5571138    0.0016337   -2.5996554  
C   -1.1637431    0.0008420   -2.2210360  
C   -1.1336957    0.0009910   -0.7459469  
N   -2.4483503    0.0022400   -0.3402724  
C    0.0000000    0.0000000    0.0000000  
C    1.2757363   -0.0010742   -0.6964419  
O    2.3524591   -0.0019511   -0.1142306  
C    1.2676492   -0.0009986   -2.2584080  
O    2.3355759   -0.0015907   -2.8557291  
C   -0.0181560   -0.0001606   -2.9516301  
H   -0.0150791   -0.0003191   -4.0331630  
H   -4.3498537    0.0028649   -1.3200023  
H   -2.7563629    0.0010788    0.6148058  
C   -3.1006049    0.0020295   -3.9654951  
C   -4.3994779    0.0019598   -4.3456361  
C   -4.3646275    0.0024662   -5.8000382  
C   -2.9251399    0.0029163   -6.1383557  
N   -2.1793104    0.0025822   -5.0670355  
C   -2.4634042    0.0034435   -7.4991961  
C   -3.3972643    0.0031287   -8.4775823  
O   -3.1090923    0.0035586   -9.7902124  
C   -4.8575541    0.0023009   -8.1682061  
O   -5.6513806    0.0021775   -9.1089820  
C   -5.3059827    0.0018154   -6.7643414  
H   -5.2733147    0.0015179   -3.7167590  
H   -3.9761754    0.0031448  -10.2344201  
H   -6.3723209    0.0011035   -6.5822629  
C    0.9049703   -2.1031177   -5.6284230  
C    1.9188979   -1.6379915   -6.4028150  
C    1.3319889   -0.7427504   -7.3717927  
C   -0.1173677   -0.7242896   -7.0964473  
N   -0.3108555   -1.5697128   -6.0284062  
C   -1.0237131    0.0041622   -7.7961624  
C   -0.5394378    0.8246006   -8.8938388  
O   -1.2765969    1.5164566   -9.5839343  
C    0.9915688    0.8201127   -9.2033606  
O    1.4109494    1.5066783  -10.1253196  
C    1.8698972   -0.0059318   -8.3787142  
H    2.9592082   -1.8930761   -6.3063818  
H    2.9286742   -0.0033056   -8.5994128  
H    0.9436347   -2.7908536   -4.7993187  
H   -1.1982995   -1.7670944   -5.6035172  
C    2.5128556    2.1077716    2.9199648  
C    1.9592212    1.6432552    4.0696553  
C    0.8915788    0.7479214    3.6910360  
C    0.8684491    0.7287414    2.2159470  
N    1.8754542    1.5738793    1.8102719  
C    0.0000000    0.0000000    1.4700000  
C   -0.9772830   -0.8200135    2.1664417  
O   -1.8021297   -1.5120829    1.5842315  
C   -0.9711318   -0.8147624    3.7284083  
O   -1.7894187   -1.5009653    4.3257297  
C    0.0140216    0.0115358    4.4216297  
H    2.2638494    1.8988021    5.0689105  
H    0.0117648    0.0094386    5.5031631  
H    3.3327358    2.7953732    2.7900019  
H    2.1123206    1.7707734    0.8551938  
