58

C   -0.0190026   -0.6950951   -5.1396807  
C   -1.0641726    0.0073877   -4.6315338  
C   -1.6441949    0.7497397   -5.7257565  
C   -0.8455585    0.4197730   -6.9216213  
N    0.1238028   -0.4602538   -6.4987963  
C   -1.0755946    0.9201968   -8.1619293  
C   -2.1835763    1.8457138   -8.3302450  
O   -2.4718145    2.3508254   -9.4073162  
C   -3.0425418    2.2094674   -7.0773816  
O   -3.9777726    2.9878387   -7.2067704  
C   -2.6973296    1.6056284   -5.7928353  
H   -3.2971338    1.8625189   -4.9303005  
H    0.6590622   -1.3644276   -4.6355856  
H    0.8255271   -0.8704648   -7.0873175  
C    1.1319251    0.0015674   -0.8009267  
C    0.7969922    0.0034952   -2.1169400  
C   -0.6453333    0.0035693   -2.1842673  
C   -1.1266829    0.0015407   -0.7896026  
N    0.0000000    0.0000000    0.0000000  
C   -2.4346127    0.0013913   -0.4276301  
C   -3.4350107    0.0031336   -1.4820190  
O   -4.6384608    0.0030877   -1.2583926  
C   -2.9478954    0.0050441   -2.9661077  
O   -3.7809370    0.0062133   -3.8623780  
C   -1.5113816    0.0053052   -3.2312124  
H    1.4821243    0.0045428   -2.9459188  
H   -2.7664565    0.0000177    0.6013438  
H    2.1104317    0.0009432   -0.3488059  
C    0.6751951   -2.8847735   -9.4811239  
C    1.2808756   -2.4694000  -10.6233543  
C    1.0134758   -1.0563030  -10.7517710  
C    0.1965288   -0.6797623   -9.5823244  
N    0.0266045   -1.8331330   -8.8517413  
C   -0.2628514    0.5733688   -9.3366886  
C    0.0693283    1.6211317  -10.2876801  
O   -0.2972179    2.7814870  -10.1553143  
C    0.9331966    1.2449074  -11.5334701  
O    1.2189308    2.1185535  -12.3411571  
C    1.3699633   -0.1402453  -11.6897968  
H    1.8498676   -3.0829326  -11.2989571  
H    1.9679310   -0.3924646  -12.5549813  
H    0.6479052   -3.8707102   -9.0462975  
H   -0.4874973   -1.9001466   -7.9925232  
C    0.0000000    0.0000000    1.4700000  
C    1.0662921    0.0000102    2.3034270  
C    0.4961870   -0.0000064    3.6418889  
C   -0.9663858    0.0000850    3.4240247  
N   -1.2632773    0.0000084    2.1528658  
C   -1.8985362    0.0000517    4.5177257  
C   -1.3925775   -0.0004564    5.7720543  
O   -2.1456383   -0.0005410    6.8851312  
C    0.0786232   -0.0009323    6.0245000  
O    0.4683759   -0.0012588    7.1921102  
C    1.0143166   -0.0008442    4.8859032  
H    2.1107198   -0.0000632    2.0421868  
H   -2.9622183    0.0003270    4.3293377  
H   -1.5042274   -0.0009692    7.6184419  
H    2.0724152   -0.0013148    5.1109744  
