58

C    3.2573665   -0.0002919   -1.5109388  
C    2.5379466   -0.0001709   -0.3591967  
C    1.1435036    0.0000331   -0.7338501  
C    1.1092601   -0.0000083   -2.2088478  
N    2.4227553    0.0001910   -2.6182616  
C   -0.0265541   -0.0002524   -2.9515659  
C   -1.3003053   -0.0002640   -2.2514974  
O   -2.3786791   -0.0004133   -2.8306419  
C   -1.2877726    0.0000311   -0.6895604  
O   -2.3539953    0.0003306   -0.0892029  
C    0.0000000    0.0000000    0.0000000  
H    2.9384088   -0.0000367    0.6389228  
H   -0.0296302   -0.0004086   -4.0327231  
H    2.7280481   -0.0013407   -3.5742122  
C    6.6174610    0.0016340    1.3537063  
C    5.3857492    0.0013496    0.7819012  
C    5.5854749    0.0003217   -0.6481140  
C    7.0449750   -0.0000008   -0.8641006  
N    7.6133366    0.0012283    0.3888376  
C    7.6418657   -0.0013231   -2.0828804  
C    6.7899754   -0.0022817   -3.2605123  
O    7.2316297   -0.0034332   -4.4021083  
C    5.2415211   -0.0017089   -3.0553447  
O    4.5141872   -0.0021996   -4.0393396  
C    4.7161326   -0.0005435   -1.6923270  
H    4.4446714    0.0019900    1.3024640  
H    6.8814410    0.0023226    2.3987923  
H    8.5996524   -0.0002111    0.5738411  
C   10.0006293   -0.7060011   -1.5354593  
C    9.1001096   -0.0017905   -2.2684175  
C    9.8486451    0.7394138   -3.2559123  
C   11.2692555    0.4068907   -3.0366246  
N   11.2934639   -0.4733701   -1.9795321  
C   12.2975039    0.9056250   -3.7685223  
C   11.9841402    1.8318916   -4.8438684  
O   12.8398470    2.3356163   -5.5596402  
C   10.4864566    2.1983437   -5.0937887  
O   10.2104476    2.9773673   -5.9961197  
C    9.4665271    1.5961573   -4.2388227  
H   13.3326232    0.6486728   -3.5912849  
H    8.4318908    1.8549132   -4.4185389  
H    9.8285984   -1.3751784   -0.7081159  
H   12.1224250   -0.8851198   -1.5918038  
C    2.4951002    2.0940188    2.9809380  
C    1.9440701    1.6314916    1.8291961  
C    0.8759964    0.7350050    2.2038498  
C    0.8497377    0.7130254    3.6788474  
N    1.8560616    1.5571714    4.0882609  
C   -0.0205033   -0.0168748    4.4215661  
C   -0.9962600   -0.8356168    3.7214979  
O   -1.8224391   -1.5286685    4.3006425  
C   -0.9864710   -0.8277881    2.1595606  
O   -1.8030528   -1.5133726    1.5592035  
C    0.0000000    0.0000000    1.4700000  
H    2.2509283    1.8888011    0.8310761  
H   -0.0229599   -0.0187323    5.5027230  
H    3.3143982    2.7817323    3.1139444  
H    2.0889452    1.7545833    5.0442112  
