58

C    0.8353407   -0.7266722   -5.2248496  
C    0.5761897   -0.5101812   -6.5401622  
C   -0.5291500    0.4165998   -6.6044784  
C   -0.8953242    0.7245273   -5.2088111  
N   -0.0307359   -0.0004648   -4.4215606  
C   -1.8966041    1.5648462   -4.8441094  
C   -2.6650489    2.2088125   -5.8964093  
O   -3.5865974    2.9820599   -5.6702711  
C   -2.2947869    1.8970770   -7.3815126  
O   -2.9349117    2.4330964   -8.2760428  
C   -1.1946309    0.9742393   -7.6496151  
H    1.0994937   -0.9497145   -7.3705699  
H   -2.1488378    1.7771609   -3.8144438  
H   -0.9444559    0.7638543   -8.6805735  
H    1.5860162   -1.3558034   -4.7747714  
C    3.2573667   -0.0002920   -1.5109386  
C    2.5379466   -0.0001709   -0.3591965  
C    1.1435040    0.0000332   -0.7338503  
C    1.1092604   -0.0000083   -2.2088478  
N    2.4227557    0.0001908   -2.6182616  
C   -0.0265538   -0.0002523   -2.9515663  
C   -1.3003040   -0.0002641   -2.2514979  
O   -2.3786787   -0.0004133   -2.8306426  
C   -1.2877728    0.0000312   -0.6895607  
O   -2.3539959    0.0003306   -0.0892033  
C    0.0000000    0.0000000    0.0000000  
H    2.9384091   -0.0000368    0.6389234  
H    2.7280486   -0.0013408   -3.5742120  
C    6.5597225   -0.0008213    1.3835017  
C    7.6114516   -0.0009116    0.5244667  
C    7.0637934   -0.0009872   -0.8115370  
C    5.5962696   -0.0009039   -0.6593386  
N    5.3559137   -0.0012039    0.6953270  
C    4.7161330   -0.0005435   -1.6923266  
C    5.2498352   -0.0004420   -3.0442500  
O    4.5392138   -0.0001858   -4.0409038  
C    6.8008627   -0.0007796   -3.2289604  
O    7.2618446   -0.0010042   -4.3624312  
C    7.6474462   -0.0008761   -2.0385198  
H    8.6521340   -0.0011062    0.7957479  
H    8.7203348   -0.0009047   -2.1750270  
H    6.5627892   -0.0007243    2.4614073  
H    4.4461412    0.0003270    1.1188347  
C    2.4951002    2.0940188    2.9809380  
C    1.9440701    1.6314916    1.8291961  
C    0.8759964    0.7350050    2.2038498  
C    0.8497377    0.7130254    3.6788474  
N    1.8560616    1.5571714    4.0882609  
C   -0.0205033   -0.0168748    4.4215661  
C   -0.9962600   -0.8356168    3.7214979  
O   -1.8224391   -1.5286685    4.3006425  
C   -0.9864710   -0.8277881    2.1595606  
O   -1.8030528   -1.5133726    1.5592035  
C    0.0000000    0.0000000    1.4700000  
H    2.2509283    1.8888011    0.8310761  
H   -0.0229599   -0.0187323    5.5027230  
H    3.3143982    2.7817323    3.1139444  
H    2.0889452    1.7545833    5.0442112  
