58

C   -0.1348881   -0.9051507   -9.6218531  
C   -0.2704706   -0.5459952  -10.9244275  
C   -0.5229155    0.8755111  -10.9450923  
C   -0.5232653    1.3182518   -9.5376926  
N   -0.2828412    0.1912933   -8.7859942  
C   -0.7267528    2.5979199   -9.1342750  
C   -0.9612802    3.6064313  -10.1542934  
O   -1.1550576    4.7863113   -9.8923091  
C   -0.9654750    3.1599691  -11.6511091  
O   -1.1621524    4.0001213  -12.5187041  
C   -0.7338563    1.7515864  -11.9620152  
H   -0.2016880   -1.2020314  -11.7738382  
H   -0.7228780    2.9016598   -8.0966636  
H   -0.7381387    1.4506733  -13.0008394  
H    0.0604535   -1.8786115   -9.2022041  
C    2.4320879   -2.0124030   -6.1859210  
C    2.0200836   -1.6305794   -4.9546444  
C    0.9177868   -0.7123208   -5.1959806  
C    0.7970283   -0.6538282   -6.6685906  
N    1.6820122   -1.4139325   -7.2542822  
C   -0.1937183    0.1588217   -7.3190578  
C   -1.0262442    0.8799458   -6.5340644  
O   -1.9968172    1.6808090   -7.0059183  
C   -0.9297035    0.8417619   -5.0449762  
O   -1.7202577    1.5239997   -4.3932124  
C    0.0950446    0.0004351   -4.4015596  
H    2.4153101   -1.9345894   -4.0004696  
H   -2.4169009    2.0561001   -6.2110352  
H    3.2315429   -2.6908682   -6.4379726  
C    3.3321173    0.0004713   -1.3379338  
C    2.6974181    0.0000116   -2.5332314  
C    1.2800438   -0.0002119   -2.2052841  
C    1.2395034    0.0000643   -0.7271299  
N    2.4394062    0.0005460   -0.2131038  
C    0.0000000    0.0000000    0.0000000  
C   -1.1468702    0.0000634   -0.7169543  
O   -2.3742203    0.0000074   -0.1695487  
C   -1.1388770    0.0001607   -2.2096355  
O   -2.2206234    0.0000905   -2.7970411  
C    0.1454522    0.0001815   -2.9324241  
H    3.1367984   -0.0000653   -3.5160950  
H   -2.9844346    0.0001026   -0.9290167  
H    4.3940038    0.0007618   -1.1498640  
C    2.4951002    2.0940188    2.9809380  
C    1.9440701    1.6314916    1.8291961  
C    0.8759964    0.7350050    2.2038498  
C    0.8497377    0.7130254    3.6788474  
N    1.8560616    1.5571714    4.0882609  
C   -0.0205033   -0.0168748    4.4215661  
C   -0.9962600   -0.8356168    3.7214979  
O   -1.8224391   -1.5286685    4.3006425  
C   -0.9864710   -0.8277881    2.1595606  
O   -1.8030528   -1.5133726    1.5592035  
C    0.0000000    0.0000000    1.4700000  
H    2.2509283    1.8888011    0.8310761  
H   -0.0229599   -0.0187323    5.5027230  
H    3.3143982    2.7817323    3.1139444  
H    2.0889452    1.7545833    5.0442112  
