62

C   -1.1240191    0.0287078   -0.7919006  
C   -0.7477717    0.0022815   -2.1148546  
C    0.6775293   -0.0467938   -2.1414702  
C    1.1191717   -0.0484043   -0.7935548  
N    0.0000000    0.0000000    0.0000000  
C    2.4713975   -0.0914782   -0.4408242  
C    3.3945951   -0.1340024   -1.4675060  
O    4.7280458   -0.1774467   -1.1793469  
C    2.9735574   -0.1327643   -2.8186324  
O    4.0129089   -0.1777213   -3.7247622  
C    1.6397302   -0.0900106   -3.1673482  
H    2.8144897   -0.0928045    0.5845967  
H    5.1900110   -0.2018204   -2.0274378  
H    3.6426479   -0.1736939   -4.6127343  
H    1.3474476   -0.0900125   -4.2109234  
H   -2.1051805    0.0672077   -0.3505413  
C   -1.6630760    0.0233583   -3.2649302  
C   -3.0155714    0.0701687   -3.2529364  
C   -3.4033023    0.0707097   -4.6551364  
C   -2.1243006    0.0198749   -5.3955107  
N   -1.1007183   -0.0081311   -4.5858911  
C   -2.0766066    0.0050568   -6.8316834  
C   -3.2531650    0.0390702   -7.4979333  
O   -3.3575382    0.0303320   -8.8377360  
C   -4.5604568    0.0902987   -6.7792369  
O   -5.5921711    0.1194522   -7.4500110  
C   -4.5829642    0.1046435   -5.3057340  
H   -3.6693772    0.1004856   -2.3981289  
H   -4.3155664    0.0613821   -9.0120070  
H   -5.5502749    0.1419830   -4.8228825  
C    1.6422989   -2.2367012   -5.9931471  
C    2.3725692   -1.7718638   -7.0623047  
C    1.5301037   -0.8747269   -7.7834127  
C    0.2873598   -0.8315012   -7.1010307  
N    0.3888920   -1.6713636   -6.0198553  
C   -0.7854287   -0.0455535   -7.5325389  
C   -0.6002003    0.7107652   -8.6735250  
O   -1.6147786    1.4964203   -9.1387032  
C    0.6322938    0.6807120   -9.3684151  
O    0.6599237    1.4886352  -10.4863785  
C    1.6909666   -0.0946206   -8.9434479  
H    3.3872527   -2.0465497   -7.2945935  
H   -0.3346599   -1.8372761   -5.3438916  
H   -1.2801485    1.9325553   -9.9331046  
H    1.5264876    1.4102937  -10.8969070  
H    2.6229585   -0.0973530   -9.4964961  
H    1.9158626   -2.9278838   -5.2144376  
C    2.4951002    2.0940188    2.9809380  
C    1.9440701    1.6314916    1.8291961  
C    0.8759964    0.7350050    2.2038498  
C    0.8497377    0.7130254    3.6788474  
N    1.8560616    1.5571714    4.0882609  
C   -0.0205033   -0.0168748    4.4215661  
C   -0.9962600   -0.8356168    3.7214979  
O   -1.8224391   -1.5286685    4.3006425  
C   -0.9864710   -0.8277881    2.1595606  
O   -1.8030528   -1.5133726    1.5592035  
C    0.0000000    0.0000000    1.4700000  
H    2.2509283    1.8888011    0.8310761  
H   -0.0229599   -0.0187323    5.5027230  
H    3.3143982    2.7817323    3.1139444  
H    2.0889452    1.7545833    5.0442112  
