58

C    2.5562220   -0.0001552   -3.6003002  
C    3.5357961    0.0004086   -2.6598166  
C    4.7960234   -0.0001377   -3.3645601  
C    4.4679970   -0.0010433   -4.8030276  
N    3.0942345   -0.0014084   -4.8782987  
C    5.3873321   -0.0013582   -5.8012895  
C    6.7937423   -0.0009918   -5.4344811  
O    7.6974453   -0.0012924   -6.2600835  
C    7.1641097   -0.0002857   -3.9170388  
O    8.3448918   -0.0002790   -3.5960811  
C    6.0844253    0.0002815   -2.9331011  
H    3.3919682    0.0009429   -1.5940183  
H    5.1255390   -0.0018946   -6.8502769  
H    6.3492939    0.0009740   -1.8844985  
H    2.5641260   -0.0004665   -5.7303735  
C    0.0000000    0.0000000    0.0000000  
C    1.0541690   -0.0001722   -0.8560392  
C    0.5103143   -0.0000454   -2.1935956  
C   -0.9576365    0.0002459   -2.0455735  
N   -1.2018458   -0.0001391   -0.6915971  
C   -1.8348304    0.0008316   -3.0810614  
C   -1.2972839    0.0009736   -4.4314607  
O   -2.0050661    0.0014265   -5.4301325  
C    0.2542633    0.0004184   -4.6117571  
O    0.7184680    0.0002257   -5.7439119  
C    1.0974559    0.0000874   -3.4189129  
H    2.0940753   -0.0005483   -0.5817981  
H   -2.1128193    0.0014911   -0.2706794  
C   -3.2941067    0.0012872   -2.9038248  
C   -3.9928919    0.0012410   -1.7448259  
C   -5.3903263    0.0018074   -2.1493949  
C   -5.3503925    0.0022629   -3.6275655  
N   -4.1243031    0.0018800   -4.0755538  
C   -6.5485032    0.0028436   -4.4210492  
C   -7.7326787    0.0025750   -3.7675484  
O   -8.9284322    0.0030575   -4.3809128  
C   -7.8059017    0.0017431   -2.2766432  
O   -8.9180020    0.0016635   -1.7489562  
C   -6.5627957    0.0012023   -1.4850555  
H   -3.6076318    0.0007784   -0.7395148  
H   -6.4897368    0.0033745   -5.4996857  
H   -9.5790592    0.0026673   -3.6557666  
H   -6.6586510    0.0004892   -0.4075394  
C    0.0000000    0.0000000    1.4700000  
C    1.0541688    0.0001722    2.3260392  
C    0.5103138    0.0000454    3.6635956  
C   -0.9576371   -0.0002459    3.5155732  
N   -1.2018458    0.0001392    2.1615969  
C   -1.8348311   -0.0008317    4.5510609  
C   -1.2972847   -0.0009736    5.9014604  
O   -2.0050672   -0.0014265    6.9001319  
C    0.2542623   -0.0004184    6.0817573  
O    0.7184670   -0.0002256    7.2139121  
C    1.0974552   -0.0000873    4.8889129  
H    2.0940752    0.0005483    2.0517982  
H   -2.9081052   -0.0011668    4.4207061  
H    2.1707277    0.0000911    5.0223670  
H   -2.1128194   -0.0014912    1.7406791  
