62

C   -1.1176505   -0.0521134   -0.8003809  
C    0.0000000    0.0000000    0.0000000  
C    1.1312363    0.0510231   -0.8673527  
C    0.6376847    0.0272943   -2.1969285  
N   -0.7314558   -0.0374195   -2.1202244  
C    1.4756631    0.0649856   -3.3154813  
C    2.8366576    0.1280815   -3.0876858  
O    3.7001373    0.1673593   -4.1440355  
C    3.3483267    0.1522647   -1.7684333  
O    4.7251323    0.2156046   -1.7073133  
C    2.5222414    0.1148357   -0.6644823  
H    1.1057622    0.0470425   -4.3313814  
H    4.5892729    0.2084228   -3.7685140  
H    4.9882430    0.2281900   -0.7819921  
H    2.9431858    0.1345058    0.3339647  
H   -2.1596737   -0.1000465   -0.5342067  
C   -1.6465705   -0.0655425   -3.2703002  
C   -2.9984900   -0.1267747   -3.2583476  
C   -3.3862979   -0.1281788   -4.6605260  
C   -2.1079748   -0.0617870   -5.4008409  
N   -1.0846813   -0.0249322   -4.5912115  
C   -2.0605473   -0.0431450   -6.8369778  
C   -3.2366809   -0.0891435   -7.5032585  
O   -3.3412354   -0.0785314   -8.8430335  
C   -4.5432553   -0.1569476   -6.7846300  
O   -5.5746212   -0.1961690   -7.4554254  
C   -4.5655046   -0.1748264   -5.3111612  
H   -3.6518638   -0.1662191   -2.4035830  
H   -1.1122339    0.0059210   -7.3519572  
H   -4.2988527   -0.1202365   -9.0173386  
C   -6.2323750    0.4444061   -3.5171350  
C   -7.5281608    0.1283875   -3.1801805  
C   -7.9976383   -0.7997802   -4.1562419  
C   -6.9353374   -1.0144312   -5.0713197  
N   -5.8792426   -0.2423979   -4.6550921  
C   -7.0440273   -1.8749166   -6.1679237  
C   -8.2469166   -2.5308915   -6.3437956  
O   -8.4071265   -3.3829286   -7.3980160  
C   -9.3186361   -2.3295255   -5.4417501  
O  -10.4505968   -3.0542771   -5.7527864  
C   -9.2122089   -1.4805764   -4.3598605  
H   -8.0689041    0.5196532   -2.3354914  
H   -6.2381554   -2.0427265   -6.8690746  
H   -9.3068887   -3.7289604   -7.3351246  
H  -11.1256842   -2.8611020   -5.0951059  
H  -10.0503245   -1.3463168   -3.6860543  
H   -5.5325896    1.1064741   -3.0365871  
C    2.5128556    2.1077716    2.9199648  
C    1.9592212    1.6432552    4.0696553  
C    0.8915788    0.7479214    3.6910360  
C    0.8684491    0.7287414    2.2159470  
N    1.8754542    1.5738793    1.8102719  
C    0.0000000    0.0000000    1.4700000  
C   -0.9772830   -0.8200135    2.1664417  
O   -1.8021297   -1.5120829    1.5842315  
C   -0.9711318   -0.8147624    3.7284083  
O   -1.7894187   -1.5009653    4.3257297  
C    0.0140216    0.0115358    4.4216297  
H    2.2638494    1.8988021    5.0689105  
H    0.0117648    0.0094386    5.5031631  
H    3.3327358    2.7953732    2.7900019  
H    2.1123206    1.7707734    0.8551938  
