58

C    2.5290138   -2.1183613   -8.3043365  
C    3.5332127   -2.9610718   -8.6585965  
C    3.5667453   -2.9928276  -10.1017537  
C    2.4920799   -2.0930661  -10.5625301  
N    1.9008966   -1.5951270   -9.4243525  
C    2.1986059   -1.8498095  -11.8649910  
C    2.9941401   -2.5189942  -12.8807931  
O    2.8079160   -2.3655184  -14.0808199  
C    4.1372379   -3.4764366  -12.4155657  
O    4.8134880   -4.0456453  -13.2617027  
C    4.3582590   -3.6582991  -10.9831114  
H    4.1768755   -3.4991898   -7.9857360  
H    1.4060954   -1.1860635  -12.1816575  
H    5.1518297   -4.3227366  -10.6692766  
H    1.1329029   -0.9493595   -9.4095899  
C    2.5632305   -2.1406394   -5.7671228  
C    2.0732867   -1.7328928   -6.9609732  
C    0.9882152   -0.8221525   -6.6298065  
C    0.9615396   -0.7960982   -5.1515662  
N    1.8825657   -1.5669912   -4.6402698  
C    0.0139741    0.0003876   -4.4216236  
C   -0.8666503    0.7376428   -5.1359692  
O   -1.8054110    1.5263495   -4.5857778  
C   -0.8647105    0.7327950   -6.6286630  
O   -1.6951604    1.4280734   -7.2136082  
C    0.1171807   -0.0925345   -7.3543662  
H   -2.2750000    1.9187219   -5.3438559  
H    0.0858063   -0.0683947   -8.4354135  
H    3.3774710   -2.8229276   -5.5814671  
C    3.2798085    0.0005853   -1.4499648  
C    2.5571144    0.0005562   -2.5996554  
C    1.1637436    0.0001546   -2.2210360  
C    1.1336965   -0.0000201   -0.7459470  
N    2.4483513   -0.0001430   -0.3402717  
C    0.0000000    0.0000000    0.0000000  
C   -1.2757367   -0.0000188   -0.6964414  
O   -2.3524597   -0.0000640   -0.1142313  
C   -1.2676494   -0.0000875   -2.2584081  
O   -2.3355762   -0.0004102   -2.8557294  
C    0.0181562    0.0001757   -2.9516296  
H    2.9547357    0.0006072   -3.5989105  
H    4.3498550    0.0008609   -1.3200021  
H    2.7563627    0.0012824    0.6148063  
C    0.0000000    0.0000000    1.4700000  
C    1.0662921    0.0000102    2.3034270  
C    0.4961870   -0.0000064    3.6418889  
C   -0.9663858    0.0000850    3.4240247  
N   -1.2632773    0.0000084    2.1528658  
C   -1.8985362    0.0000517    4.5177257  
C   -1.3925775   -0.0004564    5.7720543  
O   -2.1456383   -0.0005410    6.8851312  
C    0.0786232   -0.0009323    6.0245000  
O    0.4683759   -0.0012588    7.1921102  
C    1.0143166   -0.0008442    4.8859032  
H    2.1107198   -0.0000632    2.0421868  
H   -2.9622183    0.0003270    4.3293377  
H   -1.5042274   -0.0009692    7.6184419  
H    2.0724152   -0.0013148    5.1109744  
