58

C    0.0000000    0.0000000    0.0000000  
C   -1.0541690    0.0002347   -0.8560388  
C   -0.5103145    0.0000756   -2.1935955  
C    0.9576362   -0.0003028   -2.0455735  
N    1.2018458    0.0000678   -0.6915972  
C    1.8348305   -0.0009406   -3.0810612  
C    1.2972838   -0.0010507   -4.4314608  
O    2.0050656   -0.0015456   -5.4301322  
C   -0.2542637   -0.0004035   -4.6117572  
O   -0.7184685   -0.0001832   -5.7439117  
C   -1.0974563   -0.0000224   -3.4189127  
H   -2.0940752    0.0006725   -0.5817980  
H    2.9081044   -0.0013394   -2.9507069  
H    2.1128191   -0.0016166   -0.2706796  
C   -2.5562224    0.0003067   -3.6003000  
C   -3.5148531   -0.0003759   -2.6449958  
C   -4.7727389    0.0003772   -3.3759001  
C   -4.3760691    0.0016260   -4.8004126  
N   -3.0779900    0.0015097   -4.9381832  
C   -5.3463911    0.0026062   -5.8603937  
C   -6.6535655    0.0019615   -5.5130773  
O   -7.6652143    0.0027471   -6.3977283  
C   -7.0856176    0.0003288   -4.0842703  
O   -8.2923972   -0.0000578   -3.8415710  
C   -6.0711804   -0.0006095   -3.0152334  
H   -3.3844840   -0.0013691   -1.5763149  
H   -5.0281918    0.0037164   -6.8927006  
H   -8.4720664    0.0019541   -5.8517049  
C   -4.6526754    2.1036005    0.5685471  
C   -5.5518063    1.6377260    1.4733119  
C   -6.4364997    0.7428752    0.7652187  
C   -5.9757586    0.7254588   -0.6362823  
N   -4.8917578    1.5710526   -0.6892179  
C   -6.5521061   -0.0023663   -1.6261303  
C   -7.7031572   -0.8231842   -1.2886772  
O   -8.2918833   -1.5145342   -2.1094925  
C   -8.2083600   -0.8197999    0.1893499  
O   -9.1767858   -1.5066933    0.4853070  
C   -7.5045168    0.0056416    1.1676661  
H   -5.5909523    1.8920699    2.5175293  
H   -7.8604832    0.0022519    2.1889401  
H   -3.8356461    2.7913340    0.7147516  
H   -4.3555341    1.7690814   -1.5140185  
C    1.0965515   -0.0001358    2.2710304  
C    0.0000000    0.0000000    1.4700000  
C   -1.1546562   -0.0001469    2.3369512  
C   -0.6372014   -0.0003519    3.7186280  
N    0.7342871   -0.0007337    3.6095011  
C   -1.4147739   -0.0001353    4.8308716  
C   -2.8576048    0.0001048    4.6554461  
O   -3.6427778    0.0002493    5.5944904  
C   -3.4275839    0.0000726    3.2011665  
O   -4.6406829   -0.0000333    3.0410059  
C   -2.4891866    0.0001091    2.0816745  
H   -1.0150448   -0.0001615    5.8354244  
H   -2.8919121    0.0002919    1.0779135  
H    2.1388271   -0.0000662    1.9961646  
H    1.3735872    0.0006099    4.3830260  
