60

C   -3.3041240    0.0049520   -1.5420425  
C   -2.5845334    0.0044435   -0.3695848  
C   -1.2039991    0.0018481   -0.7283584  
C   -1.1422380    0.0011489   -2.1454370  
N   -2.4348657    0.0011250   -2.6077460  
C    0.0655162   -0.0009804   -2.8497916  
C    1.2321739   -0.0021232   -2.1101402  
O    2.4392781   -0.0038575   -2.7472522  
C    1.1911200   -0.0018268   -0.6955266  
O    2.4371498   -0.0035075   -0.1032865  
C    0.0000000    0.0000000    0.0000000  
H   -3.0031496    0.0046740    0.6222586  
H   -2.7054491    0.0112610   -3.5745257  
H    0.1193520   -0.0016676   -3.9297469  
H    3.1132955   -0.0047121   -2.0551789  
H    2.3200266   -0.0031527    0.8516406  
C   -4.7577172    0.0067872   -1.7610451  
C   -5.7612518    0.0098196   -0.8461764  
C   -7.0028569    0.0104384   -1.5832321  
C   -6.6377930    0.0074674   -3.0127462  
N   -5.2625454    0.0057472   -3.0525123  
C   -7.5310404    0.0066836   -4.0344173  
C   -8.9464517    0.0091411   -3.7040547  
O   -9.8285333    0.0087321   -4.5527205  
C   -9.3558844    0.0125582   -2.1966867  
O  -10.5445594    0.0149533   -1.9063335  
C   -8.3019706    0.0128332   -1.1851936  
H   -5.6449956    0.0116207    0.2229797  
H   -8.5938305    0.0150022   -0.1437824  
H   -4.7106113    0.0020432   -3.8906069  
C   -4.3330419   -2.0955760   -6.2366301  
C   -5.1711027   -1.6301693   -5.2747955  
C   -6.0991375   -0.7337000   -5.9228144  
C   -5.7304196   -0.7148687   -7.3512691  
N   -4.6523870   -1.5606357   -7.4754184  
C   -6.3697088    0.0140779   -8.3008218  
C   -7.4959561    0.8350427   -7.8883666  
O   -8.1365257    1.5274596   -8.6684505  
C   -7.9037507    0.8305611   -6.3805573  
O   -8.8501437    1.5180367   -6.0214225  
C   -7.1383809    0.0035267   -5.4510008  
H   -5.1423383   -1.8855615   -4.2304960  
H   -6.0832803    0.0136154   -9.3433514  
H   -3.5088704   -2.7841792   -6.1446669  
H   -4.1728700   -1.7602723   -8.3340551  
C    0.8400945    0.7047457    2.2710304  
C    0.0000000    0.0000000    1.4700000  
C   -0.8844236   -0.7423113    2.3369512  
C   -0.4878984   -0.4098547    3.7186280  
N    0.5629682    0.4714286    3.6095011  
C   -1.0836927   -0.9095027    4.8308716  
C   -2.1891196   -1.8367527    4.6554461  
O   -2.7906899   -2.3413415    5.5944904  
C   -2.6257283   -2.2031529    3.2011665  
O   -3.5549479   -2.9829990    3.0410059  
C   -1.9068976   -1.5999348    2.0816745  
H   -0.7774656   -0.6525820    5.8354244  
H   -2.2155208   -1.8586617    1.0779135  
H    1.6384792    1.3747609    1.9961646  
H    1.0518368    0.8833920    4.3830260  
