58

C   -4.2677352    0.7399243   -7.6954471  
C   -5.5127817    0.5246133   -8.1930163  
C   -5.3724531   -0.4002836   -9.2928844  
C   -3.9332791   -0.7083913   -9.3960230  
N   -3.3187311    0.0147086   -8.3998563  
C   -3.3904482   -1.5472436  -10.3143733  
C   -4.2832066   -2.1893279  -11.2647652  
O   -3.8912464   -2.9611632  -12.1301778  
C   -5.8110364   -1.8773682  -11.1740897  
O   -6.5723583   -2.4118096  -11.9690881  
C   -6.2771313   -0.9562172  -10.1406060  
H   -6.4253199    0.9637433   -7.8310038  
H   -2.3319841   -1.7597213  -10.3728311  
H   -7.3364871   -0.7456651  -10.0844131  
H   -3.9636045    1.3675451   -6.8735667  
C   -1.0641738    0.0073911   -4.6315339  
C    0.2004553    0.0078178   -5.1262942  
C    0.0892946    0.0101555   -6.5659030  
C   -1.3541083    0.0110917   -6.8714806  
N   -1.9986532    0.0089311   -5.6559784  
C   -1.8747039    0.0136545   -8.1247479  
C   -0.9518136    0.0153963   -9.2476043  
O   -1.3222287    0.0176755  -10.4142606  
C    0.5810414    0.0141933   -8.9473387  
O    1.3676713    0.0153340   -9.8846081  
C    1.0213765    0.0116821   -7.5545177  
H    1.1076402    0.0064481   -4.5486895  
H    2.0843764    0.0110680   -7.3551324  
H   -2.9945001    0.0104955   -5.5321487  
C    1.1319245    0.0015656   -0.8009271  
C    0.7969914    0.0034943   -2.1169404  
C   -0.6453340    0.0035712   -2.1842672  
C   -1.1266833    0.0015434   -0.7896027  
N    0.0000000    0.0000000    0.0000000  
C   -2.4346131    0.0013965   -0.4276296  
C   -3.4350110    0.0031409   -1.4820182  
O   -4.6384610    0.0030975   -1.2583916  
C   -2.9478961    0.0050507   -2.9661073  
O   -3.7809383    0.0062220   -3.8623773  
C   -1.5113824    0.0053091   -3.2312124  
H    1.4821237    0.0045409   -2.9459193  
H   -2.7664564    0.0000233    0.6013449  
H    2.1104315    0.0009392   -0.3488061  
C    0.0000000    0.0000000    1.4700000  
C    1.0662921    0.0000102    2.3034270  
C    0.4961870   -0.0000064    3.6418889  
C   -0.9663858    0.0000850    3.4240247  
N   -1.2632773    0.0000084    2.1528658  
C   -1.8985362    0.0000517    4.5177257  
C   -1.3925775   -0.0004564    5.7720543  
O   -2.1456383   -0.0005410    6.8851312  
C    0.0786232   -0.0009323    6.0245000  
O    0.4683759   -0.0012588    7.1921102  
C    1.0143166   -0.0008442    4.8859032  
H    2.1107198   -0.0000632    2.0421868  
H   -2.9622183    0.0003270    4.3293377  
H   -1.5042274   -0.0009692    7.6184419  
H    2.0724152   -0.0013148    5.1109744  
