58

C    3.2573672   -0.0002919   -1.5109385  
C    2.5379469   -0.0001709   -0.3591960  
C    1.1435042    0.0000332   -0.7338501  
C    1.1092609   -0.0000081   -2.2088478  
N    2.4227564    0.0001910   -2.6182612  
C   -0.0265531   -0.0002522   -2.9515666  
C   -1.3003034   -0.0002639   -2.2514984  
O   -2.3786783   -0.0004131   -2.8306432  
C   -1.2877725    0.0000312   -0.6895615  
O   -2.3539954    0.0003306   -0.0892041  
C    0.0000000    0.0000000    0.0000000  
H    2.9384086   -0.0000368    0.6389241  
H    4.3270398   -0.0004763   -1.6439447  
H    2.7280492   -0.0013405   -3.5742116  
C   -0.0307350   -0.0004644   -4.4215608  
C    1.0331817   -0.0004856   -5.2580176  
C    0.4592712   -0.0007208   -6.5948523  
C   -1.0026758   -0.0009309   -6.3728279  
N   -1.2959498   -0.0007011   -5.1008299  
C   -1.9379339   -0.0011512   -7.4638727  
C   -1.4355456   -0.0007723   -8.7196355  
O   -2.1917698   -0.0009257   -9.8305658  
C    0.0349309   -0.0001819   -8.9762659  
O    0.4213604    0.0000160  -10.1449798  
C    0.9738596   -0.0000095   -7.8403358  
H    2.0783489   -0.0002673   -4.9997497  
H   -1.5524478   -0.0005376  -10.5656982  
H    2.0313134    0.0005372   -8.0684163  
C   -4.0590480    0.6841045   -6.2512636  
C   -3.3846720   -0.0016373   -7.2033949  
C   -4.4058773   -0.7475229   -7.9226264  
C   -5.6735093   -0.3840236   -7.2536259  
N   -5.4765042    0.4549476   -6.2731642  
C   -6.9378441   -0.9208973   -7.6758955  
C   -6.9359480   -1.7814752   -8.7193205  
O   -8.0423638   -2.3582751   -9.2185058  
C   -5.6732118   -2.1675882   -9.4154348  
O   -5.7463113   -2.9561358  -10.3578092  
C   -4.3889797   -1.6033112   -8.9634778  
H   -7.8486403   -0.6380240   -7.1686060  
H   -7.7226546   -2.9150987   -9.9512309  
H   -3.4969367   -1.9080410   -9.4941651  
H   -3.6597102    1.3565978   -5.5087975  
C    2.4951002    2.0940188    2.9809380  
C    1.9440701    1.6314916    1.8291961  
C    0.8759964    0.7350050    2.2038498  
C    0.8497377    0.7130254    3.6788474  
N    1.8560616    1.5571714    4.0882609  
C   -0.0205033   -0.0168748    4.4215661  
C   -0.9962600   -0.8356168    3.7214979  
O   -1.8224391   -1.5286685    4.3006425  
C   -0.9864710   -0.8277881    2.1595606  
O   -1.8030528   -1.5133726    1.5592035  
C    0.0000000    0.0000000    1.4700000  
H    2.2509283    1.8888011    0.8310761  
H   -0.0229599   -0.0187323    5.5027230  
H    3.3143982    2.7817323    3.1139444  
H    2.0889452    1.7545833    5.0442112  
