64

C    2.3136486   -2.1180443   -5.9171369  
C    1.6624056   -1.6181592   -7.0209780  
C    0.6419642   -0.7441444   -6.5420234  
C    0.7194927   -0.7504911   -5.1257342  
N    1.7437760   -1.5963708   -4.7793978  
C   -0.1387079    0.0017019   -4.3179684  
C   -1.0923525    0.7746131   -4.9514888  
O   -1.9557351    1.5288505   -4.2107386  
C   -1.1856783    0.7938844   -6.3634860  
O   -2.1870608    1.6126761   -6.8432319  
C   -0.3395499    0.0518701   -7.1609864  
H    1.8935978   -1.8552464   -8.0453476  
H    2.0414320   -1.7936218   -3.8410623  
H   -2.5301602    1.9837419   -4.8403212  
H   -2.1819309    1.5683236   -7.8042785  
H    3.1386341   -2.8065411   -5.8513307  
C   -0.0393302   -3.1030008  -10.3147641  
C   -0.0597250   -2.4326061   -9.1136723  
C   -0.3272733   -1.0623919   -9.4061298  
C   -0.4622269   -0.9559863  -10.8141043  
N   -0.2797035   -2.2128792  -11.3351822  
C   -0.7308655    0.2552565  -11.4587072  
C   -0.8660273    1.3795114  -10.6675307  
O   -1.1290109    2.5878852  -11.2451856  
C   -0.7344721    1.2936284   -9.2610682  
O   -0.8958161    2.5008033   -8.6129634  
C   -0.4691887    0.0990878   -8.6244976  
H    0.0998253   -2.8763593   -8.1458819  
H   -0.3281703   -2.4498231  -12.3096009  
H   -0.8347311    0.3430327  -12.5314184  
H   -1.1835591    3.2289346  -10.5245301  
H   -0.7917192    2.3548356   -7.6677327  
H    0.1290798   -4.1454238  -10.5244115  
C    3.3041273    0.0001178   -1.5420428  
C    2.5845373   -0.0004780   -0.3695851  
C    1.2040007   -0.0000007   -0.7283589  
C    1.1422374    0.0006038   -2.1454372  
N    2.4348641    0.0026111   -2.6077464  
C   -0.0655179    0.0008799   -2.8497918  
C   -1.2321766    0.0002325   -2.1101402  
O   -2.4392814    0.0001148   -2.7472522  
C   -1.1911209   -0.0000007   -0.6955266  
O   -2.4371528   -0.0002320   -0.1032862  
C    0.0000000    0.0000000    0.0000000  
H    3.0031533   -0.0000660    0.6222584  
H    2.7054631   -0.0071097   -3.5745261  
H   -3.1132988   -0.0000648   -2.0551787  
H   -2.3200282   -0.0004072    0.8516409  
H    4.3686625    0.0004073   -1.7024290  
C    2.5128556    2.1077716    2.9199648  
C    1.9592212    1.6432552    4.0696553  
C    0.8915788    0.7479214    3.6910360  
C    0.8684491    0.7287414    2.2159470  
N    1.8754542    1.5738793    1.8102719  
C    0.0000000    0.0000000    1.4700000  
C   -0.9772830   -0.8200135    2.1664417  
O   -1.8021297   -1.5120829    1.5842315  
C   -0.9711318   -0.8147624    3.7284083  
O   -1.7894187   -1.5009653    4.3257297  
C    0.0140216    0.0115358    4.4216297  
H    2.2638494    1.8988021    5.0689105  
H    0.0117648    0.0094386    5.5031631  
H    3.3327358    2.7953732    2.7900019  
H    2.1123206    1.7707734    0.8551938  
