58

C    3.2573665   -0.0002916   -1.5109385  
C    2.5379467   -0.0001706   -0.3591970  
C    1.1435037    0.0000335   -0.7338494  
C    1.1092600   -0.0000076   -2.2088471  
N    2.4227553    0.0001917   -2.6182612  
C   -0.0265543   -0.0002514   -2.9515657  
C   -1.3003043   -0.0002632   -2.2514971  
O   -2.3786797   -0.0004124   -2.8306417  
C   -1.2877733    0.0000315   -0.6895596  
O   -2.3539957    0.0003308   -0.0892022  
C    0.0000000    0.0000000    0.0000000  
H    2.9384091   -0.0000368    0.6389234  
H   -0.0296302   -0.0004073   -4.0327226  
H    4.3270390   -0.0004759   -1.6439452  
C    5.7080832   -2.1452796   -4.5132735  
C    5.6084209   -1.7395357   -5.8005258  
C    4.4745312   -0.8282615   -5.8198397  
C    3.9954377   -0.7997391   -4.4211835  
N    4.7146912   -1.5697618   -3.6506453  
C    2.8699628   -0.0020514   -4.0185830  
C    2.2514663    0.7339952   -4.9699146  
O    1.1895385    1.5236039   -4.7356738  
C    2.7114645    0.7266546   -6.3899525  
O    2.1009828    1.4209416   -7.2026631  
C    3.8682925   -0.0998692   -6.7779368  
H    6.2279140   -2.0234834   -6.6339986  
H    0.9754891    1.9147014   -5.6019172  
H    4.1702522   -0.0775352   -7.8164704  
C    6.6862760   -3.0748742   -3.9302709  
C    7.6958138   -3.7231957   -4.5564442  
C    8.3432287   -4.5047731   -3.5140955  
C    7.5742968   -4.2005657   -2.2882136  
N    6.6017034   -3.3630015   -2.5259894  
C    7.9043602   -4.7861926   -1.0181013  
C    8.9545955   -5.6373428   -0.9746954  
O    9.3739306   -6.2556333    0.1424060  
C    9.7499848   -5.9646950   -2.1946781  
O   10.6930457   -6.7476490   -2.0813656  
C    9.3915907   -5.3510375   -3.4857646  
H    7.9675390   -3.6768510   -5.5971621  
H    7.3253443   -4.5458577   -0.1383915  
H   10.1353012   -6.7926497   -0.1423410  
H    9.9925150   -5.6140845   -4.3459538  
C    2.4951002    2.0940188    2.9809380  
C    1.9440701    1.6314916    1.8291961  
C    0.8759964    0.7350050    2.2038498  
C    0.8497377    0.7130254    3.6788474  
N    1.8560616    1.5571714    4.0882609  
C   -0.0205033   -0.0168748    4.4215661  
C   -0.9962600   -0.8356168    3.7214979  
O   -1.8224391   -1.5286685    4.3006425  
C   -0.9864710   -0.8277881    2.1595606  
O   -1.8030528   -1.5133726    1.5592035  
C    0.0000000    0.0000000    1.4700000  
H    2.2509283    1.8888011    0.8310761  
H   -0.0229599   -0.0187323    5.5027230  
H    3.3143982    2.7817323    3.1139444  
H    2.0889452    1.7545833    5.0442112  
