64

C    1.5862965   -2.0670320   -5.3411847  
C    1.3189951   -1.5555204   -6.5899331  
C    0.1997466   -0.6822136   -6.4513069  
C   -0.1759085   -0.7009547   -5.0836600  
N    0.6852546   -1.5532112   -4.4381564  
C   -1.2456329    0.0471727   -4.5828766  
C   -1.9487579    0.8286865   -5.4789955  
O   -3.0021416    1.5794499   -5.0433904  
C   -1.5894396    0.8603682   -6.8474632  
O   -2.3865858    1.6866036   -7.6124703  
C   -0.5344149    0.1223716   -7.3422465  
H    1.8630204   -1.7845990   -7.4902406  
H    0.6698563   -1.7594942   -3.4557151  
H   -3.3470234    2.0416480   -5.8184353  
H   -2.0769446    1.6504695   -8.5226458  
H    2.3474956   -2.7588384   -5.0234759  
C    0.7490394   -3.0063556  -10.2668774  
C    0.3490864   -2.3462110   -9.1281443  
C    0.1887517   -0.9726494   -9.4777460  
C    0.5073563   -0.8537317  -10.8547986  
N    0.8451236   -2.1067209  -11.3026255  
C    0.4575959    0.3638860  -11.5401597  
C    0.0790207    1.4817695  -10.8223887  
O    0.0133896    2.6959258  -11.4424944  
C   -0.2423178    1.3833980   -9.4476592  
O   -0.6003090    2.5855119   -8.8731094  
C   -0.1931840    0.1825619   -8.7708260  
H    0.1932536   -2.7987735   -8.1638328  
H    1.1080848   -2.3351436  -12.2442495  
H    0.6993459    0.4611982  -12.5895830  
H   -0.2665964    3.3309573  -10.7704774  
H   -0.8014366    2.4311020   -7.9450415  
H    0.9747520   -4.0475050  -10.4218670  
C    1.1243410    0.0099923   -0.7919003  
C    0.7474076    0.0234544   -2.1148543  
C   -0.6787381    0.0234490   -2.1414700  
C   -1.1201745    0.0098592   -0.7935546  
N    0.0000000    0.0000000    0.0000000  
C   -2.4730816    0.0063709   -0.4408240  
C   -3.3971958    0.0170982   -1.4675058  
O   -4.7313517    0.0146259   -1.1793471  
C   -2.9763648    0.0303504   -2.8186324  
O   -4.0166480    0.0395118   -3.7247624  
C   -1.6418562    0.0335260   -3.1673481  
H    1.4178717    0.0310972   -2.9571209  
H   -2.8160166   -0.0041111    0.5845966  
H   -5.1938818    0.0230867   -2.0274384  
H   -3.6464675    0.0482293   -4.6127343  
H    2.1062467    0.0052819   -0.3505407  
C    2.5128556    2.1077716    2.9199648  
C    1.9592212    1.6432552    4.0696553  
C    0.8915788    0.7479214    3.6910360  
C    0.8684491    0.7287414    2.2159470  
N    1.8754542    1.5738793    1.8102719  
C    0.0000000    0.0000000    1.4700000  
C   -0.9772830   -0.8200135    2.1664417  
O   -1.8021297   -1.5120829    1.5842315  
C   -0.9711318   -0.8147624    3.7284083  
O   -1.7894187   -1.5009653    4.3257297  
C    0.0140216    0.0115358    4.4216297  
H    2.2638494    1.8988021    5.0689105  
H    0.0117648    0.0094386    5.5031631  
H    3.3327358    2.7953732    2.7900019  
H    2.1123206    1.7707734    0.8551938  
