58

C   -0.0307357   -0.0004648   -4.4215605  
C    1.0209936   -0.0006525   -5.2805953  
C    0.4733354   -0.0007748   -6.6165992  
C   -0.9941884   -0.0006127   -6.4644009  
N   -1.2345441   -0.0008272   -5.1097354  
C   -1.8743250   -0.0002665   -7.4973890  
C   -1.3406225   -0.0002646   -8.8493125  
O   -2.0512434   -0.0000286   -9.8459665  
C    0.2104050   -0.0006867   -9.0340228  
O    0.6713870   -0.0009954  -10.1674933  
C    1.0569883   -0.0007589   -7.8435821  
H    2.0616756   -0.0008823   -5.0093139  
H    2.1298764   -0.0008465   -7.9800891  
H   -2.1443168    0.0007705   -4.6862276  
C    3.2573671   -0.0002921   -1.5109385  
C    2.5379468   -0.0001709   -0.3591966  
C    1.1435043    0.0000332   -0.7338505  
C    1.1092606   -0.0000083   -2.2088481  
N    2.4227561    0.0001908   -2.6182617  
C   -0.0265535   -0.0002524   -2.9515665  
C   -1.3003038   -0.0002640   -2.2514985  
O   -2.3786788   -0.0004132   -2.8306428  
C   -1.2877726    0.0000312   -0.6895607  
O   -2.3539957    0.0003306   -0.0892034  
C    0.0000000    0.0000000    0.0000000  
H    2.9384092   -0.0000368    0.6389229  
H    4.3270393   -0.0004765   -1.6439450  
H    2.7280488   -0.0013408   -3.5742119  
C   -3.3330910    0.0000650   -7.3160013  
C   -4.0525113    0.0002834   -6.1642594  
C   -5.4469539    0.0005340   -6.5389128  
C   -5.4811974    0.0004138   -8.0139103  
N   -4.1677020    0.0005276   -8.4233245  
C   -6.6170114    0.0001837   -8.7566293  
C   -7.8907616    0.0002714   -8.0565613  
O   -8.9691365    0.0001423   -8.6357051  
C   -7.8782305    0.0006512   -6.4946234  
O   -8.9444532    0.0010346   -5.8942667  
C   -6.5904578    0.0005958   -5.8050632  
H   -3.6520486    0.0004528   -5.1661394  
H   -6.6200877   -0.0000313   -9.8377857  
H   -6.5904579    0.0006548   -4.7235253  
H   -3.8624091   -0.0010709   -9.3792747  
C    2.3971438    2.0127888    3.1728260  
C    1.9431056    1.6308205    1.9564670  
C    0.8496017    0.7127664    2.2356185  
C    0.7794028    0.6545384    3.7115134  
N    1.6840587    1.4146091    4.2663826  
C   -0.1885723   -0.1578550    4.3957118  
C   -1.0476298   -0.8789867    3.6398520  
O   -2.0015663   -1.6796266    4.1448486  
C   -1.0022026   -0.8410666    2.1483229  
O   -1.8147390   -1.5232959    1.5241687  
C    0.0000000    0.0000000    1.4700000  
H    2.3054237    1.9346118    0.9892483  
H   -0.2170646   -0.1815267    5.4753125  
H   -2.4487139   -2.0549881    3.3649027  
H    3.2048689    2.6911772    3.3971983  
