58

C   -3.1006031    0.0045270   -3.9654945  
C   -4.3965723    0.0056728   -4.3711273  
C   -4.3857772    0.0060526   -5.8149829  
C   -2.9671149    0.0049974   -6.2201826  
N   -2.2396157    0.0045017   -5.0524351  
C   -2.5349194    0.0045925   -7.5066163  
C   -3.5336489    0.0054652   -8.5625876  
O   -3.2452488    0.0052508   -9.7521777  
C   -5.0419157    0.0068413   -8.1564672  
O   -5.8918103    0.0078910   -9.0367741  
C   -5.3843416    0.0068865   -6.7363983  
H   -5.2613997    0.0063751   -3.7318427  
H   -6.4309049    0.0076377   -6.4635839  
H   -1.2375701    0.0022108   -4.9981503  
C   -3.2798055    0.0048657   -1.4499646  
C   -2.5571122    0.0036935   -2.5996551  
C   -1.1637424    0.0017793   -2.2210357  
C   -1.1336951    0.0019042   -0.7459471  
N   -2.4483478    0.0042124   -0.3402715  
C    0.0000000    0.0000000    0.0000000  
C    1.2757349   -0.0021020   -0.6964420  
O    2.3524563   -0.0038463   -0.1142321  
C    1.2676476   -0.0020200   -2.2584083  
O    2.3355731   -0.0034723   -2.8557303  
C   -0.0181567   -0.0001461   -2.9516296  
H   -0.0150802   -0.0003072   -4.0331630  
H   -4.3498504    0.0063689   -1.3200016  
H   -2.7563611    0.0032992    0.6148065  
C   -1.1135162    0.0033606   -7.8814646  
C   -0.0169652    0.0022476   -7.0804343  
C    1.1376907    0.0013687   -7.9473852  
C    0.6202363    0.0020951   -9.3290625  
N   -0.7512520    0.0028965   -9.2199353  
C    1.3978088    0.0019990  -10.4413052  
C    2.8406391    0.0008953  -10.2658799  
O    3.6258123    0.0006612  -11.2049244  
C    3.4106177   -0.0001399   -8.8116004  
O    4.6237162   -0.0013798   -8.6514398  
C    2.4722203    0.0003500   -7.6921087  
H   -0.0169657    0.0018809   -6.0049745  
H    0.9980804    0.0026708  -11.4458586  
H    2.8749458   -0.0001677   -6.6883476  
H   -1.3905503    0.0050727   -9.9934597  
C    2.5528530    2.1414826    2.8079335  
C    2.0663498    1.7338582    4.0032312  
C    0.9804344    0.8229586    3.6752840  
C    0.9495562    0.7966882    2.1971295  
N    1.8690446    1.5676019    1.6831036  
C    0.0000000    0.0000000    1.4700000  
C   -0.8785127   -0.7372425    2.1869543  
O   -1.8187535   -1.5261249    1.6395491  
C   -0.8723269   -0.7321790    3.6796354  
O   -1.7010379   -1.4274584    4.2670412  
C    0.1115397    0.0933559    4.4024240  
H    2.4028853    2.0163452    4.9860947  
H   -2.2861435   -1.9184361    2.3990168  
H    0.0832434    0.0693689    5.4835595  
H    3.3664920    2.8238276    2.6198634  
