58

C   -3.2797478    0.0199363   -1.4499650  
C   -2.5570681    0.0154435   -2.5996556  
C   -1.1637211    0.0071269   -2.2210364  
C   -1.1336742    0.0071136   -0.7459472  
N   -2.4483025    0.0154623   -0.3402722  
C    0.0000000    0.0000000    0.0000000  
C    1.2757131   -0.0079637   -0.6964415  
O    2.3524139   -0.0146555   -0.1142315  
C    1.2676256   -0.0078443   -2.2584080  
O    2.3355333   -0.0142037   -2.8557292  
C   -0.0181569   -0.0000622   -2.9516296  
H   -2.9546809    0.0178804   -3.5989107  
H   -0.0150803   -0.0002374   -4.0331629  
H   -2.7563171    0.0159643    0.6148058  
C   -5.6663735    0.0350315   -2.2647008  
C   -4.7389981    0.0286914   -1.2727286  
C   -5.4603989    0.0324922   -0.0219679  
C   -6.8943561    0.0416026   -0.3690601  
N   -6.9513767    0.0431275   -1.7437006  
C   -7.9047206    0.0469938    0.5369418  
C   -7.5566266    0.0438226    1.9480959  
O   -8.3941417    0.0482444    2.8407603  
C   -6.0442631    0.0344482    2.3385759  
O   -5.7390175    0.0320143    3.5235147  
C   -5.0460949    0.0289710    1.2720481  
H   -4.0011214    0.0222835    1.5508128  
H   -5.5191784    0.0346875   -3.3325127  
H   -7.7963294    0.0472268   -2.2850742  
C   -9.8906683   -0.6446887   -0.8550322  
C   -9.3260969    0.0558747    0.1620935  
C  -10.3854109    0.8041155    0.7967787  
C  -11.6222814    0.4796960    0.0607804  
N  -11.2541219   -0.4030686   -0.9281963  
C  -12.8466411    0.9865296    0.3536418  
C  -12.9532954    1.9135844    1.4679713  
O  -14.0116274    2.4243171    1.8105872  
C  -11.6562390    2.2715403    2.2612673  
O  -11.7336122    3.0511457    3.2012085  
C  -10.3941231    1.6609965    1.8512055  
H  -13.7414315    0.7354384   -0.1988190  
H   -9.5006983    1.9139005    2.4057830  
H   -9.4253574   -1.3169890   -1.5574479  
H  -11.8798904   -0.8107411   -1.5984683  
C    0.0000000    0.0000000    1.4700000  
C    1.0541688    0.0001722    2.3260392  
C    0.5103138    0.0000454    3.6635956  
C   -0.9576371   -0.0002459    3.5155732  
N   -1.2018458    0.0001392    2.1615969  
C   -1.8348311   -0.0008317    4.5510609  
C   -1.2972847   -0.0009736    5.9014604  
O   -2.0050672   -0.0014265    6.9001319  
C    0.2542623   -0.0004184    6.0817573  
O    0.7184670   -0.0002256    7.2139121  
C    1.0974552   -0.0000873    4.8889129  
H    2.0940752    0.0005483    2.0517982  
H   -2.9081052   -0.0011668    4.4207061  
H    2.1707277    0.0000911    5.0223670  
H   -2.1128194   -0.0014912    1.7406791  
