58

C   -0.1605264    0.7239907   -7.3108392  
C   -1.1310584    0.5077638   -8.2357113  
C   -0.5925477   -0.4202321   -9.2019747  
C    0.7811110   -0.7291601   -8.7610492  
N    0.9815271   -0.0035290   -7.6094495  
C    1.6257071   -1.5707581   -9.4091812  
C    1.1501549   -2.2151436  -10.6220923  
O    1.8351107   -2.9895219  -11.2774360  
C   -0.3011378   -1.9023651  -11.1076062  
O   -0.7124210   -2.4387261  -12.1276176  
C   -1.1172745   -0.9781780  -10.3242471  
H   -2.1121671    0.9482356   -8.2405988  
H    2.6295287   -1.7837909   -9.0687846  
H   -2.1210825   -0.7670767  -10.6670739  
H   -0.1834381    1.3537752   -6.4363470  
C    1.6707638   -0.0012342   -3.2725973  
C    3.0286798   -0.0026502   -3.2608754  
C    3.4615711   -0.0042638   -4.6383506  
C    2.2357545   -0.0036380   -5.4594256  
N    1.1849517   -0.0021877   -4.5713373  
C    2.2192683   -0.0043573   -6.8164193  
C    3.4939012   -0.0060731   -7.5148769  
O    3.5845456   -0.0068917   -8.7355668  
C    4.8047152   -0.0070137   -6.6654233  
O    5.8837806   -0.0087651   -7.2423779  
C    4.6947478   -0.0058259   -5.2087976  
H    3.6555464   -0.0027555   -2.3870037  
H    5.6070596   -0.0062825   -4.6279272  
H    0.2146122    0.0000906   -4.8272343  
C    1.0965515    0.0001359   -0.8010305  
C    0.0000000    0.0000000    0.0000000  
C   -1.1546564    0.0001470   -0.8669509  
C   -0.6372018    0.0003521   -2.2486279  
N    0.7342868    0.0007339   -2.1395011  
C   -1.4147743    0.0001355   -3.3608714  
C   -2.8576049   -0.0001046   -3.1854455  
O   -3.6427782   -0.0002491   -4.1244898  
C   -3.4275842   -0.0000725   -1.7311664  
O   -4.6406831    0.0000334   -1.5710053  
C   -2.4891868   -0.0001091   -0.6116742  
H   -1.0150456    0.0001619   -4.3654242  
H   -2.8919123   -0.0002920    0.3920869  
H    2.1388270    0.0000663   -0.5261648  
C    0.0000000    0.0000000    1.4700000  
C    1.0662921    0.0000102    2.3034270  
C    0.4961870   -0.0000064    3.6418889  
C   -0.9663858    0.0000850    3.4240247  
N   -1.2632773    0.0000084    2.1528658  
C   -1.8985362    0.0000517    4.5177257  
C   -1.3925775   -0.0004564    5.7720543  
O   -2.1456383   -0.0005410    6.8851312  
C    0.0786232   -0.0009323    6.0245000  
O    0.4683759   -0.0012588    7.1921102  
C    1.0143166   -0.0008442    4.8859032  
H    2.1107198   -0.0000632    2.0421868  
H   -2.9622183    0.0003270    4.3293377  
H   -1.5042274   -0.0009692    7.6184419  
H    2.0724152   -0.0013148    5.1109744  
