58

C    2.5250703   -2.1043380   -5.8790413  
C    1.9676442   -1.6402805   -7.0270840  
C    0.9000741   -0.7462065   -6.6452971  
C    0.8811192   -0.7272654   -5.1701454  
N    1.8902268   -1.5713252   -4.7674612  
C    0.0139746    0.0003883   -4.4216235  
C   -0.9662098    0.8193994   -5.1151615  
O   -1.7901763    1.5104538   -4.5305050  
C   -0.9644962    0.8143806   -6.6771403  
O   -1.7852523    1.4997461   -7.2720303  
C    0.0196125   -0.0107059   -7.3732832  
H    2.2697161   -1.8953396   -8.0272392  
H    0.0142763   -0.0084552   -8.4548046  
H    3.3460917   -2.7910331   -5.7515133  
H    2.1300313   -1.7680898   -3.8130901  
C    3.2798087    0.0005858   -1.4499643  
C    2.5571149    0.0005569   -2.5996548  
C    1.1637440    0.0001551   -2.2210358  
C    1.1336966   -0.0000198   -0.7459468  
N    2.4483512   -0.0001426   -0.3402714  
C    0.0000000    0.0000000    0.0000000  
C   -1.2757369   -0.0000185   -0.6964416  
O   -2.3524599   -0.0000639   -0.1142315  
C   -1.2676492   -0.0000870   -2.2584080  
O   -2.3355760   -0.0004099   -2.8557298  
C    0.0181565    0.0001762   -2.9516296  
H    2.9547360    0.0006079   -3.5989102  
H    2.7563627    0.0012824    0.6148067  
C    4.7390849    0.0009618   -1.2727274  
C    5.6949939    0.0015511   -2.2307549  
C    6.9549544    0.0016812   -1.5034317  
C    6.5623385    0.0012149   -0.0777962  
N    5.2646566    0.0007113    0.0636667  
C    7.5356716    0.0011414    0.9794207  
C    8.8418530    0.0011278    0.6283864  
O    9.8560143    0.0010694    1.5101563  
C    9.2698392    0.0012213   -0.8016446  
O   10.4759238    0.0013272   -1.0477761  
C    8.2523646    0.0013394   -1.8677918  
H    5.5615855    0.0017693   -3.2990611  
H    7.2204107    0.0010035    2.0126294  
H   10.6613099    0.0010489    0.9618393  
H    8.6033679    0.0012895   -2.8910346  
C    2.5528530    2.1414826    2.8079335  
C    2.0663498    1.7338582    4.0032312  
C    0.9804344    0.8229586    3.6752840  
C    0.9495562    0.7966882    2.1971295  
N    1.8690446    1.5676019    1.6831036  
C    0.0000000    0.0000000    1.4700000  
C   -0.8785127   -0.7372425    2.1869543  
O   -1.8187535   -1.5261249    1.6395491  
C   -0.8723269   -0.7321790    3.6796354  
O   -1.7010379   -1.4274584    4.2670412  
C    0.1115397    0.0933559    4.4024240  
H    2.4028853    2.0163452    4.9860947  
H   -2.2861435   -1.9184361    2.3990168  
H    0.0832434    0.0693689    5.4835595  
H    3.3664920    2.8238276    2.6198634  
