64

C    3.3041267    0.0001175   -1.5420439  
C    2.5845370   -0.0004782   -0.3695860  
C    1.2040003   -0.0000009   -0.7283592  
C    1.1422366    0.0006035   -2.1454375  
N    2.4348631    0.0026107   -2.6077472  
C   -0.0655191    0.0008795   -2.8497916  
C   -1.2321778    0.0002322   -2.1101394  
O   -2.4392824    0.0001145   -2.7472511  
C   -1.1911212   -0.0000009   -0.6955261  
O   -2.4371528   -0.0002321   -0.1032854  
C    0.0000000    0.0000000    0.0000000  
H    3.0031537   -0.0000662    0.6222575  
H   -0.1193561    0.0014840   -3.9297468  
H   -3.1132997   -0.0000649   -2.0551772  
H   -2.3200277   -0.0004071    0.8516418  
H    4.3686617    0.0004070   -1.7024307  
C    5.6718678   -2.1292829   -4.7374678  
C    5.4024558   -1.6450690   -5.9966031  
C    4.2795461   -0.7737664   -5.8761641  
C    3.9039350   -0.7655396   -4.5084013  
N    4.7686513   -1.6005167   -3.8453050  
C    2.8310651   -0.0116223   -4.0232761  
C    2.1246898    0.7480616   -4.9354667  
O    1.0681509    1.5033226   -4.5155605  
C    2.4839098    0.7526865   -6.3043187  
O    1.6833222    1.5594237   -7.0863539  
C    3.5420376    0.0089614   -6.7836564  
H    5.9474631   -1.8905999   -6.8919658  
H    4.7540920   -1.7863154   -2.8587714  
H    0.7213527    1.9477941   -5.3000615  
H    1.9931383    1.5056033   -7.9955959  
H    6.4359560   -2.8111065   -4.4054367  
C    3.8830527    0.0407581   -8.2132013  
C    4.8800721   -0.6112417   -8.9011807  
C    4.7624050   -0.2258587  -10.2694768  
C    3.6666087    0.6705552  -10.3566467  
N    3.1541421    0.8089891   -9.0906175  
C    3.2599112    1.2529756  -11.5608781  
C    3.9725820    0.9247235  -12.6977719  
O    3.6183744    1.4651539  -13.9000558  
C    5.0686584    0.0319787  -12.6311319  
O    5.6756704   -0.1948150  -13.8490986  
C    5.4702653   -0.5431782  -11.4435154  
H    5.6025332   -1.2829453   -8.4700686  
H    2.3761526    1.3919944   -8.8399798  
H    2.4255093    1.9368087  -11.6340088  
H    4.2359976    1.1091400  -14.5520219  
H    6.4051026   -0.8078384  -13.7159269  
H    6.3135435   -1.2235896  -11.4235124  
C    2.4951002    2.0940188    2.9809380  
C    1.9440701    1.6314916    1.8291961  
C    0.8759964    0.7350050    2.2038498  
C    0.8497377    0.7130254    3.6788474  
N    1.8560616    1.5571714    4.0882609  
C   -0.0205033   -0.0168748    4.4215661  
C   -0.9962600   -0.8356168    3.7214979  
O   -1.8224391   -1.5286685    4.3006425  
C   -0.9864710   -0.8277881    2.1595606  
O   -1.8030528   -1.5133726    1.5592035  
C    0.0000000    0.0000000    1.4700000  
H    2.2509283    1.8888011    0.8310761  
H   -0.0229599   -0.0187323    5.5027230  
H    3.3143982    2.7817323    3.1139444  
H    2.0889452    1.7545833    5.0442112  
