58

C   -3.2573210    0.0172985   -1.5109389  
C   -2.5379116    0.0134214   -0.3591966  
C   -1.1434892    0.0059370   -0.7338501  
C   -1.1092450    0.0057996   -2.2088477  
N   -2.4227238    0.0124581   -2.6182615  
C    0.0265549    0.0001137   -2.9515660  
C    1.3002881   -0.0065248   -2.2514975  
O    2.3786481   -0.0120057   -2.8306417  
C    1.2877540   -0.0067545   -0.6895600  
O    2.3539619   -0.0126207   -0.0892029  
C    0.0000000    0.0000000    0.0000000  
H   -2.9383688    0.0153780    0.6389231  
H    0.0296320    0.0002538   -4.0327231  
H   -2.7280042    0.0155836   -3.5742121  
C   -5.6505387    0.0285587   -0.6678818  
C   -6.9151583    0.0334747   -1.1626425  
C   -6.8039989    0.0329027   -2.6022532  
C   -5.3606078    0.0271805   -2.9078315  
N   -4.7160659    0.0251661   -1.6923269  
C   -4.8400171    0.0246141   -4.1611008  
C   -5.7629013    0.0279196   -5.2839583  
O   -5.3924908    0.0260522   -6.4506174  
C   -7.2957436    0.0342419   -4.9836921  
O   -8.0823671    0.0373734   -5.9209622  
C   -7.7360745    0.0362545   -3.5908691  
H   -7.8223359    0.0372717   -0.5850364  
H   -3.7779674    0.0202833   -4.3634400  
H   -5.3226160    0.0273457    0.3589360  
C  -10.1345250    2.1540798   -0.5832803  
C  -11.3683703    1.6942743   -0.9153637  
C  -11.1965461    0.7979985   -2.0342928  
C   -9.7510900    0.7731320   -2.3289602  
N   -9.1634427    1.6162118   -1.4142054  
C   -9.1808676    0.0419327   -3.3198683  
C  -10.0487186   -0.7749142   -4.1518124  
O   -9.6312441   -1.4688303   -5.0696887  
C  -11.5827469   -0.7636327   -3.8578127  
O  -12.3233451   -1.4471293   -4.5517913  
C  -12.0792538    0.0648629   -2.7619445  
H  -12.2933383    1.9535324   -0.4318011  
H  -13.1426655    0.0669445   -2.5647764  
H   -9.8529711    2.8407796    0.1984234  
H   -8.1803094    1.8093013   -1.3575188  
C    2.5128556    2.1077716    2.9199648  
C    1.9592212    1.6432552    4.0696553  
C    0.8915788    0.7479214    3.6910360  
C    0.8684491    0.7287414    2.2159470  
N    1.8754542    1.5738793    1.8102719  
C    0.0000000    0.0000000    1.4700000  
C   -0.9772830   -0.8200135    2.1664417  
O   -1.8021297   -1.5120829    1.5842315  
C   -0.9711318   -0.8147624    3.7284083  
O   -1.7894187   -1.5009653    4.3257297  
C    0.0140216    0.0115358    4.4216297  
H    2.2638494    1.8988021    5.0689105  
H    0.0117648    0.0094386    5.5031631  
H    3.3327358    2.7953732    2.7900019  
H    2.1123206    1.7707734    0.8551938  
