62

C    4.3850145   -2.1302472   -1.4420375  
C    3.1441333   -1.6664867   -1.8129919  
C    3.3426832   -0.7794073   -2.9122042  
C    4.7370124   -0.7413627   -3.1697381  
N    5.3406713   -1.5712647   -2.2578847  
C    5.2968248    0.0340036   -4.1896431  
C    4.4333093    0.7844034   -4.9638647  
O    4.9266648    1.5591504   -5.9735093  
C    3.0391090    0.7599480   -4.7221527  
O    2.3124159    1.5614585   -5.5782141  
C    2.4861708   -0.0045286   -3.7159913  
H    2.2107835   -1.9337300   -1.3477684  
H    6.3263480   -1.7540630   -2.2030539  
H    4.1660047    1.9932246   -6.3812358  
H    1.3813876    1.4874741   -5.3473111  
H    4.6641351   -2.8144246   -0.6591248  
C    0.0000000    0.0000000    0.0000000  
C    1.0521668   -0.0011862   -0.8862337  
C    0.4917223   -0.0011933   -2.1979128  
C   -0.9187426    0.0003121   -2.0478684  
N   -1.1833170   -0.0009451   -0.7007915  
C   -1.7951692    0.0010294   -3.1372093  
C   -1.2375827    0.0005192   -4.4010426  
O   -2.0474200    0.0015301   -5.4997582  
C    0.1673593   -0.0013551   -4.5711963  
O    0.5673537   -0.0020655   -5.8915553  
C    1.0325777   -0.0023369   -3.4969887  
H    2.0953056   -0.0030573   -0.6200556  
H   -2.0989779    0.0102301   -0.2891829  
H   -2.8710925    0.0020326   -3.0295520  
H   -1.4634871    0.0006461   -6.2693596  
H    1.5290723   -0.0033086   -5.9180041  
C    8.3691839   -3.1035030   -4.1890061  
C    9.4530923   -2.3566729   -4.5228661  
C    8.9942164   -0.9971185   -4.6837390  
C    7.5437266   -1.0132131   -4.4142748  
N    7.2273933   -2.3196519   -4.1209478  
C    6.7404103    0.0794822   -4.4633099  
C    7.3446894    1.3565894   -4.8044538  
O    6.7057124    2.3982665   -4.8745907  
C    8.8790816    1.3969418   -5.0939678  
O    9.3989402    2.4664054   -5.3825056  
C    9.6401662    0.1529608   -5.0096284  
H   10.4592243   -2.7170829   -4.6429347  
H   10.7021009    0.1894767   -5.2113341  
H    8.3084088   -4.1606020   -3.9871695  
H    6.3089603   -2.6520923   -3.8907057  
C    1.0672568    0.0000697    2.3021913  
C    0.0000000    0.0000000    1.4700000  
C   -1.1601224    0.0000736    2.3478473  
C   -0.5938729    0.0000769    3.7138435  
N    0.7113367    0.0001554    3.6934124  
C   -1.4286986    0.0001879    4.8835240  
C   -2.7683114    0.0006799    4.6970523  
O   -3.6653903    0.0008304    5.6976972  
C   -3.3702025    0.0010610    3.3310774  
O   -4.5974910    0.0013779    3.2362962  
C   -2.4926826    0.0008943    2.1470656  
H   -0.9878360   -0.0000190    5.8697035  
H   -4.5324246    0.0012261    5.2533954  
H   -2.9677772    0.0012974    1.1752040  
H    2.1134392    0.0000545    2.0405121  
