58

C    4.6170338    0.5595432   -8.4628485  
C    5.6891483   -0.2731740   -8.4278232  
C    6.2708932   -0.2662977   -9.7493245  
C    5.4439018    0.6452426  -10.5629396  
N    4.4581603    1.1124248   -9.7245220  
C    5.6668538    0.9231991  -11.8724191  
C    6.7965952    0.2816019  -12.5240122  
O    7.0805508    0.4670912  -13.7001342  
C    7.6857450   -0.6877036  -11.6815961  
O    8.6394764   -1.2339259  -12.2194625  
C    7.3456025   -0.9077816  -10.2781292  
H    6.0330907   -0.8289661   -7.5737677  
H    5.0481658    1.5950125  -12.4510397  
H    7.9663582   -1.5802101   -9.7017390  
H    3.7359148    1.7574037   -9.9879834  
C    4.3913907   -0.7046358   -4.2635296  
C    3.2973506   -0.0000934   -3.8752374  
C    2.8435635    0.7418819   -5.0277935  
C    3.7695334    0.4094497   -6.1272746  
N    4.6845879   -0.4715002   -5.5986044  
C    3.6794141    0.9088337   -7.3859248  
C    2.5984071    1.8357535   -7.6770940  
O    2.4323282    2.3400888   -8.7799836  
C    1.6062052    2.2021221   -6.5276973  
O    0.6923306    2.9816915   -6.7608613  
C    1.8057160    1.5992066   -5.2121968  
H    1.1142472    1.8579094   -4.4218378  
H    5.0082525   -1.3743839   -3.6866339  
H    5.4466834   -0.8833671   -6.1051831  
C    3.3321174    0.0004714   -1.3379332  
C    2.6974186    0.0000115   -2.5332308  
C    1.2800441   -0.0002119   -2.2052838  
C    1.2395035    0.0000643   -0.7271293  
N    2.4394063    0.0005458   -0.2131034  
C    0.0000000    0.0000000    0.0000000  
C   -1.1468701    0.0000634   -0.7169542  
O   -2.3742201    0.0000072   -0.1695492  
C   -1.1388767    0.0001606   -2.2096354  
O   -2.2206229    0.0000903   -2.7970413  
C    0.1454526    0.0001815   -2.9324239  
H   -2.9844344    0.0001023   -0.9290168  
H    0.1083580    0.0003680   -4.0135594  
H    4.3940040    0.0007617   -1.1498630  
C    2.4951002    2.0940188    2.9809380  
C    1.9440701    1.6314916    1.8291961  
C    0.8759964    0.7350050    2.2038498  
C    0.8497377    0.7130254    3.6788474  
N    1.8560616    1.5571714    4.0882609  
C   -0.0205033   -0.0168748    4.4215661  
C   -0.9962600   -0.8356168    3.7214979  
O   -1.8224391   -1.5286685    4.3006425  
C   -0.9864710   -0.8277881    2.1595606  
O   -1.8030528   -1.5133726    1.5592035  
C    0.0000000    0.0000000    1.4700000  
H    2.2509283    1.8888011    0.8310761  
H   -0.0229599   -0.0187323    5.5027230  
H    3.3143982    2.7817323    3.1139444  
H    2.0889452    1.7545833    5.0442112  
