60

C   -3.2941079    0.0012875   -2.9038234  
C   -4.0168013    0.0014139   -1.7541324  
C   -5.4101729    0.0018622   -2.1327515  
C   -5.4402200    0.0019584   -3.6078406  
N   -4.1255655    0.0019957   -4.0135161  
C   -6.5739167    0.0019524   -4.3537873  
C   -7.8496529    0.0020704   -3.6573456  
O   -8.9263771    0.0021360   -4.2395554  
C   -7.8415656    0.0022236   -2.0953789  
O   -8.9094933    0.0026303   -1.4980570  
C   -6.5557599    0.0019361   -1.4021574  
H   -3.6191807    0.0013981   -0.7548775  
H   -6.5739171    0.0018936   -5.4349490  
H   -6.5588367    0.0018391   -0.3206244  
H   -3.8175543    0.0005037   -4.9685941  
C    0.0000000    0.0000000    0.0000000  
C    1.0541686   -0.0001722   -0.8560393  
C    0.5103131   -0.0000453   -2.1935957  
C   -0.9576377    0.0002459   -2.0455727  
N   -1.2018463   -0.0001391   -0.6915965  
C   -1.8348318    0.0008318   -3.0810604  
C   -1.2972856    0.0009738   -4.4314602  
O   -2.0050684    0.0014267   -5.4301314  
C    0.2542612    0.0004186   -4.6117571  
O    0.7184659    0.0002259   -5.7439120  
C    1.0974545    0.0000875   -3.4189131  
H    2.0940750   -0.0005483   -0.5817985  
H   -2.1128195    0.0014912   -0.2706785  
C    2.5562205   -0.0001551   -3.6003010  
C    3.5148514   -0.0005086   -2.6449969  
C    4.7727375   -0.0006028   -3.3759021  
C    4.3760670   -0.0003760   -4.8004146  
N    3.0779883   -0.0000323   -4.9381851  
C    5.3463887   -0.0003432   -5.8603965  
C    6.6535636   -0.0001398   -5.5130800  
O    7.6652119   -0.0000935   -6.3977319  
C    7.0856162    0.0000105   -4.0842725  
O    8.2923957    0.0000692   -3.8415734  
C    6.0711791   -0.0000703   -3.0152349  
H    3.3844830   -0.0005937   -1.5763154  
H    5.0281894   -0.0003822   -6.8927045  
H    8.4720643    0.0000899   -5.8517083  
H    6.4250921    0.0001590   -1.9929946  
C    1.1243417   -0.0099156    2.2619005  
C    0.7474090   -0.0234034    3.5848544  
C   -0.6787367   -0.0234952    3.6114698  
C   -1.1201739   -0.0099357    2.2635546  
N    0.0000000    0.0000000    1.4700000  
C   -2.4730812   -0.0065396    1.9108239  
C   -3.3971947   -0.0173298    2.9375057  
O   -4.7313508   -0.0149487    2.6493466  
C   -2.9763630   -0.0305536    4.2886322  
O   -4.0166453   -0.0397858    5.1947621  
C   -1.6418541   -0.0336380    4.6373480  
H    1.4178735   -0.0310004    4.4271209  
H   -2.8160170    0.0039190    0.8854031  
H   -5.1938803   -0.0234410    3.4974381  
H   -3.6464643   -0.0484781    6.0827341  
H   -1.3497443   -0.0436789    5.6809233  
H    2.1062470   -0.0051382    1.8205408  
