60

C   -3.3003308   -0.0121629   -1.4739010  
C   -2.5232623   -0.0092455   -2.6090765  
C   -1.1623112   -0.0039658   -2.1820107  
C   -1.1711803   -0.0041874   -0.7636147  
N   -2.4852194   -0.0072698   -0.3662376  
C    0.0000000    0.0000000    0.0000000  
C    1.2020323    0.0041857   -0.6806468  
O    2.3759119    0.0080268    0.0157763  
C    1.2314571    0.0048526   -2.0955500  
O    2.5054229    0.0096365   -2.6250155  
C    0.0764511    0.0009967   -2.8495191  
H   -2.8919764   -0.0096338   -3.6205321  
H   -2.8035780   -0.0187023    0.5858645  
H    3.0835459    0.0108362   -0.6418796  
H    2.4359887    0.0097408   -3.5845903  
H    0.1304072    0.0018018   -3.9319082  
C   -6.4260389   -0.0257183   -4.5098949  
C   -7.5521987   -0.0295144   -3.7593424  
C   -7.0847699   -0.0267801   -2.3816621  
C   -5.6099337   -0.0213189   -2.4884927  
N   -5.2179277   -0.0205921   -3.7336114  
C   -4.7630180   -0.0172677   -1.3275436  
C   -5.3622243   -0.0182221   -0.1149905  
O   -4.6953486   -0.0148023    1.0517597  
C   -6.8482756   -0.0233185    0.0256712  
O   -7.3250620   -0.0240403    1.1605255  
C   -7.6953354   -0.0274557   -1.1803130  
H   -5.3902864   -0.0165612    1.7345560  
H   -8.7673997   -0.0309758   -1.0357616  
H   -6.3446258   -0.0261375   -5.5852301  
C   -9.4400154   -0.7423392   -5.2719671  
C   -8.9472575   -0.0350493   -4.2226791  
C  -10.0515594    0.7035010   -3.6570856  
C  -11.2365685    0.3660649   -4.4686769  
N  -10.7984733   -0.5142173   -5.4309999  
C  -12.4817737    0.8611904   -4.2541554  
C  -12.6671924    1.7884800   -3.1503940  
O  -13.7498669    2.2891953   -2.8758024  
C  -11.4260429    2.1601107   -2.2779005  
O  -11.5698565    2.9400380   -1.3460792  
C  -10.1347905    1.5615114   -2.6068342  
H  -13.3376296    0.6006594   -4.8612336  
H   -9.2804478    1.8238443   -1.9977326  
H   -8.9250036   -1.4108709   -5.9425774  
H  -11.3769306   -0.9288185   -6.1384889  
C    0.0000000    0.0000000    1.4700000  
C    1.0541688    0.0001722    2.3260392  
C    0.5103138    0.0000454    3.6635956  
C   -0.9576371   -0.0002459    3.5155732  
N   -1.2018458    0.0001392    2.1615969  
C   -1.8348311   -0.0008317    4.5510609  
C   -1.2972847   -0.0009736    5.9014604  
O   -2.0050672   -0.0014265    6.9001319  
C    0.2542623   -0.0004184    6.0817573  
O    0.7184670   -0.0002256    7.2139121  
C    1.0974552   -0.0000873    4.8889129  
H    2.0940752    0.0005483    2.0517982  
H   -2.9081052   -0.0011668    4.4207061  
H    2.1707277    0.0000911    5.0223670  
H   -2.1128194   -0.0014912    1.7406791  
