64

C    1.9332187   -2.1183845   -5.2802488  
C    1.0132699   -1.6573353   -4.3672340  
C    0.1425865   -0.7692370   -5.0656547  
C    0.5838243   -0.7278050   -6.4130662  
N    1.6739347   -1.5567569   -6.5085385  
C   -0.0442376    0.0493845   -7.3909742  
C   -1.1378300    0.7981578   -7.0016525  
O   -1.7886908    1.5745670   -7.9163010  
C   -1.5929067    0.7703229   -5.6618957  
O   -2.6929014    1.5705680   -5.4317595  
C   -0.9736297    0.0040464   -4.6965763  
H    0.9751833   -1.9269943   -3.3256840  
H    2.1939836   -1.7372803   -7.3481460  
H    0.2872453    0.0854199   -8.4195763  
H   -2.5110532    2.0070704   -7.4425941  
H   -2.9357434    1.4942923   -4.5039592  
C    3.4065276   -3.6691100   -3.9270685  
C    3.0549065   -3.0522595   -5.1053404  
C    3.9800254   -3.4922736   -6.0978846  
C    4.8805627   -4.3842530   -5.4612283  
N    4.5051338   -4.4676227   -4.1433811  
C    5.9291695   -5.0125485   -6.1397974  
C    6.0710934   -4.7355819   -7.4856519  
O    7.0779125   -5.3221895   -8.1964401  
C    5.1828642   -3.8481065   -8.1385329  
O    5.4559272   -3.6751174   -9.4797474  
C    4.1483287   -3.2277112   -7.4696730  
H    4.9537163   -5.0347946   -3.4469111  
H    6.6190111   -5.6932790   -5.6602900  
H    6.9977370   -4.9971059   -9.1026172  
H    4.8106692   -3.0619990   -9.8448937  
H    3.4840258   -2.5526221   -7.9963938  
H    2.9614569   -3.6015541   -2.9491589  
C    1.1188642    0.0008222   -0.8003808  
C    0.0000000    0.0000000    0.0000000  
C   -1.1323862    0.0008899   -0.8673528  
C   -0.6382663    0.0019679   -2.1969280  
N    0.7324016    0.0038481   -2.1202242  
C   -1.4770914    0.0027318   -3.3154808  
C   -2.8395473    0.0020945   -3.0876857  
O   -3.7039201    0.0024425   -4.1440349  
C   -3.3517868    0.0013931   -1.7684331  
O   -4.7300497    0.0012366   -1.7073121  
C   -2.5248543    0.0009123   -0.6644817  
H    1.3576314   -0.0056167   -2.9057046  
H   -4.5940032    0.0021826   -3.7685128  
H   -4.9934602    0.0007259   -0.7819913  
H   -2.9462577    0.0005603    0.3339659  
H    2.1619895    0.0009355   -0.5342068  
C    2.5128556    2.1077716    2.9199648  
C    1.9592212    1.6432552    4.0696553  
C    0.8915788    0.7479214    3.6910360  
C    0.8684491    0.7287414    2.2159470  
N    1.8754542    1.5738793    1.8102719  
C    0.0000000    0.0000000    1.4700000  
C   -0.9772830   -0.8200135    2.1664417  
O   -1.8021297   -1.5120829    1.5842315  
C   -0.9711318   -0.8147624    3.7284083  
O   -1.7894187   -1.5009653    4.3257297  
C    0.0140216    0.0115358    4.4216297  
H    2.2638494    1.8988021    5.0689105  
H    0.0117648    0.0094386    5.5031631  
H    3.3327358    2.7953732    2.7900019  
H    2.1123206    1.7707734    0.8551938  
