58

C    0.8353425   -0.7266722   -5.2248492  
C    0.5761920   -0.5101811   -6.5401620  
C   -0.5291476    0.4165999   -6.6044789  
C   -0.8953224    0.7245274   -5.2088117  
N   -0.0307344   -0.0004648   -4.4215605  
C   -1.8966021    1.5648462   -4.8441100  
C   -2.6650470    2.2088127   -5.8964105  
O   -3.5865954    2.9820601   -5.6702727  
C   -2.2947844    1.8970774   -7.3815134  
O   -2.9349086    2.4330965   -8.2760437  
C   -1.1946283    0.9742392   -7.6496156  
H    1.0994961   -0.9497146   -7.3705698  
H   -2.1488361    1.7771609   -3.8144446  
H    1.5860180   -1.3558036   -4.7747706  
C    3.2573671   -0.0002923   -1.5109378  
C    2.5379468   -0.0001709   -0.3591957  
C    1.1435045    0.0000331   -0.7338504  
C    1.1092613   -0.0000084   -2.2088481  
N    2.4227569    0.0001905   -2.6182610  
C   -0.0265528   -0.0002524   -2.9515665  
C   -1.3003030   -0.0002641   -2.2514988  
O   -2.3786778   -0.0004133   -2.8306435  
C   -1.2877722    0.0000311   -0.6895611  
O   -2.3539956    0.0003306   -0.0892041  
C    0.0000000    0.0000000    0.0000000  
H    2.9384092   -0.0000370    0.6389245  
H    4.3270397   -0.0004769   -1.6439440  
H    2.7280500   -0.0013408   -3.5742112  
C   -0.8545957    0.6882889   -9.0508690  
C    0.1133068   -0.1240131   -9.5482673  
C    0.0255353   -0.0510062  -10.9876423  
C   -1.0807555    0.8770909  -11.2902091  
N   -1.5725755    1.2897480  -10.0733619  
C   -1.4815863    1.2133700  -12.5423889  
C   -0.7764869    0.6215611  -13.6671701  
O   -1.0621756    0.8611401  -14.8330529  
C    0.3981612   -0.3642167  -13.3701024  
O    0.9989915   -0.8689087  -14.3090119  
C    0.7379213   -0.6488664  -11.9782009  
H    0.8092100   -0.7078691   -8.9725552  
H   -2.2954779    1.8963353  -12.7425112  
H    1.5526295   -1.3323136  -11.7810345  
H   -2.3342967    1.9308225   -9.9474570  
C    0.8175213    0.6860729    2.3021913  
C    0.0000000    0.0000000    1.4700000  
C   -0.8887526   -0.7456559    2.3478473  
C   -0.4549825   -0.3816753    3.7138435  
N    0.5448156    0.4573574    3.6934124  
C   -1.0945674   -0.9182058    4.8835240  
C   -2.1210866   -1.7789155    4.6970523  
O   -2.8083856   -2.3554314    5.6976972  
C   -2.5824069   -2.1655116    3.3310774  
O   -3.5227682   -2.9541547    3.2362962  
C   -1.9100805   -1.6015804    2.1470656  
H   -0.7567140   -0.6349833    5.8697035  
H   -3.4728268   -2.9124471    5.2533954  
H   -2.2742832   -1.9066565    1.1752040  
H    1.6189533    1.3585343    2.0405121  
