62

C    3.3003549    0.0005277   -1.4738979  
C    2.5232818    0.0003498   -2.6090742  
C    1.1623206   -0.0001318   -2.1820097  
C    1.1711888    0.0000584   -0.7636136  
N    2.4852303   -0.0014919   -0.3662352  
C    0.0000000    0.0000000    0.0000000  
C   -1.2020383    0.0000520   -0.6806483  
O   -2.3759247    0.0003494    0.0157743  
C   -1.2314650   -0.0005110   -2.0955506  
O   -2.5054387   -0.0008035   -2.6250181  
C   -0.0764514   -0.0007271   -2.8495192  
H    2.8036265    0.0088182    0.5858672  
H   -3.0835638    0.0000350   -0.6418812  
H   -2.4360039   -0.0011527   -3.5845922  
H   -0.1304089   -0.0013419   -3.9319085  
H    4.3715552    0.0004895   -1.3667127  
C    5.9339396   -2.1239631   -4.5697795  
C    5.0139152   -1.6613192   -3.6576490  
C    4.1430867   -0.7747004   -4.3577672  
C    4.5843189   -0.7357738   -5.7052559  
N    5.6745648   -1.5647288   -5.7991413  
C    3.9561309    0.0394408   -6.6846489  
C    2.8624156    0.7887789   -6.2967603  
O    2.2114282    1.5633306   -7.2128926  
C    2.4073422    0.7634327   -4.9569532  
O    1.3072166    1.5639368   -4.7283482  
C    3.0267440   -0.0008949   -3.9901693  
H    4.9758715   -1.9289914   -2.6155851  
H    4.2876080    0.0735629   -7.7133177  
H    1.4889949    1.9966213   -6.7400143  
H    1.0643865    1.4893958   -3.8004040  
H    6.7555157   -2.8075032   -4.4403779  
C    6.4360484   -1.8312721   -7.0279611  
C    7.5085603   -2.6416887   -7.1845550  
C    7.8593096   -2.5318715   -8.5921825  
C    6.8674615   -1.5881267   -9.1509014  
N    6.0306105   -1.1740106   -8.2386646  
C    6.8738588   -1.2100630  -10.5373039  
C    7.8279877   -1.7499470  -11.3294533  
O    7.9520779   -1.4860890  -12.6413305  
C    8.8431684   -2.7050028  -10.7951905  
O    9.6824304   -3.1574513  -11.5737471  
C    8.8156099   -3.0771584   -9.3694749  
H    8.0009291   -3.2400355   -6.4371394  
H    6.1368824   -0.5184384  -10.9186573  
H    8.7176620   -2.0153123  -12.9293517  
H    9.5683527   -3.7718331   -9.0215737  
C    0.0000000    0.0000000    1.4700000  
C    1.0541688    0.0001722    2.3260392  
C    0.5103138    0.0000454    3.6635956  
C   -0.9576371   -0.0002459    3.5155732  
N   -1.2018458    0.0001392    2.1615969  
C   -1.8348311   -0.0008317    4.5510609  
C   -1.2972847   -0.0009736    5.9014604  
O   -2.0050672   -0.0014265    6.9001319  
C    0.2542623   -0.0004184    6.0817573  
O    0.7184670   -0.0002256    7.2139121  
C    1.0974552   -0.0000873    4.8889129  
H    2.0940752    0.0005483    2.0517982  
H   -2.9081052   -0.0011668    4.4207061  
H    2.1707277    0.0000911    5.0223670  
H   -2.1128194   -0.0014912    1.7406791  
