58

C    2.1044105   -2.3579734   -7.1182874  
C    1.6748844   -1.0738462   -7.2212416  
C    2.5217602   -0.4232960   -8.1930540  
C    3.4867794   -1.4409846   -8.6511367  
N    3.1803883   -2.5912378   -7.9612580  
C    4.4581924   -1.2197564   -9.5726122  
C    4.5602096    0.1094399  -10.1517194  
O    5.4013730    0.4083654  -10.9892094  
C    3.5487718    1.2027471   -9.6811067  
O    3.6251191    2.3255843  -10.1613863  
C    2.5454559    0.8442811   -8.6817521  
H    5.1558997   -1.9801917   -9.8948753  
H    1.8487403    1.6069607   -8.3613893  
H    1.7255756   -3.1534752   -6.4973606  
H    3.6626936   -3.4660268   -8.0570353  
C    0.2653132   -0.7042850   -5.1440085  
C   -0.8287665    0.0000939   -4.7555305  
C   -1.2825957    0.7423470   -5.9078911  
C   -0.3566077    0.4102558   -7.0074599  
N    0.5584964   -0.4707815   -6.4790213  
C   -0.4467553    0.9099656   -8.2659782  
C   -1.5278137    1.8369015   -8.5569044  
O   -1.6939217    2.3415174   -9.6596606  
C   -2.5200360    2.2029120   -7.4074107  
O   -3.4339547    2.9824917   -7.6403699  
C   -2.3204910    1.5996618   -6.0920693  
H    0.2428630    0.6533153   -9.0581062  
H   -3.0119746    1.8581180   -5.3016419  
H    0.8822125   -1.3741501   -4.5672890  
C    1.0672569   -0.0000698   -0.8321910  
C    0.0000000    0.0000000    0.0000000  
C   -1.1601223   -0.0000736   -0.8778472  
C   -0.5938729   -0.0000768   -2.2438435  
N    0.7113367   -0.0001553   -2.2234123  
C   -1.4286985   -0.0001877   -3.4135239  
C   -2.7683113   -0.0006798   -3.2270524  
O   -3.6653902   -0.0008302   -4.2276970  
C   -3.3702024   -0.0010610   -1.8610774  
O   -4.5974910   -0.0013779   -1.7662963  
C   -2.4926825   -0.0008943   -0.6770658  
H   -4.5324245   -0.0012258   -3.7833954  
H   -2.9677772   -0.0012974    0.2947961  
H    2.1134391   -0.0000547   -0.5705119  
C    2.3971438    2.0127888    3.1728260  
C    1.9431056    1.6308205    1.9564670  
C    0.8496017    0.7127664    2.2356185  
C    0.7794028    0.6545384    3.7115134  
N    1.6840587    1.4146091    4.2663826  
C   -0.1885723   -0.1578550    4.3957118  
C   -1.0476298   -0.8789867    3.6398520  
O   -2.0015663   -1.6796266    4.1448486  
C   -1.0022026   -0.8410666    2.1483229  
O   -1.8147390   -1.5232959    1.5241687  
C    0.0000000    0.0000000    1.4700000  
H    2.3054237    1.9346118    0.9892483  
H   -0.2170646   -0.1815267    5.4753125  
H   -2.4487139   -2.0549881    3.3649027  
H    3.2048689    2.6911772    3.3971983  
