62

C    3.3003556    0.0005278   -1.4738969  
C    2.5232829    0.0003498   -2.6090736  
C    1.1623214   -0.0001319   -2.1820097  
C    1.1711891    0.0000583   -0.7636137  
N    2.4852304   -0.0014917   -0.3662349  
C    0.0000000    0.0000000    0.0000000  
C   -1.2020379    0.0000520   -0.6806491  
O   -2.3759246    0.0003493    0.0157727  
C   -1.2314644   -0.0005114   -2.0955516  
O   -2.5054374   -0.0008038   -2.6250197  
C   -0.0764500   -0.0007274   -2.8495198  
H    2.8036263    0.0088183    0.5858680  
H   -3.0835634    0.0000347   -0.6418833  
H   -2.4360026   -0.0011530   -3.5845937  
H   -0.1304071   -0.0013423   -3.9319090  
H    4.3715559    0.0004896   -1.3667114  
C    4.1182210   -0.7098244   -4.4345216  
C    4.3063944   -0.4605392   -5.7742659  
C    3.2826566    0.4475819   -6.1766054  
C    2.4931742    0.7193450   -5.0299630  
N    3.0267457   -0.0008949   -3.9901686  
C    1.3904705    1.5784645   -5.0572791  
C    1.0792543    2.1743282   -6.2640387  
O    0.0128541    3.0222361   -6.3468391  
C    1.8547116    1.9154236   -7.4192236  
O    1.4171383    2.5841561   -8.5437986  
C    2.9425287    1.0677818   -7.3930715  
H    5.0850042   -0.8823008   -6.3865374  
H    0.7846369    1.7896267   -4.1868896  
H   -0.0265938    3.3225737   -7.2641756  
H    1.9945726    2.3544006   -9.2782281  
H    4.6753602   -1.3383448   -3.7610850  
C    3.7224577    0.8247963   -8.6151878  
C    4.8081049    0.0311366   -8.7670250  
C    5.1742177    0.1605853  -10.1690608  
C    4.1759650    1.0961737  -10.7300869  
N    3.3224171    1.4889720   -9.8239118  
C    4.1937461    1.4887918  -12.1123394  
C    5.1648769    0.9706262  -12.8983065  
O    5.3010427    1.2499206  -14.2057827  
C    6.1869123    0.0243110  -12.3615642  
O    7.0417995   -0.4081805  -13.1344418  
C    6.1474173   -0.3631077  -10.9402027  
H    5.2998160   -0.5680651   -8.0198611  
H    3.4517388    2.1740033  -12.4955102  
H    6.0774329    0.7344975  -14.4898777  
H    6.9056342   -1.0507977  -10.5903180  
C    2.5128556    2.1077716    2.9199648  
C    1.9592212    1.6432552    4.0696553  
C    0.8915788    0.7479214    3.6910360  
C    0.8684491    0.7287414    2.2159470  
N    1.8754542    1.5738793    1.8102719  
C    0.0000000    0.0000000    1.4700000  
C   -0.9772830   -0.8200135    2.1664417  
O   -1.8021297   -1.5120829    1.5842315  
C   -0.9711318   -0.8147624    3.7284083  
O   -1.7894187   -1.5009653    4.3257297  
C    0.0140216    0.0115358    4.4216297  
H    2.2638494    1.8988021    5.0689105  
H    0.0117648    0.0094386    5.5031631  
H    3.3327358    2.7953732    2.7900019  
H    2.1123206    1.7707734    0.8551938  
