62

C    3.3041270    0.0001179   -1.5420432  
C    2.5845370   -0.0004779   -0.3695854  
C    1.2040009   -0.0000006   -0.7283591  
C    1.1422369    0.0006040   -2.1454372  
N    2.4348635    0.0026113   -2.6077467  
C   -0.0655189    0.0008801   -2.8497917  
C   -1.2321774    0.0002327   -2.1101396  
O   -2.4392820    0.0001150   -2.7472519  
C   -1.1911208   -0.0000006   -0.6955264  
O   -2.4371530   -0.0002319   -0.1032859  
C    0.0000000    0.0000000    0.0000000  
H    3.0031535   -0.0000660    0.6222579  
H    2.7054620   -0.0071094   -3.5745263  
H   -0.1193551    0.0014848   -3.9297474  
H   -3.1132992   -0.0000645   -2.0551781  
H   -2.3200280   -0.0004071    0.8516410  
C    6.7068650   -0.0034178    1.2828887  
C    7.7136024   -0.0021474    0.3453678  
C    7.0885452   -0.0007419   -0.9367794  
C    5.6872996   -0.0009460   -0.7166944  
N    5.4901252   -0.0045361    0.6418806  
C    4.7577218    0.0005131   -1.7610465  
C    5.2516914    0.0025163   -3.0510727  
O    4.3881525    0.0043532   -4.1081029  
C    6.6464196    0.0023767   -3.2909673  
O    6.9801786    0.0041006   -4.6296031  
C    7.5640502    0.0006645   -2.2611725  
H    8.7687015   -0.0033295    0.5592770  
H    4.5960834    0.0050497    1.0985850  
H    4.9330444    0.0052563   -4.9058229  
H    7.9393883    0.0039074   -4.7039033  
H    6.7604658   -0.0050604    2.3581023  
C   10.8208910   -2.1447818   -0.3175809  
C   11.8963691   -1.7367924   -1.0306519  
C   11.3603086   -0.8244023   -2.0289921  
C    9.9053260   -0.7977581   -1.7665059  
N    9.5831974   -1.5697552   -0.7643867  
C    9.0049382    0.0003328   -2.5522783  
C    9.5340748    0.7385595   -3.5544611  
O    8.8116924    1.5287919   -4.3667032  
C   10.9984164    0.7331511   -3.8440013  
O   11.4104127    1.4293790   -4.7717657  
C   11.9013307   -0.0938303   -3.0237740  
H   12.9262765   -2.0199403   -0.8957678  
H    9.4637503    1.9215413   -4.9747505  
H   12.9554633   -0.0700503   -3.2655788  
H   10.7973434   -2.8281456    0.5163451  
C    0.0000000    0.0000000    1.4700000  
C    1.0541688    0.0001722    2.3260392  
C    0.5103138    0.0000454    3.6635956  
C   -0.9576371   -0.0002459    3.5155732  
N   -1.2018458    0.0001392    2.1615969  
C   -1.8348311   -0.0008317    4.5510609  
C   -1.2972847   -0.0009736    5.9014604  
O   -2.0050672   -0.0014265    6.9001319  
C    0.2542623   -0.0004184    6.0817573  
O    0.7184670   -0.0002256    7.2139121  
C    1.0974552   -0.0000873    4.8889129  
H    2.0940752    0.0005483    2.0517982  
H   -2.9081052   -0.0011668    4.4207061  
H    2.1707277    0.0000911    5.0223670  
H   -2.1128194   -0.0014912    1.7406791  
