62

C    1.9074101   -2.1157065   -5.2171229  
C    1.7366746   -1.6153233   -6.4871361  
C    0.6103620   -0.7412452   -6.4423316  
C    0.1310739   -0.7480686   -5.1073554  
N    0.9400186   -1.5942805   -4.3903116  
C   -0.9736307    0.0040462   -4.6965764  
C   -1.6058314    0.7773675   -5.6507639  
O   -2.6892511    1.5315492   -5.3037404  
C   -1.1427651    0.7971174   -6.9879240  
O   -1.8787377    1.6162795   -7.8189836  
C   -0.0531734    0.0551806   -7.3939360  
H    2.3479761   -1.8521275   -7.3410847  
H    0.8493703   -1.7919001   -3.4101534  
H   -2.9736295    1.9867684   -6.1069649  
H   -1.5003174    1.5722378   -8.7024217  
H    2.6418342   -2.8044012   -4.8359684  
C    1.1188640    0.0008221   -0.8003812  
C    0.0000000    0.0000000    0.0000000  
C   -1.1323863    0.0008899   -0.8673529  
C   -0.6382668    0.0019679   -2.1969279  
N    0.7324010    0.0038481   -2.1202242  
C   -1.4770922    0.0027316   -3.3154806  
C   -2.8395480    0.0020942   -3.0876856  
O   -3.7039211    0.0024421   -4.1440339  
C   -3.3517872    0.0013929   -1.7684323  
O   -4.7300499    0.0012365   -1.7073114  
C   -2.5248544    0.0009122   -0.6644814  
H    1.3576308   -0.0056168   -2.9057049  
H   -4.5940044    0.0021827   -3.7685121  
H   -4.9934605    0.0007257   -0.7819900  
H   -2.9462578    0.0005602    0.3339670  
H    2.1619894    0.0009355   -0.5342074  
C    0.3964706    0.1029013   -8.7926654  
C    1.4342389   -0.5460541   -9.3808563  
C    1.4430885   -0.1534651  -10.7703282  
C    0.3173544    0.7841498  -10.9446597  
N   -0.2768070    0.8966446   -9.7088576  
C   -0.0113039    1.3812363  -12.1181908  
C    0.7975573    1.0801614  -13.2876485  
O    0.5822704    1.5672150  -14.3897979  
C    1.9945438    0.0897365  -13.1261332  
O    2.6824555   -0.1716056  -14.1037515  
C    2.2501933   -0.4904397  -11.8101199  
H    2.1156546   -1.2227035   -8.8966745  
H   -0.8410653    2.0661367  -12.2245680  
H    3.0809965   -1.1751187  -11.7066575  
H   -1.0751871    1.4689334   -9.5036189  
C    0.8175213    0.6860729    2.3021913  
C    0.0000000    0.0000000    1.4700000  
C   -0.8887526   -0.7456559    2.3478473  
C   -0.4549825   -0.3816753    3.7138435  
N    0.5448156    0.4573574    3.6934124  
C   -1.0945674   -0.9182058    4.8835240  
C   -2.1210866   -1.7789155    4.6970523  
O   -2.8083856   -2.3554314    5.6976972  
C   -2.5824069   -2.1655116    3.3310774  
O   -3.5227682   -2.9541547    3.2362962  
C   -1.9100805   -1.6015804    2.1470656  
H   -0.7567140   -0.6349833    5.8697035  
H   -3.4728268   -2.9124471    5.2533954  
H   -2.2742832   -1.9066565    1.1752040  
H    1.6189533    1.3585343    2.0405121  
