62

C    1.1188644    0.0008221   -0.8003803  
C    0.0000000    0.0000000    0.0000000  
C   -1.1323861    0.0008897   -0.8673528  
C   -0.6382656    0.0019677   -2.1969279  
N    0.7324021    0.0038481   -2.1202232  
C   -1.4770906    0.0027314   -3.3154809  
C   -2.8395466    0.0020937   -3.0876859  
O   -3.7039194    0.0024420   -4.1440356  
C   -3.3517866    0.0013925   -1.7684332  
O   -4.7300489    0.0012359   -1.7073127  
C   -2.5248544    0.0009119   -0.6644817  
H    1.3576319   -0.0056169   -2.9057036  
H   -4.5940025    0.0021821   -3.7685136  
H   -4.9934594    0.0007257   -0.7819926  
H   -2.9462580    0.0005599    0.3339654  
H    2.1619891    0.0009355   -0.5342062  
C    1.9333069   -2.1182742   -5.2802152  
C    1.0133392   -1.6572494   -4.3672080  
C    0.1426192   -0.7691972   -5.0656420  
C    0.5838560   -0.7277675   -6.4130547  
N    1.6740004   -1.5566761   -6.5085133  
C   -0.0442372    0.0493812   -7.3909745  
C   -1.1378606    0.7981155   -7.0016641  
O   -1.7887534    1.5744842   -7.9163248  
C   -1.5929370    0.7702827   -5.6619077  
O   -2.6929646    1.5704861   -5.4317836  
C   -0.9736286    0.0040459   -4.6965760  
H    0.9752628   -1.9268941   -3.3256537  
H    0.2872442    0.0854147   -8.4195773  
H   -2.5111337    2.0069652   -7.4426248  
H   -2.9358037    1.4942139   -4.5039822  
H    2.7547995   -2.8021592   -5.1521112  
C    2.9261274   -3.0239149   -8.1331342  
C    2.4354514   -1.8209803   -7.7378370  
C    2.8050125   -0.8617818   -8.7518381  
C    3.5565773   -1.6098715   -9.7776561  
N    3.5949703   -2.9146206   -9.3428627  
C    4.0788969   -1.0589932  -10.9025649  
C    3.8883076    0.3658398  -11.1171854  
O    4.3204487    0.9552126  -12.0991203  
C    3.0957145    1.1777504  -10.0436848  
O    2.9291729    2.3780522  -10.2133900  
C    2.5805172    0.4728197   -8.8725761  
H    4.6268415   -1.6256224  -11.6425634  
H    2.0326423    1.0421710   -8.1340663  
H    2.8555771   -3.9810293   -7.6423750  
H    4.0385999   -3.6713210   -9.8303512  
C    2.5128556    2.1077716    2.9199648  
C    1.9592212    1.6432552    4.0696553  
C    0.8915788    0.7479214    3.6910360  
C    0.8684491    0.7287414    2.2159470  
N    1.8754542    1.5738793    1.8102719  
C    0.0000000    0.0000000    1.4700000  
C   -0.9772830   -0.8200135    2.1664417  
O   -1.8021297   -1.5120829    1.5842315  
C   -0.9711318   -0.8147624    3.7284083  
O   -1.7894187   -1.5009653    4.3257297  
C    0.0140216    0.0115358    4.4216297  
H    2.2638494    1.8988021    5.0689105  
H    0.0117648    0.0094386    5.5031631  
H    3.3327358    2.7953732    2.7900019  
H    2.1123206    1.7707734    0.8551938  
