58

C    3.2798084    0.0005857   -1.4499650  
C    2.5571145    0.0005565   -2.5996555  
C    1.1637431    0.0001547   -2.2210362  
C    1.1336964   -0.0000201   -0.7459470  
N    2.4483511   -0.0001428   -0.3402722  
C    0.0000000    0.0000000    0.0000000  
C   -1.2757364   -0.0000188   -0.6964414  
O   -2.3524599   -0.0000641   -0.1142312  
C   -1.2676496   -0.0000874   -2.2584080  
O   -2.3355771   -0.0004102   -2.8557293  
C    0.0181558    0.0001758   -2.9516296  
H    2.9547349    0.0006075   -3.5989105  
H    0.0150787    0.0003317   -4.0331627  
H    2.7563626    0.0012824    0.6148060  
C    6.5739154    0.0018722   -4.3537893  
C    7.6280843    0.0019471   -3.4977501  
C    7.0842295    0.0017738   -2.1601936  
C    5.6162782    0.0015612   -2.3082161  
N    5.3720695    0.0020316   -3.6621922  
C    4.7390846    0.0009614   -1.2727282  
C    5.2766310    0.0007201    0.0776712  
O    4.5688487    0.0002470    1.0763428  
C    6.8281781    0.0011908    0.2579680  
O    7.2923833    0.0012996    1.3901228  
C    7.6713711    0.0015461   -0.9348765  
H    8.6679906    0.0022879   -3.7719914  
H    6.5739152    0.0019307   -5.4316990  
H    4.4610961    0.0004681   -4.0831100  
C   10.0286095    0.7067451   -1.4881631  
C    9.1301375    0.0017085   -0.7534890  
C    9.8814351   -0.7407202    0.2309839  
C   11.3014349   -0.4080154    0.0080530  
N   11.3226884    0.4735091   -1.0480495  
C   12.3317316   -0.9076840    0.7364243  
C   12.0213742   -1.8352197    1.8115480  
O   12.8790828   -2.3398498    2.5242787  
C   10.5243847   -2.2018858    2.0652899  
O   10.2508983   -2.9819736    2.9674697  
C    9.5020629   -1.5986182    1.2139512  
H   13.3663579   -0.6505786    0.5565500  
H    8.4679266   -1.8575303    1.3963007  
H    9.8542655    1.3769222   -2.3142118  
H   12.1505677    0.8856757   -1.4376419  
C    2.5128556    2.1077716    2.9199648  
C    1.9592212    1.6432552    4.0696553  
C    0.8915788    0.7479214    3.6910360  
C    0.8684491    0.7287414    2.2159470  
N    1.8754542    1.5738793    1.8102719  
C    0.0000000    0.0000000    1.4700000  
C   -0.9772830   -0.8200135    2.1664417  
O   -1.8021297   -1.5120829    1.5842315  
C   -0.9711318   -0.8147624    3.7284083  
O   -1.7894187   -1.5009653    4.3257297  
C    0.0140216    0.0115358    4.4216297  
H    2.2638494    1.8988021    5.0689105  
H    0.0117648    0.0094386    5.5031631  
H    3.3327358    2.7953732    2.7900019  
H    2.1123206    1.7707734    0.8551938  
