58

C    8.4453913   -3.2292369   -4.3801525  
C    7.2807489   -2.5471970   -4.2301387  
C    7.5576306   -1.1662458   -4.5481738  
C    8.9893083   -1.0991881   -4.8983073  
N    9.4696311   -2.3826644   -4.7763688  
C    9.6400850    0.0354612   -5.2599225  
C    8.8797524    1.2732783   -5.3072340  
O    9.3751397    2.3477114   -5.6210571  
C    7.3622576    1.2256685   -4.9401485  
O    6.7119252    2.2615423   -4.9761050  
C    6.7726139   -0.0573878   -4.5660651  
H    6.3356045   -2.9638925   -3.9306723  
H   10.6908395    0.0629149   -5.5130424  
H    8.6416586   -4.2790563   -4.2343839  
H   10.4176820   -2.6617877   -4.9505422  
C    4.2926942   -2.1403413   -1.5040812  
C    5.3604709   -1.7320208   -2.2284477  
C    4.8134481   -0.8208703   -3.2219620  
C    3.3612075   -0.7952320   -2.9446112  
N    3.0500070   -1.5667026   -1.9386405  
C    2.4521483    0.0014840   -3.7217481  
C    2.9703735    0.7393569   -4.7298757  
O    2.2390463    1.5283420   -5.5352975  
C    4.4316781    0.7349405   -5.0343914  
O    4.8335663    1.4307757   -5.9668722  
C    5.3436401   -0.0906363   -4.2228046  
H    6.3919441   -2.0142020   -2.1038949  
H    2.8845131    1.9211529   -6.1502981  
H    4.2782631   -2.8230632   -0.6694220  
C    0.0000000    0.0000000    0.0000000  
C    1.0662923   -0.0000101   -0.8334270  
C    0.4961873    0.0000065   -2.1718887  
C   -0.9663854   -0.0000848   -1.9540250  
N   -1.2632773   -0.0000083   -0.6828660  
C   -1.8985359   -0.0000514   -3.0477261  
C   -1.3925770    0.0004566   -4.3020547  
O   -2.1456378    0.0005414   -5.4151314  
C    0.0786240    0.0009326   -4.5545000  
O    0.4683767    0.0012591   -5.7221100  
C    1.0143171    0.0008444   -3.4159031  
H    2.1107200    0.0000633   -0.5721865  
H   -2.9622181   -0.0003268   -2.8593381  
H   -1.5042265    0.0009697   -6.1484419  
C    3.3321173   -0.0004715    2.8079335  
C    2.6974184   -0.0000116    4.0032312  
C    1.2800439    0.0002118    3.6752840  
C    1.2395035   -0.0000644    2.1971295  
N    2.4394063   -0.0005460    1.6831036  
C    0.0000000    0.0000000    1.4700000  
C   -1.1468701   -0.0000635    2.1869543  
O   -2.3742202   -0.0000073    1.6395491  
C   -1.1388768   -0.0001607    3.6796354  
O   -2.2206231   -0.0000905    4.2670412  
C    0.1454524   -0.0001816    4.4024240  
H    3.1367986    0.0000651    4.9860947  
H   -2.9844344   -0.0001026    2.3990168  
H    0.1083576   -0.0003682    5.4835595  
H    4.3940039   -0.0007619    2.6198634  
