58

C    6.7185694   -2.1068223    1.9359813  
C    7.6184277   -1.6428884    2.8410202  
C    8.5045233   -0.7490098    2.1334530  
C    8.0438126   -0.7300487    0.7319622  
N    6.9584875   -1.5739117    0.6785300  
C    8.6213016   -0.0025467   -0.2574580  
C    9.7736365    0.8162683    0.0804775  
O   10.3634455    1.5071765   -0.7399312  
C   10.2788317    0.8112249    1.5585027  
O   11.2483312    1.4964259    1.8548637  
C    9.5736930   -0.0136870    2.5363340  
H    7.6571736   -1.8979064    3.8850880  
H    9.9296636   -0.0114546    3.5576093  
H    5.9004631   -2.7933604    2.0817823  
H    6.4219562   -1.7706157   -0.1463872  
C    4.5679461   -0.0016854   -2.0086701  
C    5.6245801   -0.0018691   -1.1556757  
C    6.8197127   -0.0025277   -1.9659180  
C    6.3695112   -0.0026848   -3.3709478  
N    4.9943549   -0.0025530   -3.3281074  
C    7.1998322   -0.0028670   -4.4443873  
C    8.6325205   -0.0031374   -4.1995651  
O    9.4620789   -0.0033768   -5.0996406  
C    9.1316833   -0.0032294   -2.7194836  
O   10.3356445   -0.0037633   -2.5009908  
C    8.1403754   -0.0027345   -1.6465622  
H    5.5727011   -0.0017590   -0.0814681  
H    6.8490268   -0.0028498   -5.4670534  
H    4.3931139   -0.0010546   -4.1315712  
C    3.1301149   -0.0010311   -1.7028252  
C    2.5367768   -0.0002767   -0.4864665  
C    1.1089904    0.0001028   -0.7656183  
C    1.0177872   -0.0004148   -2.2415132  
N    2.1993578   -0.0011611   -2.7963820  
C   -0.2459209   -0.0002877   -2.9257118  
C   -1.3675319   -0.0000605   -2.1698524  
O   -2.6129313    0.0000867   -2.6748490  
C   -1.3083584    0.0000910   -0.6783232  
O   -2.3693261    0.0004206   -0.0541692  
C    0.0000000    0.0000000    0.0000000  
H    3.0096017   -0.0001007    0.4807525  
H   -0.2829630   -0.0004687   -4.0053125  
H   -3.1967441    0.0002094   -1.8949034  
C    0.8681109    0.7263879    2.2709268  
C    0.6127770    0.5096195    3.5869401  
C   -0.4920590   -0.4175482    3.6542670  
C   -0.8620974   -0.7254003    2.2596025  
N    0.0000000    0.0000000    1.4700000  
C   -1.8641242   -1.5660088    1.8976294  
C   -2.6293522   -2.2103885    2.9520183  
O   -3.5512764   -2.9839180    2.7283916  
C   -2.2549728   -1.8987399    4.4361073  
O   -2.8923672   -2.4351063    5.3323774  
C   -1.1543735   -0.9755647    4.7012123  
H    1.1382914    0.9492124    4.4159191  
H   -2.1192137   -1.7782617    0.8686553  
H   -0.9013378   -0.7652422    5.7314848  
H    1.6172880    1.3558399    1.8188057  
