58

C   -3.2798084   -0.0018605   -1.4499647  
C   -2.5571148   -0.0015504   -2.5996554  
C   -1.1637434   -0.0006070   -2.2210361  
C   -1.1336963   -0.0004206   -0.7459471  
N   -2.4483510   -0.0008089   -0.3402723  
C    0.0000000    0.0000000    0.0000000  
C    1.2757367    0.0005147   -0.6964425  
O    2.3524597    0.0009787   -0.1142323  
C    1.2676491    0.0005804   -2.2584088  
O    2.3355763    0.0013184   -2.8557306  
C   -0.0181567   -0.0001827   -2.9516299  
H   -2.9547354   -0.0017559   -3.5989102  
H   -0.0150793   -0.0003372   -4.0331635  
H   -2.7563618   -0.0023540    0.6148064  
C   -4.7390841   -0.0028037   -1.2727278  
C   -5.6949928   -0.0037645   -2.2307553  
C   -6.9549534   -0.0043842   -1.5034314  
C   -6.5623368   -0.0037653   -0.0777962  
N   -5.2646563   -0.0027573    0.0636666  
C   -7.5356703   -0.0040700    0.9794209  
C   -8.8418522   -0.0045639    0.6283871  
O   -9.8560134   -0.0048997    1.5101570  
C   -9.2698379   -0.0048238   -0.8016441  
O  -10.4759222   -0.0053984   -1.0477756  
C   -8.2523633   -0.0045465   -1.8677914  
H   -5.5615844   -0.0039309   -3.2990613  
H   -7.2204094   -0.0038095    2.0126295  
H  -10.6613089   -0.0051921    0.9618401  
C   -6.7482952   -2.1457843   -5.3520957  
C   -7.5963975   -1.7383450   -6.3248725  
C   -8.5173328   -0.8276188   -5.6623359  
C   -8.0669275   -0.8012359   -4.2541376  
N   -7.0302468   -1.5719394   -4.0662574  
C   -8.7293354   -0.0046641   -3.2582579  
C   -9.7930951    0.7323595   -3.6513817  
O  -10.5050056    1.5211129   -2.8285257  
C  -10.2715749    0.7271777   -5.0653096  
O  -11.2461838    1.4222578   -5.3520533  
C   -9.5752978   -0.0982340   -6.0682146  
H   -7.5969245   -2.0208488   -7.3637511  
H  -11.1936114    1.9132773   -3.3952547  
H   -9.9528655   -0.0743387   -7.0816762  
H   -5.9175182   -2.8279645   -5.4381925  
C    2.4951002    2.0940188    2.9809380  
C    1.9440701    1.6314916    1.8291961  
C    0.8759964    0.7350050    2.2038498  
C    0.8497377    0.7130254    3.6788474  
N    1.8560616    1.5571714    4.0882609  
C   -0.0205033   -0.0168748    4.4215661  
C   -0.9962600   -0.8356168    3.7214979  
O   -1.8224391   -1.5286685    4.3006425  
C   -0.9864710   -0.8277881    2.1595606  
O   -1.8030528   -1.5133726    1.5592035  
C    0.0000000    0.0000000    1.4700000  
H    2.2509283    1.8888011    0.8310761  
H   -0.0229599   -0.0187323    5.5027230  
H    3.3143982    2.7817323    3.1139444  
H    2.0889452    1.7545833    5.0442112  
