58

C   -8.4548682    1.1195078   -1.6741254  
C   -9.7602612    0.7865321   -1.5033880  
C   -9.8670535   -0.6336368   -1.7411918  
C   -8.5071166   -1.1041236   -2.0667734  
N   -7.6979663    0.0071290   -2.0094656  
C   -8.1872995   -2.3909956   -2.3555326  
C   -9.2536936   -3.3785328   -2.3451683  
O   -9.0672018   -4.5628635   -2.5919130  
C  -10.7015755   -2.9025453   -2.0032927  
O  -11.6076176   -3.7248686   -1.9917868  
C  -10.9223461   -1.4888859   -1.7088783  
H  -10.5574252    1.4590615   -1.2409993  
H   -7.1832713   -2.7152066   -2.5915967  
H  -11.9277043   -1.1674763   -1.4729237  
H   -7.9821526    2.0839759   -1.5833975  
C   -4.3359695    2.1064014   -0.0635822  
C   -5.5644951    1.6417184   -0.4083570  
C   -5.3776807    0.7467251   -1.5259089  
C   -3.9292260    0.7279265   -1.8059379  
N   -3.3543288    1.5729377   -0.8848850  
C   -3.3460097   -0.0004262   -2.7913647  
C   -4.2020391   -0.8203941   -3.6324363  
O   -3.7724542   -1.5121265   -4.5463637  
C   -5.7389978   -0.8155427   -3.3539785  
O   -6.4697263   -1.5017111   -4.0557404  
C   -6.2499650    0.0103536   -2.2628044  
H   -6.4953656    1.8969410    0.0659373  
H   -4.0651605    2.7938489    0.7212545  
H   -2.3726197    1.7700214   -0.8181561  
C    0.0000000    0.0000000    0.0000000  
C    1.0662919   -0.0000103   -0.8334272  
C    0.4961868    0.0000066   -2.1718889  
C   -0.9663860   -0.0000849   -1.9540248  
N   -1.2632775   -0.0000084   -0.6828659  
C   -1.8985364   -0.0000515   -3.0477258  
C   -1.3925778    0.0004567   -4.3020543  
O   -2.1456385    0.0005412   -5.4151314  
C    0.0786229    0.0009326   -4.5544999  
O    0.4683756    0.0012594   -5.7221104  
C    1.0143162    0.0008443   -3.4159034  
H    2.1107195    0.0000631   -0.5721869  
H   -1.5042277    0.0009692   -6.1484420  
H    2.0724151    0.0013151   -3.6409746  
C    3.2573670    0.0002920    2.9809380  
C    2.5379467    0.0001709    1.8291961  
C    1.1435042   -0.0000331    2.2038498  
C    1.1092607    0.0000083    3.6788474  
N    2.4227561   -0.0001909    4.0882609  
C   -0.0265533    0.0002524    4.4215661  
C   -1.3003036    0.0002640    3.7214979  
O   -2.3786784    0.0004133    4.3006425  
C   -1.2877726   -0.0000311    2.1595606  
O   -2.3539958   -0.0003306    1.5592035  
C    0.0000000    0.0000000    1.4700000  
H    2.9384090    0.0000368    0.8310761  
H   -0.0296291    0.0004086    5.5027230  
H    4.3270393    0.0004765    3.1139444  
H    2.7280493    0.0013407    5.0442112  
