58

C   -4.7161345    0.0009935   -1.6923229  
C   -5.6957082    0.0016034   -0.7518389  
C   -6.9559355    0.0017237   -1.4565820  
C   -6.6279105    0.0011005   -2.8950499  
N   -5.2541477    0.0010770   -2.9703220  
C   -7.5472459    0.0006151   -3.8933113  
C   -8.9536547    0.0009393   -3.5265020  
O   -9.8573594    0.0006108   -4.3521040  
C   -9.3240222    0.0018516   -2.0090593  
O  -10.5048043    0.0024379   -1.6881013  
C   -8.2443375    0.0020337   -1.0251223  
H   -5.5518795    0.0021138    0.3139595  
H   -7.2854533    0.0000315   -4.9422986  
H   -4.7240399   -0.0008468   -3.8223957  
C   -3.2573684    0.0006028   -1.5109361  
C   -2.5379475    0.0004131   -0.3591947  
C   -1.1435048    0.0000759   -0.7338492  
C   -1.1092620    0.0001140   -2.2088470  
N   -2.4227582    0.0000402   -2.6182595  
C    0.0265510    0.0002498   -2.9515662  
C    1.3003018    0.0001398   -2.2514987  
O    2.3786768    0.0001862   -2.8306439  
C    1.2877719   -0.0001540   -0.6895613  
O    2.3539954   -0.0005553   -0.0892049  
C    0.0000000    0.0000000    0.0000000  
H   -2.9384094    0.0003172    0.6389255  
H    0.0296270    0.0004056   -4.0327229  
H   -2.7280517    0.0016009   -3.5742098  
C   -6.5549496    2.0971158    2.4753103  
C   -6.8072049    1.6341588    1.2238659  
C   -7.9346333    0.7378698    1.3258742  
C   -8.3213215    0.7164748    2.7495332  
N   -7.4457872    1.5607362    3.3926135  
C   -9.3470567   -0.0130913    3.2567853  
C  -10.1217700   -0.8320650    2.3393780  
O  -11.0647214   -1.5248493    2.6988138  
C   -9.7297612   -0.8248546    0.8273984  
O  -10.3745470   -1.5106386    0.0455980  
C   -8.6043394    0.0026151    0.4001139  
H   -6.2652154    1.8910593    0.3311940  
H   -9.6142134   -0.0145210    4.3044186  
H   -5.7930760    2.7848441    2.8046563  
H   -7.4540784    1.7585155    4.3764132  
C    2.4951002    2.0940188    2.9809380  
C    1.9440701    1.6314916    1.8291961  
C    0.8759964    0.7350050    2.2038498  
C    0.8497377    0.7130254    3.6788474  
N    1.8560616    1.5571714    4.0882609  
C   -0.0205033   -0.0168748    4.4215661  
C   -0.9962600   -0.8356168    3.7214979  
O   -1.8224391   -1.5286685    4.3006425  
C   -0.9864710   -0.8277881    2.1595606  
O   -1.8030528   -1.5133726    1.5592035  
C    0.0000000    0.0000000    1.4700000  
H    2.2509283    1.8888011    0.8310761  
H   -0.0229599   -0.0187323    5.5027230  
H    3.3143982    2.7817323    3.1139444  
H    2.0889452    1.7545833    5.0442112  
