58

C    5.9718890   -2.1066115   -4.3836097  
C    5.8824616   -1.6421430   -5.6565381  
C    4.7503164   -0.7470249   -5.6994995  
C    4.1834492   -0.7279190   -4.3374836  
N    4.9692735   -1.5728898   -3.5882214  
C    3.1006054    0.0006263   -3.9654951  
C    2.4499043    0.8204921   -4.9739316  
O    1.4681175    1.5123811   -4.7379561  
C    3.0331141    0.8153160   -6.4229464  
O    2.4935217    1.5013959   -7.2804986  
C    4.2049175   -0.0107669   -6.7027952  
H    6.5349995   -1.8975862   -6.4723546  
H    4.6026868   -0.0086188   -7.7085283  
H    4.8362803   -1.7697856   -2.6132382  
C    7.9720579   -3.6404825   -4.4646543  
C    6.9454237   -3.0441299   -3.8055184  
C    6.9969783   -3.5072545   -2.4388825  
C    8.1460583   -4.4288889   -2.3552520  
N    8.6941941   -4.4663687   -3.6166134  
C    8.5309200   -5.0775346   -1.2270471  
C    7.7619657   -4.8531309   -0.0142456  
O    8.0286396   -5.3907782    1.0525815  
C    6.5408925   -3.8812846   -0.0798241  
O    5.8858004   -3.6847683    0.9348169  
C    6.2241594   -3.2403445   -1.3536875  
H    9.3770753   -5.7493482   -1.1871012  
H    5.3772655   -2.5686820   -1.3906233  
H    8.2617215   -3.5462805   -5.4986319  
H    9.4965773   -5.0084437   -3.8800185  
C    3.2798083    0.0005857   -1.4499652  
C    2.5571142    0.0005565   -2.5996556  
C    1.1637432    0.0001548   -2.2210361  
C    1.1336964   -0.0000200   -0.7459473  
N    2.4483512   -0.0001428   -0.3402723  
C    0.0000000    0.0000000    0.0000000  
C   -1.2757368   -0.0000186   -0.6964415  
O   -2.3524598   -0.0000639   -0.1142311  
C   -1.2676497   -0.0000872   -2.2584083  
O   -2.3355766   -0.0004101   -2.8557295  
C    0.0181558    0.0001758   -2.9516296  
H    0.0150788    0.0003319   -4.0331631  
H    4.3498547    0.0008612   -1.3200026  
H    2.7563626    0.0012823    0.6148059  
C    2.4951002    2.0940188    2.9809380  
C    1.9440701    1.6314916    1.8291961  
C    0.8759964    0.7350050    2.2038498  
C    0.8497377    0.7130254    3.6788474  
N    1.8560616    1.5571714    4.0882609  
C   -0.0205033   -0.0168748    4.4215661  
C   -0.9962600   -0.8356168    3.7214979  
O   -1.8224391   -1.5286685    4.3006425  
C   -0.9864710   -0.8277881    2.1595606  
O   -1.8030528   -1.5133726    1.5592035  
C    0.0000000    0.0000000    1.4700000  
H    2.2509283    1.8888011    0.8310761  
H   -0.0229599   -0.0187323    5.5027230  
H    3.3143982    2.7817323    3.1139444  
H    2.0889452    1.7545833    5.0442112  
