58

C    5.5868518    0.0001902   -1.0681562  
C    6.8043815    0.0013361   -1.6695678  
C    6.5701480    0.0005340   -3.0943378  
C    5.1058544   -0.0011564   -3.2749817  
N    4.5679461   -0.0016852   -2.0086700  
C    4.4796775   -0.0019121   -4.4789772  
C    5.3028522   -0.0012258   -5.6768582  
O    4.8337320   -0.0018782   -6.8074450  
C    6.8558126    0.0003102   -5.5091801  
O    7.5591489    0.0005923   -6.5104685  
C    7.4139945    0.0012962   -4.1592600  
H    7.7577676    0.0024169   -1.1719050  
H    3.4041778   -0.0030227   -4.5894716  
H    8.4901785    0.0025631   -4.0517884  
H    5.3482114    0.0003409   -0.0169951  
C    3.1301152   -0.0010311   -1.7028251  
C    2.5367770   -0.0002766   -0.4864665  
C    1.1089905    0.0001028   -0.7656183  
C    1.0177873   -0.0004148   -2.2415130  
N    2.1993580   -0.0011610   -2.7963820  
C   -0.2459208   -0.0002877   -2.9257119  
C   -1.3675318   -0.0000605   -2.1698523  
O   -2.6129310    0.0000866   -2.6748492  
C   -1.3083584    0.0000911   -0.6783232  
O   -2.3693259    0.0004206   -0.0541692  
C    0.0000000    0.0000000    0.0000000  
H    3.0096019   -0.0001007    0.4807529  
H   -3.1967440    0.0002093   -1.8949035  
C   -0.2963281   -0.0005339   -4.3948471  
C    0.7278665   -0.0010064   -5.2865314  
C    0.1384656   -0.0010227   -6.6046519  
C   -1.3235462   -0.0004881   -6.4063793  
N   -1.5211825   -0.0006101   -5.0448252  
C   -2.2357319    0.0000548   -7.4111785  
C   -1.7448078   -0.0001095   -8.7792167  
O   -2.4864189    0.0002815   -9.7530306  
C   -0.2003558   -0.0009258   -9.0126111  
O    0.2247535   -0.0013773  -10.1600176  
C    0.6832446   -0.0011826   -7.8493818  
H    1.7765651   -0.0014913   -5.0481107  
H   -3.3039046    0.0005714   -7.2440975  
H    1.7513098   -0.0015430   -8.0195609  
H   -2.4171865    0.0012263   -4.5929176  
C    0.8681109    0.7263879    2.2709268  
C    0.6127770    0.5096195    3.5869401  
C   -0.4920590   -0.4175482    3.6542670  
C   -0.8620974   -0.7254003    2.2596025  
N    0.0000000    0.0000000    1.4700000  
C   -1.8641242   -1.5660088    1.8976294  
C   -2.6293522   -2.2103885    2.9520183  
O   -3.5512764   -2.9839180    2.7283916  
C   -2.2549728   -1.8987399    4.4361073  
O   -2.8923672   -2.4351063    5.3323774  
C   -1.1543735   -0.9755647    4.7012123  
H    1.1382914    0.9492124    4.4159191  
H   -2.1192137   -1.7782617    0.8686553  
H   -0.9013378   -0.7652422    5.7314848  
H    1.6172880    1.3558399    1.8188057  
