58

C    0.2317300   -0.7258247   -5.1498279  
C    0.4809591   -0.5091333   -6.4670237  
C   -0.5210756    0.4175631   -6.9381876  
C   -1.3806572    0.7252227   -5.7791983  
N   -0.8712839    0.0001721   -4.7267107  
C   -2.4458539    1.5653935   -5.8134586  
C   -2.7672912    2.2094716   -7.0761451  
O   -3.7068844    2.9826010   -7.2093239  
C   -1.8706130    1.8980197   -8.3166171  
O   -2.1316904    2.4341350   -9.3851107  
C   -0.7496087    0.9753217   -8.1558962  
H   -3.0633888    1.7775121   -4.9517360  
H   -0.1335029    0.7651329   -9.0195851  
H    0.7609194   -1.3549671   -4.4526708  
C    1.0965511    0.0001360   -0.8010307  
C    0.0000000    0.0000000    0.0000000  
C   -1.1546563    0.0001472   -0.8669512  
C   -0.6372020    0.0003524   -2.2486281  
N    0.7342864    0.0007341   -2.1395017  
C   -1.4147750    0.0001359   -3.3608712  
C   -2.8576059   -0.0001041   -3.1854457  
O   -3.6427790   -0.0002484   -4.1244897  
C   -3.4275846   -0.0000720   -1.7311654  
O   -4.6406838    0.0000336   -1.5710045  
C   -2.4891871   -0.0001088   -0.6116736  
H   -2.8919120   -0.0002920    0.3920876  
H    2.1388268    0.0000666   -0.5261655  
H    1.3735862   -0.0006092   -2.9130266  
C    2.2156487   -4.5688922   -6.5421167  
C    1.4678761   -3.4706876   -6.2613007  
C    1.9455198   -2.4070987   -7.1130461  
C    3.0406926   -2.9798010   -7.9188990  
N    3.1545171   -4.2929671   -7.5245278  
C    3.7529035   -2.2923361   -8.8472596  
C    3.4186421   -0.8950571   -9.0672964  
O    4.0017438   -0.1908562   -9.8811726  
C    2.2624960   -0.2678268   -8.2248514  
O    1.9722924    0.9077434   -8.4011379  
C    1.5675394   -1.1096587   -7.2541779  
H    0.6725811   -3.4122844   -5.5396994  
H    4.5524024   -2.7313696   -9.4277426  
H    2.1599802   -5.5565187   -6.1138819  
H    3.8162058   -4.9502578   -7.8949105  
C    0.8175213    0.6860729    2.3021913  
C    0.0000000    0.0000000    1.4700000  
C   -0.8887526   -0.7456559    2.3478473  
C   -0.4549825   -0.3816753    3.7138435  
N    0.5448156    0.4573574    3.6934124  
C   -1.0945674   -0.9182058    4.8835240  
C   -2.1210866   -1.7789155    4.6970523  
O   -2.8083856   -2.3554314    5.6976972  
C   -2.5824069   -2.1655116    3.3310774  
O   -3.5227682   -2.9541547    3.2362962  
C   -1.9100805   -1.6015804    2.1470656  
H   -0.7567140   -0.6349833    5.8697035  
H   -3.4728268   -2.9124471    5.2533954  
H   -2.2742832   -1.9066565    1.1752040  
H    1.6189533    1.3585343    2.0405121  
