58

C    1.9999919   -2.1070893   -5.1447766  
C    1.9105667   -1.6426498   -6.4177158  
C    0.7784254   -0.7475275   -6.4606980  
C    0.2115581   -0.7283877   -5.0986827  
N    0.9973787   -1.5733448   -4.3494008  
C   -0.8712826    0.0001710   -4.7267111  
C   -1.5219798    0.8200163   -5.7351666  
O   -2.5037636    1.5119150   -5.4992073  
C   -0.9387700    0.8148042   -7.1841813  
O   -1.4783591    1.5008665   -8.0417493  
C    0.2330299   -0.0112904   -7.4640108  
H    2.5631034   -1.8981146   -7.2335263  
H    0.6307989   -0.0091673   -8.4697430  
H    0.8643844   -1.7702171   -3.3744131  
C    5.4481315   -4.2620061   -6.8661418  
C    4.3597990   -3.4714608   -6.6800066  
C    3.9768833   -3.6018167   -5.2939269  
C    4.9382548   -4.5398113   -4.6834172  
N    5.8035664   -4.9035000   -5.6893277  
C    4.9163792   -4.9247291   -3.3822389  
C    3.8764483   -4.3789154   -2.5259880  
O    3.7721751   -4.6640641   -1.3401894  
C    2.8475246   -3.3839755   -3.1514601  
O    1.9673379   -2.9181749   -2.4404312  
C    2.9735223   -3.0445984   -4.5666635  
H    3.8798873   -2.8662303   -7.4283332  
H    5.6310941   -5.6138901   -2.9542779  
H    6.0202996   -4.4301054   -7.7640596  
H    6.5757037   -5.5358020   -5.5842288  
C    1.0965514    0.0001359   -0.8010305  
C    0.0000000    0.0000000    0.0000000  
C   -1.1546563    0.0001470   -0.8669513  
C   -0.6372014    0.0003519   -2.2486282  
N    0.7342871    0.0007337   -2.1395014  
C   -1.4147739    0.0001352   -3.3608717  
C   -2.8576049   -0.0001048   -3.1854462  
O   -3.6427779   -0.0002494   -4.1244907  
C   -3.4275840   -0.0000725   -1.7311666  
O   -4.6406831    0.0000333   -1.5710060  
C   -2.4891867   -0.0001091   -0.6116744  
H   -2.8919122   -0.0002918    0.3920866  
H    2.1388272    0.0000663   -0.5261648  
H    1.3735872   -0.0006099   -2.9130262  
C    2.4951002    2.0940188    2.9809380  
C    1.9440701    1.6314916    1.8291961  
C    0.8759964    0.7350050    2.2038498  
C    0.8497377    0.7130254    3.6788474  
N    1.8560616    1.5571714    4.0882609  
C   -0.0205033   -0.0168748    4.4215661  
C   -0.9962600   -0.8356168    3.7214979  
O   -1.8224391   -1.5286685    4.3006425  
C   -0.9864710   -0.8277881    2.1595606  
O   -1.8030528   -1.5133726    1.5592035  
C    0.0000000    0.0000000    1.4700000  
H    2.2509283    1.8888011    0.8310761  
H   -0.0229599   -0.0187323    5.5027230  
H    3.3143982    2.7817323    3.1139444  
H    2.0889452    1.7545833    5.0442112  
