58

C    0.0000000    0.0000000    0.0000000  
C   -1.0136706    0.2893841   -0.8560391  
C   -0.4907197    0.1400518   -2.1935956  
C    0.9208231   -0.2629710   -2.0455730  
N    1.1557666   -0.3296010   -0.6915968  
C    1.7641971   -0.5041991   -3.0810610  
C    1.2472379   -0.3568554   -4.4314606  
O    1.9277370   -0.5514762   -5.4301318  
C   -0.2446204    0.0693557   -4.6117574  
O   -0.6909597    0.1968992   -5.7439121  
C   -1.0553676    0.3010103   -3.4189130  
H   -2.0135705    0.5750514   -0.5817983  
H    2.7961952   -0.7989813   -2.9507062  
H    2.0313373   -0.5811007   -0.2706791  
C   -3.8166141    3.1776521   -1.4277094  
C   -2.7065764    2.4644444   -1.7289246  
C   -3.0944300    1.6226532   -2.8502883  
C   -4.5103830    1.9664736   -3.1021780  
N   -4.9392044    2.8775002   -2.2714360  
C   -5.2707264    1.3406500   -4.1487484  
C   -4.6448670    0.4137748   -4.9093645  
O   -5.2326593   -0.2491146   -5.9198690  
C   -3.2166127    0.0453733   -4.6801673  
O   -2.7113061   -0.8067242   -5.4107943  
C   -2.4580912    0.7014661   -3.6003006  
H   -1.7434815    2.5046903   -1.2494412  
H   -6.3040147    1.6110781   -4.3102836  
H   -4.5380707   -0.8368615   -6.2680835  
C   -3.0670580    4.6141003    0.5252124  
C   -3.9860513    4.1854594   -0.3710562  
C   -5.1904175    4.9416456   -0.0641616  
C   -4.8093982    5.8028410    1.0759047  
N   -3.5658481    5.6152968    1.4257618  
C   -5.7380544    6.7158650    1.6834160  
C   -6.9903078    6.7665439    1.1748613  
O   -7.9586682    7.5719881    1.6434530  
C   -7.4051122    5.9103786    0.0246097  
O   -8.5611706    6.0088541   -0.3865492  
C   -6.4342206    4.9818107   -0.5812420  
H   -5.4325515    7.3331901    2.5155742  
H   -8.7318378    7.3829811    1.0816372  
H   -6.7738698    4.3789950   -1.4127953  
H   -2.0420466    4.2955446    0.6293615  
C    0.0000000    0.0000000    1.4700000  
C    1.0541688    0.0001722    2.3260392  
C    0.5103138    0.0000454    3.6635956  
C   -0.9576371   -0.0002459    3.5155732  
N   -1.2018458    0.0001392    2.1615969  
C   -1.8348311   -0.0008317    4.5510609  
C   -1.2972847   -0.0009736    5.9014604  
O   -2.0050672   -0.0014265    6.9001319  
C    0.2542623   -0.0004184    6.0817573  
O    0.7184670   -0.0002256    7.2139121  
C    1.0974552   -0.0000873    4.8889129  
H    2.0940752    0.0005483    2.0517982  
H   -2.9081052   -0.0011668    4.4207061  
H    2.1707277    0.0000911    5.0223670  
H   -2.1128194   -0.0014912    1.7406791  
