64

C   -3.3038943    0.0393370   -1.5420411  
C   -2.5843474    0.0313399   -0.3695838  
C   -1.2039152    0.0143778   -0.7283583  
C   -1.1421651    0.0130359   -2.1454367  
N   -2.4347232    0.0264641   -2.6077452  
C    0.0655010   -0.0016619   -2.8497915  
C    1.2320853   -0.0149458   -2.1101404  
O    2.4391044   -0.0292420   -2.7472531  
C    1.1910344   -0.0142223   -0.6955271  
O    2.4369807   -0.0288701   -0.1032874  
C    0.0000000    0.0000000    0.0000000  
H   -3.0029384    0.0359268    0.6222598  
H   -2.7051871    0.0394155   -3.5745251  
H    0.1193268   -0.0029094   -3.9297474  
H    3.1130763   -0.0371110   -2.0551801  
H    2.3198683   -0.0272965    0.8516397  
C   -6.7063457    0.0835041    1.2828929  
C   -7.7130270    0.0942555    0.3453726  
C   -7.0880317    0.0853864   -0.9367751  
C   -5.6868838    0.0688582   -0.7166909  
N   -5.4896795    0.0700935    0.6418842  
C   -4.7573902    0.0562992   -1.7610435  
C   -5.2513492    0.0601949   -3.0510692  
O   -4.3878951    0.0480467   -4.1081002  
C   -6.6459767    0.0769890   -3.2909630  
O   -6.9797335    0.0792507   -4.6295988  
C   -7.5635209    0.0896583   -2.2611677  
H   -4.5958156    0.0498325    1.0985879  
H   -4.9327588    0.0536503   -4.9058197  
H   -7.9388724    0.0908978   -4.7038985  
H   -8.6257132    0.1025875   -2.4757799  
H   -6.7599221    0.0857865    2.3581062  
C   -9.7583565    0.8408039    1.6360238  
C   -9.1535942    0.1130726    0.6374563  
C  -10.1851402   -0.6033018   -0.0387979  
C  -11.4086971   -0.2699698    0.5965956  
N  -11.1134153    0.6073370    1.6103799  
C  -12.6393331   -0.7946170    0.1903103  
C  -12.6347491   -1.6715040   -0.8770348  
O  -13.8085746   -2.2130256   -1.3150997  
C  -11.4241705   -2.0166223   -1.5237270  
O  -11.5854021   -2.9018896   -2.5695044  
C  -10.2097174   -1.4996384   -1.1232798  
H  -11.7839802    1.0259376    2.2293278  
H  -13.5753672   -0.5446639    0.6704834  
H  -13.5833956   -2.7889121   -2.0573352  
H  -10.7209270   -3.0824067   -2.9512111  
H   -9.2989074   -1.7826170   -1.6378927  
H   -9.3301530    1.5068150    2.3654279  
C    2.4951002    2.0940188    2.9809380  
C    1.9440701    1.6314916    1.8291961  
C    0.8759964    0.7350050    2.2038498  
C    0.8497377    0.7130254    3.6788474  
N    1.8560616    1.5571714    4.0882609  
C   -0.0205033   -0.0168748    4.4215661  
C   -0.9962600   -0.8356168    3.7214979  
O   -1.8224391   -1.5286685    4.3006425  
C   -0.9864710   -0.8277881    2.1595606  
O   -1.8030528   -1.5133726    1.5592035  
C    0.0000000    0.0000000    1.4700000  
H    2.2509283    1.8888011    0.8310761  
H   -0.0229599   -0.0187323    5.5027230  
H    3.3143982    2.7817323    3.1139444  
H    2.0889452    1.7545833    5.0442112  
