60

C    3.3041270    0.0001178   -1.5420432  
C    2.5845372   -0.0004779   -0.3695853  
C    1.2040007   -0.0000006   -0.7283591  
C    1.1422373    0.0006039   -2.1454374  
N    2.4348636    0.0026110   -2.6077466  
C   -0.0655186    0.0008800   -2.8497915  
C   -1.2321770    0.0002326   -2.1101397  
O   -2.4392818    0.0001149   -2.7472515  
C   -1.1911209   -0.0000006   -0.6955262  
O   -2.4371522   -0.0002319   -0.1032858  
C    0.0000000    0.0000000    0.0000000  
H    3.0031535   -0.0000661    0.6222580  
H    2.7054625   -0.0071097   -3.5745263  
H   -3.1132993   -0.0000646   -2.0551781  
H   -2.3200286   -0.0004070    0.8516413  
C    5.7183462    0.0008988   -0.7610764  
C    6.9697732    0.0035942   -1.2883311  
C    6.8214686    0.0054665   -2.7245894  
C    5.3706562    0.0036572   -2.9927892  
N    4.7577214    0.0005130   -1.7610465  
C    4.8178652    0.0050248   -4.2321942  
C    5.7114453    0.0082855   -5.3785093  
O    5.3110217    0.0096651   -6.5352118  
C    7.2515428    0.0099939   -5.1179311  
O    8.0137026    0.0124328   -6.0752019  
C    7.7277041    0.0085533   -3.7369455  
H    7.8915733    0.0040190   -0.7343470  
H    3.7509359    0.0037840   -4.4070375  
H    8.7954986    0.0099565   -3.5650785  
H    5.4170503   -0.0010550    0.2738664  
C    2.2783843   -2.0910258   -5.9524486  
C    1.7853120   -1.6292411   -4.7744375  
C    0.6997743   -0.7327361   -5.0949397  
C    0.6001061   -0.7099363   -6.5667877  
N    1.5849246   -1.5536734   -7.0262765  
C   -0.3061448    0.0202236   -7.2648426  
C   -1.2459588    0.8383997   -6.5165965  
O   -2.1000527    1.5316276   -7.0534948  
C   -1.1584133    0.8296993   -4.9570884  
O   -1.9441944    1.5148021   -4.3164303  
C   -0.1387086    0.0017020   -4.3179679  
H    2.1415240   -1.8870539   -3.7929799  
H   -0.3624284    0.0226852   -8.3445354  
H    3.0901474   -2.7785186   -6.1264724  
H    1.7699533   -1.7505092   -7.9927481  
C    2.5528530    2.1414826    2.8079335  
C    2.0663498    1.7338582    4.0032312  
C    0.9804344    0.8229586    3.6752840  
C    0.9495562    0.7966882    2.1971295  
N    1.8690446    1.5676019    1.6831036  
C    0.0000000    0.0000000    1.4700000  
C   -0.8785127   -0.7372425    2.1869543  
O   -1.8187535   -1.5261249    1.6395491  
C   -0.8723269   -0.7321790    3.6796354  
O   -1.7010379   -1.4274584    4.2670412  
C    0.1115397    0.0933559    4.4024240  
H    2.4028853    2.0163452    4.9860947  
H   -2.2861435   -1.9184361    2.3990168  
H    0.0832434    0.0693689    5.4835595  
H    3.3664920    2.8238276    2.6198634  
