58

C    7.6308972   -0.7059164   -4.5226990  
C    8.9787733   -0.7004035   -4.3575465  
C    9.4253755    0.6535380   -4.5860732  
C    8.2185421    1.4420277   -4.9001245  
N    7.1645721    0.5593762   -4.8456778  
C    8.2187404    2.7703784   -5.1779524  
C    9.4926112    3.4701461   -5.1671513  
O    9.5975029    4.6663778   -5.4044890  
C   10.7835046    2.6548873   -4.8373772  
O   11.8617853    3.2331886   -4.8256165  
C   10.6565227    1.2274677   -4.5541794  
H    9.5903942   -1.5481041   -4.1046891  
H    7.3221607    3.3300216   -5.4056653  
H   11.5550722    0.6702206   -4.3265643  
H    6.9390342   -1.5279088   -4.4358452  
C    3.4546603   -0.7051940   -2.8655879  
C    2.5562217   -0.0001543   -3.6003001  
C    3.3075553    0.7421849   -4.5848131  
C    4.7275393    0.4094242   -4.3618644  
N    4.7487509   -0.4720442   -3.3057142  
C    5.7578599    0.9090037   -5.0902629  
C    5.4475471    1.8364959   -6.1654369  
O    6.3052803    2.3410463   -6.8781952  
C    3.9505757    2.2032202   -6.4191985  
O    3.6771258    2.9832721   -7.3214208  
C    2.9282239    1.6000479   -5.5678277  
H    1.8941006    1.8589998   -5.7501908  
H    3.2802844   -1.3753180   -2.0395027  
H    5.5766095   -0.8842294   -2.9160992  
C    0.0000000    0.0000000    0.0000000  
C    1.0541688   -0.0001719   -0.8560391  
C    0.5103141   -0.0000449   -2.1935955  
C   -0.9576367    0.0002461   -2.0455733  
N   -1.2018459   -0.0001392   -0.6915970  
C   -1.8348306    0.0008319   -3.0810611  
C   -1.2972842    0.0009739   -4.4314605  
O   -2.0050664    0.0014267   -5.4301321  
C    0.2542628    0.0004190   -4.6117571  
O    0.7184677    0.0002263   -5.7439119  
C    1.0974556    0.0000880   -3.4189127  
H    2.0940752   -0.0005479   -0.5817978  
H   -2.9081050    0.0011669   -2.9507065  
H   -2.1128195    0.0014911   -0.2706793  
C    1.1319247   -0.0015655    2.2709268  
C    0.7969915   -0.0034943    3.5869401  
C   -0.6453339   -0.0035710    3.6542670  
C   -1.1266833   -0.0015433    2.2596025  
N    0.0000000    0.0000000    1.4700000  
C   -2.4346130   -0.0013964    1.8976294  
C   -3.4350110   -0.0031408    2.9520183  
O   -4.6384611   -0.0030974    2.7283916  
C   -2.9478959   -0.0050506    4.4361073  
O   -3.7809380   -0.0062218    5.3323774  
C   -1.5113823   -0.0053090    4.7012123  
H    1.4821238   -0.0045407    4.4159191  
H   -2.7664565   -0.0000232    0.8686553  
H   -1.1823530   -0.0068408    5.7314848  
H    2.1104316   -0.0009391    1.8188057  
