58

C   -0.7115680    0.5589648   -9.1464347  
C    0.2801611   -0.2739880   -9.5547704  
C    0.2678199   -0.2672156  -10.9985974  
C   -0.8201749    0.6445205  -11.4008355  
N   -1.3744939    1.1119037  -10.2315738  
C   -1.1546572    0.9224516  -12.6863625  
C   -0.3923490    0.2806184  -13.7444139  
O   -0.6164579    0.4660665  -14.9333984  
C    0.7641365   -0.6888970  -13.3414420  
O    1.4126937   -1.2353187  -14.2235189  
C    1.0303825   -0.9089255  -11.9220932  
H    0.9444118   -0.8298707   -8.9172921  
H   -1.9562627    1.5944109  -12.9598751  
H    1.8329571   -1.5815004  -11.6514634  
H   -2.1410853    1.7570456  -10.1751999  
C    0.8071496   -0.7052398   -5.2248756  
C   -0.0307352   -0.0004646   -4.4215603  
C   -0.9176979    0.7416308   -5.2860992  
C   -0.5250707    0.4090152   -6.6688504  
N    0.5261929   -0.4721445   -6.5625869  
C   -1.1240783    0.9084415   -7.7794666  
C   -2.2290973    1.8356034   -7.6010306  
O   -2.8333885    2.3399949   -8.5384326  
C   -2.6616045    2.2021688   -6.1455678  
O   -3.5904450    2.9819425   -5.9828763  
C   -1.9395300    1.5991862   -5.0280379  
H   -2.2453230    1.8580264   -4.0234404  
H    1.6063820   -1.3751333   -4.9521859  
H    1.0129012   -0.8841694   -7.3374394  
C    3.2573670   -0.0002920   -1.5109380  
C    2.5379468   -0.0001709   -0.3591961  
C    1.1435043    0.0000332   -0.7338500  
C    1.1092609   -0.0000082   -2.2088477  
N    2.4227562    0.0001909   -2.6182613  
C   -0.0265532   -0.0002522   -2.9515663  
C   -1.3003035   -0.0002639   -2.2514981  
O   -2.3786784   -0.0004131   -2.8306429  
C   -1.2877725    0.0000312   -0.6895608  
O   -2.3539958    0.0003307   -0.0892036  
C    0.0000000    0.0000000    0.0000000  
H    2.9384091   -0.0000369    0.6389239  
H    4.3270394   -0.0004765   -1.6439446  
H    2.7280494   -0.0013406   -3.5742113  
C    0.8400945    0.7047457    2.2710304  
C    0.0000000    0.0000000    1.4700000  
C   -0.8844236   -0.7423113    2.3369512  
C   -0.4878984   -0.4098547    3.7186280  
N    0.5629682    0.4714286    3.6095011  
C   -1.0836927   -0.9095027    4.8308716  
C   -2.1891196   -1.8367527    4.6554461  
O   -2.7906899   -2.3413415    5.5944904  
C   -2.6257283   -2.2031529    3.2011665  
O   -3.5549479   -2.9829990    3.0410059  
C   -1.9068976   -1.5999348    2.0816745  
H   -0.7774656   -0.6525820    5.8354244  
H   -2.2155208   -1.8586617    1.0779135  
H    1.6384792    1.3747609    1.9961646  
H    1.0518368    0.8833920    4.3830260  
