62

C    3.3041283    0.0001175   -1.5420408  
C    2.5845377   -0.0004781   -0.3695835  
C    1.2040014   -0.0000008   -0.7283582  
C    1.1422397    0.0006037   -2.1454366  
N    2.4348659    0.0026108   -2.6077451  
C   -0.0655161    0.0008798   -2.8497918  
C   -1.2321759    0.0002325   -2.1101407  
O   -2.4392793    0.0001148   -2.7472537  
C   -1.1911198   -0.0000007   -0.6955272  
O   -2.4371520   -0.0002319   -0.1032877  
C    0.0000000    0.0000000    0.0000000  
H    3.0031533   -0.0000663    0.6222602  
H    2.7054651   -0.0071100   -3.5745242  
H   -0.1193521    0.0014844   -3.9297473  
H   -3.1132976   -0.0000647   -2.0551805  
H   -2.3200292   -0.0004069    0.8516394  
C    6.9078740   -0.0012407    1.0804498  
C    5.6166933   -0.0005895    0.6749487  
C    5.6800161    0.0004031   -0.7784918  
C    7.1258522    0.0003164   -1.0885583  
N    7.8505616   -0.0007261   -0.0028393  
C    7.6141467    0.0011037   -2.4400963  
C    6.6996231    0.0015506   -3.4365807  
O    7.0134433    0.0023030   -4.7433163  
C    5.2335556    0.0012791   -3.1558579  
O    4.4583024    0.0018407   -4.1119974  
C    4.7577234    0.0005126   -1.7610430  
H    4.7307107   -0.0008518    1.2865944  
H    6.1552243    0.0024361   -5.2044164  
H    7.2868894   -0.0020581    2.0900639  
C   10.9707020   -2.1208886   -0.4934161  
C   11.9779033   -1.6210950   -1.2860187  
C   11.3673823   -0.7461653   -2.2327824  
C    9.9741509   -0.7518854   -1.9667010  
N    9.7673123   -1.5982870   -0.9058338  
C    9.0593767    0.0012713   -2.7088145  
C    9.5602215    0.7745194   -3.7380956  
O    8.7111711    1.5296917   -4.4942982  
C   10.9470964    0.7931766   -4.0192513  
O   11.2891927    1.6124113   -5.0752666  
C   11.8500893    0.0502119   -3.2877238  
H   13.0238453   -1.8588284   -1.1939241  
H    8.8770541   -1.7952884   -0.4855802  
H    9.2586075    1.9846672   -5.1474264  
H   12.2422805    1.5675945   -5.1986290  
H   12.9066109    0.0845693   -3.5265944  
H   11.0153351   -2.8099080    0.3325494  
C    2.4951002    2.0940188    2.9809380  
C    1.9440701    1.6314916    1.8291961  
C    0.8759964    0.7350050    2.2038498  
C    0.8497377    0.7130254    3.6788474  
N    1.8560616    1.5571714    4.0882609  
C   -0.0205033   -0.0168748    4.4215661  
C   -0.9962600   -0.8356168    3.7214979  
O   -1.8224391   -1.5286685    4.3006425  
C   -0.9864710   -0.8277881    2.1595606  
O   -1.8030528   -1.5133726    1.5592035  
C    0.0000000    0.0000000    1.4700000  
H    2.2509283    1.8888011    0.8310761  
H   -0.0229599   -0.0187323    5.5027230  
H    3.3143982    2.7817323    3.1139444  
H    2.0889452    1.7545833    5.0442112  
