58

C   -0.9538468    0.5409270   -0.8010306  
C    0.0000000    0.0000000    0.0000000  
C    1.0042464   -0.5698419   -0.8669517  
C    0.5540638   -0.3147048   -2.2486285  
N   -0.6390446    0.3616635   -2.1395014  
C    1.2305028   -0.6981749   -3.3608718  
C    2.4855946   -1.4098677   -3.1854466  
O    3.1686088   -1.7971507   -4.1244909  
C    2.9813457   -1.6911263   -1.7311670  
O    4.0364461   -2.2897682   -1.5710060  
C    2.1651465   -1.2280841   -0.6116749  
H    0.8828056   -0.5009694   -4.3654247  
H    2.5155269   -1.4266321    0.3920864  
H   -1.8603832    1.0552520   -0.5261648  
C   -3.0107563    4.0225972   -3.0543723  
C   -2.2213000    3.1343974   -2.4067308  
C   -2.0948745    2.0091930   -3.3202028  
C   -2.8933297    2.3975555   -4.5026693  
N   -3.4325527    3.5768464   -4.3526669  
C   -3.0231926    1.5396555   -5.6481953  
C   -2.3841207    0.3481177   -5.6141516  
O   -2.4184263   -0.5507714   -6.6125818  
C   -1.5704073   -0.0722371   -4.4354516  
O   -1.0162563   -1.1707410   -4.4732213  
C   -1.4526204    0.8254384   -3.2725976  
H   -1.7792643    3.2309067   -1.4298141  
H   -3.6132583    1.8488659   -6.4985606  
H   -1.8718692   -1.2929260   -6.2969313  
C   -3.1847954    5.9465856   -1.4090452  
C   -3.4627064    5.3410151   -2.5870219  
C   -4.3126906    6.2814628   -3.3008731  
C   -4.4494938    7.4318798   -2.3819552  
N   -3.7904432    7.2413516   -1.2713963  
C   -5.2264982    8.5911575   -2.7246293  
C   -5.8386791    8.6008987   -3.9306452  
O   -6.5948132    9.6168028   -4.3803570  
C   -5.7193951    7.4553671   -4.8802176  
O   -6.3037370    7.5324475   -5.9608763  
C   -4.9166793    6.2775783   -4.5055366  
H   -5.3094002    9.4173806   -2.0336934  
H   -6.8914767    9.3328983   -5.2638393  
H   -4.8551390    5.4687969   -5.2212982  
H   -2.5811829    5.5738282   -0.5968403  
C    2.4951002    2.0940188    2.9809380  
C    1.9440701    1.6314916    1.8291961  
C    0.8759964    0.7350050    2.2038498  
C    0.8497377    0.7130254    3.6788474  
N    1.8560616    1.5571714    4.0882609  
C   -0.0205033   -0.0168748    4.4215661  
C   -0.9962600   -0.8356168    3.7214979  
O   -1.8224391   -1.5286685    4.3006425  
C   -0.9864710   -0.8277881    2.1595606  
O   -1.8030528   -1.5133726    1.5592035  
C    0.0000000    0.0000000    1.4700000  
H    2.2509283    1.8888011    0.8310761  
H   -0.0229599   -0.0187323    5.5027230  
H    3.3143982    2.7817323    3.1139444  
H    2.0889452    1.7545833    5.0442112  
