60

C    3.3041271    0.0001182   -1.5420445  
C    2.5845370   -0.0004778   -0.3695866  
C    1.2040002   -0.0000004   -0.7283598  
C    1.1422367    0.0006046   -2.1454380  
N    2.4348633    0.0026117   -2.6077474  
C   -0.0655190    0.0008806   -2.8497922  
C   -1.2321773    0.0002330   -2.1101398  
O   -2.4392825    0.0001155   -2.7472516  
C   -1.1911212   -0.0000004   -0.6955263  
O   -2.4371525   -0.0002319   -0.1032860  
C    0.0000000    0.0000000    0.0000000  
H    3.0031539   -0.0000662    0.6222567  
H    2.7054620   -0.0071089   -3.5745272  
H   -3.1132993   -0.0000644   -2.0551784  
H   -2.3200277   -0.0004074    0.8516409  
H    4.3686615    0.0004080   -1.7024310  
C    0.6611968   -0.7016909   -5.1602644  
C   -0.1387094    0.0017028   -4.3179691  
C   -1.0659770    0.7435480   -5.1393558  
C   -0.7383890    0.4122907   -6.5392644  
N    0.3175287   -0.4679235   -6.4831343  
C   -1.3893445    0.9119203   -7.6201588  
C   -2.4856352    1.8378831   -7.3893452  
O   -3.1337411    2.3423499   -8.2969644  
C   -2.8496776    2.2030003   -5.9149068  
O   -3.7705855    2.9817573   -5.7082029  
C   -2.0753690    1.5999289   -4.8329627  
H   -2.3339032    1.8577623   -3.8149225  
H    1.4729766   -1.3710011   -4.9259002  
H    0.7677081   -0.8789282   -7.2802922  
C   -0.2143814   -2.8949199   -9.4669853  
C   -0.0484457   -2.4806983  -10.7495455  
C   -0.3435988   -1.0675589  -10.7770759  
C   -0.6976001   -0.6897378   -9.3955098  
N   -0.6003161   -1.8424831   -8.6507928  
C   -1.0411388    0.5638100   -9.0052482  
C   -1.0639553    1.6107019  -10.0132323  
O   -1.3603861    2.7713427   -9.7615520  
C   -0.6928408    1.2331170  -11.4827583  
O   -0.7088419    2.1060211  -12.3401056  
C   -0.3391315   -0.1523750  -11.7813448  
H    0.2468249   -3.0950206  -11.5814330  
H   -0.0832465   -0.4055383  -12.8012248  
H   -0.0874081   -3.8805223   -9.0494262  
H   -0.7798470   -1.9085999   -7.6656810  
C    0.8400945    0.7047457    2.2710304  
C    0.0000000    0.0000000    1.4700000  
C   -0.8844236   -0.7423113    2.3369512  
C   -0.4878984   -0.4098547    3.7186280  
N    0.5629682    0.4714286    3.6095011  
C   -1.0836927   -0.9095027    4.8308716  
C   -2.1891196   -1.8367527    4.6554461  
O   -2.7906899   -2.3413415    5.5944904  
C   -2.6257283   -2.2031529    3.2011665  
O   -3.5549479   -2.9829990    3.0410059  
C   -1.9068976   -1.5999348    2.0816745  
H   -0.7774656   -0.6525820    5.8354244  
H   -2.2155208   -1.8586617    1.0779135  
H    1.6384792    1.3747609    1.9961646  
H    1.0518368    0.8833920    4.3830260  
