58

C   -2.4827765    2.1086144   -1.5109393  
C   -1.9344689    1.6428641   -0.3591968  
C   -0.8716707    0.7401291   -0.7338500  
C   -0.8455409    0.7179951   -2.2088474  
N   -1.8468970    1.5680281   -2.6182616  
C    0.0204048   -0.0169962   -2.9515657  
C    0.9913432   -0.8414463   -2.2514966  
O    1.8134438   -1.5393313   -2.8306413  
C    0.9816000   -0.8335600   -0.6895596  
O    1.7941464   -1.5239205   -0.0892022  
C    0.0000000    0.0000000    0.0000000  
H   -2.2398128    1.9019692    0.6389226  
H    0.0228505   -0.0188682   -4.0327224  
H   -3.2980274    2.8011208   -1.6439460  
C   -2.9944360    5.2917968   -4.6950698  
C   -2.6271210    4.3716307   -3.7663887  
C   -2.5171246    3.1044899   -4.4498285  
C   -2.8528451    3.3637221   -5.8629388  
N   -3.1328596    4.7082299   -5.9452810  
C   -2.8638898    2.4183452   -6.8365122  
C   -2.5225473    1.0544606   -6.4679475  
O   -2.5040150    0.1319163   -7.2722293  
C   -2.1639332    0.7570748   -4.9770546  
O   -1.8751889   -0.3874979   -4.6548100  
C   -2.1863339    1.8592015   -4.0185833  
H   -2.4532652    4.5591049   -2.7217637  
H   -3.1129550    2.6295687   -7.8671732  
H   -3.3951886    5.1915314   -6.7847154  
C   -3.2418554    6.7309589   -4.5262591  
C   -3.1623732    7.4870190   -3.4010346  
C   -3.5028759    8.8388241   -3.7772224  
C   -3.7893291    8.8081123   -5.2242169  
N   -3.6128197    7.5016212   -5.6176822  
C   -4.1500725    9.8900442   -5.9597377  
C   -4.2635816   11.1702465   -5.2809655  
O   -4.5820993   12.2029746   -5.8557023  
C   -3.9645912   11.2260992   -3.7488783  
O   -4.0565874   12.2984071   -3.1666821  
C   -3.5848134    9.9927098   -3.0645020  
H   -2.8954769    7.1376586   -2.4195420  
H   -4.3559021    9.8459019   -7.0202070  
H   -3.3796566   10.0398571   -2.0036477  
H   -3.7365961    7.1601335   -6.5531569  
C    0.0000000    0.0000000    1.4700000  
C    1.0541688    0.0001722    2.3260392  
C    0.5103138    0.0000454    3.6635956  
C   -0.9576371   -0.0002459    3.5155732  
N   -1.2018458    0.0001392    2.1615969  
C   -1.8348311   -0.0008317    4.5510609  
C   -1.2972847   -0.0009736    5.9014604  
O   -2.0050672   -0.0014265    6.9001319  
C    0.2542623   -0.0004184    6.0817573  
O    0.7184670   -0.0002256    7.2139121  
C    1.0974552   -0.0000873    4.8889129  
H    2.0940752    0.0005483    2.0517982  
H   -2.9081052   -0.0011668    4.4207061  
H    2.1707277    0.0000911    5.0223670  
H   -2.1128194   -0.0014912    1.7406791  
