60

C    3.3041277    0.0001177   -1.5420422  
C    2.5845376   -0.0004780   -0.3695847  
C    1.2040008   -0.0000007   -0.7283587  
C    1.1422386    0.0006037   -2.1454370  
N    2.4348649    0.0026109   -2.6077461  
C   -0.0655170    0.0008800   -2.8497924  
C   -1.2321762    0.0002326   -2.1101400  
O   -2.4392810    0.0001149   -2.7472528  
C   -1.1911205   -0.0000007   -0.6955268  
O   -2.4371522   -0.0002319   -0.1032867  
C    0.0000000    0.0000000    0.0000000  
H    3.0031535   -0.0000662    0.6222589  
H    2.7054639   -0.0071098   -3.5745257  
H   -0.1193542    0.0014846   -3.9297471  
H   -3.1132985   -0.0000646   -2.0551793  
H   -2.3200288   -0.0004071    0.8516403  
C    6.6801371   -0.0033361    1.2661401  
C    7.7093289   -0.0019931    0.3802296  
C    7.1273481   -0.0004471   -0.9411831  
C    5.6642447   -0.0009742   -0.7511341  
N    5.4589564   -0.0031398    0.6092855  
C    4.7577228    0.0005128   -1.7610450  
C    5.2563305    0.0025579   -3.1263002  
O    4.5202061    0.0039398   -4.1042669  
C    6.8020705    0.0028972   -3.3510072  
O    7.2336245    0.0043059   -4.4960050  
C    7.6791171    0.0014556   -2.1828291  
H    8.7566702   -0.0022584    0.6245425  
H    8.7481218    0.0019067   -2.3470001  
H    4.5604254   -0.0024245    1.0561502  
C   10.0913910   -0.0058389    3.9773832  
C    9.4912234   -0.0071323    5.1903859  
C    8.0650289   -0.0071167    4.9032110  
C    7.9821248   -0.0055819    3.4268275  
N    9.1667965   -0.0049083    2.8786107  
C    6.7222835   -0.0051545    2.7355348  
C    5.5964407   -0.0066013    3.4850750  
O    4.3539005   -0.0063991    2.9730841  
C    5.6472274   -0.0085415    4.9769120  
O    4.5827676   -0.0096661    5.5950901  
C    6.9517518   -0.0089006    5.6625802  
H    9.9586021   -0.0080813    6.1602474  
H    3.7657121   -0.0076980    3.7497339  
H    6.9456693   -0.0104407    6.7443340  
H   11.1474482   -0.0054370    3.7589452  
C    2.5128556    2.1077716    2.9199648  
C    1.9592212    1.6432552    4.0696553  
C    0.8915788    0.7479214    3.6910360  
C    0.8684491    0.7287414    2.2159470  
N    1.8754542    1.5738793    1.8102719  
C    0.0000000    0.0000000    1.4700000  
C   -0.9772830   -0.8200135    2.1664417  
O   -1.8021297   -1.5120829    1.5842315  
C   -0.9711318   -0.8147624    3.7284083  
O   -1.7894187   -1.5009653    4.3257297  
C    0.0140216    0.0115358    4.4216297  
H    2.2638494    1.8988021    5.0689105  
H    0.0117648    0.0094386    5.5031631  
H    3.3327358    2.7953732    2.7900019  
H    2.1123206    1.7707734    0.8551938  
