58

C    3.2573669   -0.0002920   -1.5109381  
C    2.5379467   -0.0001711   -0.3591959  
C    1.1435042    0.0000331   -0.7338497  
C    1.1092607   -0.0000081   -2.2088471  
N    2.4227560    0.0001907   -2.6182608  
C   -0.0265533   -0.0002524   -2.9515661  
C   -1.3003036   -0.0002640   -2.2514977  
O   -2.3786787   -0.0004131   -2.8306425  
C   -1.2877726    0.0000311   -0.6895602  
O   -2.3539960    0.0003306   -0.0892029  
C    0.0000000    0.0000000    0.0000000  
H    2.9384089   -0.0000370    0.6389239  
H    4.3270393   -0.0004766   -1.6439442  
H    2.7280493   -0.0013408   -3.5742113  
C    2.5185217   -2.1418786   -5.7664421  
C    2.0285777   -1.7344768   -6.9604094  
C    0.9435060   -0.8236413   -6.6295056  
C    0.9168303   -0.7971604   -5.1512730  
N    1.8378567   -1.5679055   -4.6397538  
C   -0.0307354   -0.0004647   -4.4215603  
C   -0.9113601    0.7365842   -5.1361180  
O   -1.8501209    1.5254490   -4.5861544  
C   -0.9094202    0.7313055   -6.6288102  
O   -1.7398707    1.4264151   -7.2139561  
C    0.0724709   -0.0942327   -7.3542757  
H   -2.3197103    1.9176026   -5.3443459  
H    0.0410964   -0.0704048   -8.4353301  
H    3.3327626   -2.8241129   -5.5805892  
C    3.3988017   -5.5154580   -8.8816351  
C    2.9489538   -4.6372159   -7.9554020  
C    2.8590695   -3.3657219   -8.6566323  
C    3.3048436   -3.6673384  -10.0339112  
N    3.6224582   -4.9259432  -10.1718386  
C    3.3606088   -2.6567454  -11.0540477  
C    2.9876182   -1.4019623  -10.7138542  
O    2.9901133   -0.3615705  -11.5645123  
C    2.5326861   -1.0661533   -9.3323945  
O    2.2081317    0.0969664   -9.0935701  
C    2.4843050   -2.1203328   -8.3036624  
H    2.7078080   -4.8286029   -6.9237554  
H    3.6905481   -2.9052784  -12.0521872  
H    2.6761453    0.3930152  -11.0342502  
H    3.5985125   -6.5678753   -8.7571103  
C    2.4951002    2.0940188    2.9809380  
C    1.9440701    1.6314916    1.8291961  
C    0.8759964    0.7350050    2.2038498  
C    0.8497377    0.7130254    3.6788474  
N    1.8560616    1.5571714    4.0882609  
C   -0.0205033   -0.0168748    4.4215661  
C   -0.9962600   -0.8356168    3.7214979  
O   -1.8224391   -1.5286685    4.3006425  
C   -0.9864710   -0.8277881    2.1595606  
O   -1.8030528   -1.5133726    1.5592035  
C    0.0000000    0.0000000    1.4700000  
H    2.2509283    1.8888011    0.8310761  
H   -0.0229599   -0.0187323    5.5027230  
H    3.3143982    2.7817323    3.1139444  
H    2.0889452    1.7545833    5.0442112  
