58

C   -1.1319185    0.0039065   -0.8009265  
C   -0.7969986    0.0003587   -2.1169399  
C    0.6453096   -0.0066905   -2.1842666  
C    1.1266632   -0.0069899   -0.7896019  
N    0.0000000    0.0000000    0.0000000  
C    2.4345780   -0.0131657   -0.4276288  
C    3.4349559   -0.0197462   -1.4820178  
O    4.6383927   -0.0255204   -1.2583902  
C    2.9478379   -0.0193009   -2.9661066  
O    3.7808645   -0.0244992   -3.8623763  
C    1.5113395   -0.0126151   -3.2312122  
H    2.7664242   -0.0133968    0.6013454  
H    1.1823071   -0.0125561   -4.2614844  
H   -2.1104111    0.0092632   -0.3488058  
C   -1.7334723    0.0034555   -3.2500363  
C   -3.0863160    0.0092246   -3.2131614  
C   -3.4995527    0.0098873   -4.6080576  
C   -2.2334018    0.0040289   -5.3718712  
N   -1.1947562    0.0001597   -4.5811822  
C   -2.2116454    0.0028000   -6.8087468  
C   -3.4007218    0.0068339   -7.4532741  
O   -3.5293526    0.0062670   -8.7909942  
C   -4.6955553    0.0124132   -6.7106195  
O   -5.7398141    0.0160097   -7.3623332  
C   -4.6914412    0.0136155   -5.2368807  
H   -3.7249420    0.0125219   -2.3464303  
H   -4.4909183    0.0097917   -8.9476234  
H   -5.6504141    0.0175915   -4.7362963  
C    0.1756724   -0.7115919   -7.1965126  
C   -0.9326075   -0.0027996   -7.5332679  
C   -0.6112891    0.7372569   -8.7307263  
C    0.7850380    0.3990673   -9.0664185  
N    1.2045903   -0.4830452   -8.0975310  
C    1.4610940    0.8951842  -10.1334339  
C    0.7672426    1.8244119  -11.0095851  
O    1.2897713    2.3261364  -11.9962647  
C   -0.7118792    2.1968693  -10.6730138  
O   -1.3061767    2.9784264  -11.4032471  
C   -1.3340053    1.5970640   -9.4952856  
H    2.4850774    0.6340741  -10.3618841  
H   -2.3584730    1.8599801   -9.2693107  
H    0.3273996   -1.3815059   -6.3657998  
H    2.1169715   -0.8985343   -8.0530676  
C    2.5128556    2.1077716    2.9199648  
C    1.9592212    1.6432552    4.0696553  
C    0.8915788    0.7479214    3.6910360  
C    0.8684491    0.7287414    2.2159470  
N    1.8754542    1.5738793    1.8102719  
C    0.0000000    0.0000000    1.4700000  
C   -0.9772830   -0.8200135    2.1664417  
O   -1.8021297   -1.5120829    1.5842315  
C   -0.9711318   -0.8147624    3.7284083  
O   -1.7894187   -1.5009653    4.3257297  
C    0.0140216    0.0115358    4.4216297  
H    2.2638494    1.8988021    5.0689105  
H    0.0117648    0.0094386    5.5031631  
H    3.3327358    2.7953732    2.7900019  
H    2.1123206    1.7707734    0.8551938  
