60

C    0.0000000    0.0000000    0.0000000  
C    1.0521660   -0.0011919   -0.8862347  
C    0.4917215   -0.0011967   -2.1979136  
C   -0.9187431    0.0003157   -2.0478686  
N   -1.1833172   -0.0009396   -0.7007912  
C   -1.7951706    0.0010371   -3.1372093  
C   -1.2375843    0.0005236   -4.4010428  
O   -2.0474223    0.0015382   -5.4997578  
C    0.1673573   -0.0013574   -4.5711966  
O    0.5673515   -0.0020702   -5.8915554  
C    1.0325762   -0.0023431   -3.4969895  
H    2.0953057   -0.0030682   -0.6200570  
H   -2.0989778    0.0102402   -0.2891823  
H   -1.4634894    0.0006514   -6.2693594  
H    1.5290704   -0.0033182   -5.9180050  
H    2.1042146   -0.0039645   -3.6584464  
C   -3.9676850    0.7292856   -2.0471637  
C   -5.3027880    0.5138202   -2.1702453  
C   -5.4806696   -0.4129569   -3.2630754  
C   -4.1300726   -0.7219999   -3.7701951  
N   -3.2578659    0.0024081   -2.9908507  
C   -3.8704682   -1.5626489   -4.8034521  
C   -4.9964232   -2.2058184   -5.4600293  
O   -4.8664385   -2.9792829   -6.3997937  
C   -6.4355646   -1.8928967   -4.9396857  
O   -7.3913557   -2.4282380   -5.4847856  
C   -6.5888890   -0.9698005   -3.8179739  
H   -6.0749051    0.9540305   -1.5647171  
H   -2.8722083   -1.7757859   -5.1597653  
H   -3.4426173    1.3580936   -1.3465964  
C   -7.9477362   -0.6827314   -3.3362841  
C   -8.3427799    0.1300035   -2.3226384  
C   -9.7836335    0.0581277   -2.2625559  
C  -10.1986102   -0.8697781   -3.3319375  
N   -9.0388402   -1.2834149   -3.9457189  
C  -11.4855129   -1.2050873   -3.6024045  
C  -12.5317224   -0.6123618   -2.7859128  
O  -13.7209175   -0.8510341   -2.9506913  
C  -12.1151716    0.3732318   -1.6479778  
O  -12.9872301    0.8786892   -0.9542294  
C  -10.6955753    0.6567986   -1.4525611  
H   -7.6983828    0.7134356   -1.6894139  
H  -11.7684542   -1.8879292   -4.3914425  
H  -10.4154903    1.3401248   -0.6624079  
H   -8.9920934   -1.9246209   -4.7162490  
C    3.2573670    0.0002920    2.9809380  
C    2.5379467    0.0001709    1.8291961  
C    1.1435042   -0.0000331    2.2038498  
C    1.1092607    0.0000083    3.6788474  
N    2.4227561   -0.0001909    4.0882609  
C   -0.0265533    0.0002524    4.4215661  
C   -1.3003036    0.0002640    3.7214979  
O   -2.3786784    0.0004133    4.3006425  
C   -1.2877726   -0.0000311    2.1595606  
O   -2.3539958   -0.0003306    1.5592035  
C    0.0000000    0.0000000    1.4700000  
H    2.9384090    0.0000368    0.8310761  
H   -0.0296291    0.0004086    5.5027230  
H    4.3270393    0.0004765    3.1139444  
H    2.7280493    0.0013407    5.0442112  
