58

C    6.7792935   -0.0052816   -4.6309910  
C    7.7875445   -0.6803650   -4.0212635  
C    9.0068631   -0.3278289   -4.7096072  
C    8.6235834    0.6147566   -5.7779796  
N    7.2600869    0.7680761   -5.6766942  
C    9.4934567    1.1809964   -6.6522784  
C   10.9011040    0.8391016   -6.5332238  
O   11.7624995    1.2963566   -7.2729631  
C   11.3294879   -0.1572947   -5.4091749  
O   12.5117959   -0.4528648   -5.2994185  
C   10.3002790   -0.7018777   -4.5271267  
H    7.6884007   -1.3491292   -3.1848799  
H    9.1916073    1.8701974   -7.4286799  
H   10.6051793   -1.3909498   -3.7512794  
H    6.7007134    1.3533509   -6.2696547  
C    4.3939400   -2.1065676   -1.5664974  
C    5.4031205   -1.6413502   -2.3470118  
C    4.8103418   -0.7457943   -3.3121169  
C    3.3627144   -0.7272476   -3.0278283  
N    3.1757280   -1.5729271   -1.9588322  
C    2.4521483    0.0014840   -3.7217481  
C    2.9297304    0.8221547   -4.8221796  
O    2.1884031    1.5142697   -5.5075343  
C    4.4587975    0.8175808   -5.1411450  
O    4.8725561    1.5043398   -6.0654965  
C    5.3421068   -0.0087728   -4.3221482  
H    6.4439782   -1.8965728   -2.2570667  
H    4.4376450   -2.7945229   -0.7378252  
H    2.2909014   -1.7703225   -1.5285253  
C    0.0000000    0.0000000    0.0000000  
C    1.0662923   -0.0000101   -0.8334270  
C    0.4961873    0.0000065   -2.1718887  
C   -0.9663854   -0.0000848   -1.9540250  
N   -1.2632773   -0.0000083   -0.6828660  
C   -1.8985359   -0.0000514   -3.0477261  
C   -1.3925770    0.0004566   -4.3020547  
O   -2.1456378    0.0005414   -5.4151314  
C    0.0786240    0.0009326   -4.5545000  
O    0.4683767    0.0012591   -5.7221100  
C    1.0143171    0.0008444   -3.4159031  
H    2.1107200    0.0000633   -0.5721865  
H   -2.9622181   -0.0003268   -2.8593381  
H   -1.5042265    0.0009697   -6.1484419  
C    3.2573670    0.0002920    2.9809380  
C    2.5379467    0.0001709    1.8291961  
C    1.1435042   -0.0000331    2.2038498  
C    1.1092607    0.0000083    3.6788474  
N    2.4227561   -0.0001909    4.0882609  
C   -0.0265533    0.0002524    4.4215661  
C   -1.3003036    0.0002640    3.7214979  
O   -2.3786784    0.0004133    4.3006425  
C   -1.2877726   -0.0000311    2.1595606  
O   -2.3539958   -0.0003306    1.5592035  
C    0.0000000    0.0000000    1.4700000  
H    2.9384090    0.0000368    0.8310761  
H   -0.0296291    0.0004086    5.5027230  
H    4.3270393    0.0004765    3.1139444  
H    2.7280493    0.0013407    5.0442112  
