58

C   -0.6356701    2.1049602   -5.7032696  
C   -1.6164010    1.6398718   -6.5193178  
C   -0.9895334    0.7448568   -7.4631509  
C    0.4470932    0.7264871   -7.1276548  
N    0.5958217    1.5717421   -6.0523349  
C    1.3818831   -0.0017551   -7.7891202  
C    0.9438523   -0.8220482   -8.9061630  
O    1.7091980   -1.5137125   -9.5650607  
C   -0.5729281   -0.8176532   -9.2792100  
O   -0.9534561   -1.5040977  -10.2179607  
C   -1.4849410    0.0081627   -8.4917377  
H   -2.6598524    1.8948395   -6.4662740  
H   -2.5336016    0.0054733   -8.7563635  
H   -0.7089195    2.7925473   -4.8763789  
H    1.4647698    1.7691346   -5.5908020  
C    3.2973507   -0.0000930   -3.8752373  
C    4.6109361    0.0001678   -4.2009260  
C    4.6367192   -0.0000873   -5.6555166  
C    3.2125792   -0.0006166   -6.0535230  
N    2.4227566   -0.0005416   -5.0142111  
C    2.8079495   -0.0009501   -7.4324213  
C    3.7817669   -0.0003744   -8.3710449  
O    3.5485413   -0.0006026   -9.6945429  
C    5.2278970    0.0005395   -8.0010886  
O    6.0602352    0.0009039   -8.9079698  
C    5.6174380    0.0008223   -6.5797569  
H    5.4578082    0.0005835   -3.5361832  
H    4.4333802   -0.0000281  -10.1022326  
H    6.6752631    0.0016050   -6.3534027  
C    3.3321175    0.0004715   -1.3379331  
C    2.6974186    0.0000117   -2.5332308  
C    1.2800441   -0.0002117   -2.2052838  
C    1.2395036    0.0000644   -0.7271292  
N    2.4394065    0.0005460   -0.2131033  
C    0.0000000    0.0000000    0.0000000  
C   -1.1468701    0.0000635   -0.7169542  
O   -2.3742199    0.0000073   -0.1695491  
C   -1.1388766    0.0001607   -2.2096354  
O   -2.2206227    0.0000905   -2.7970412  
C    0.1454526    0.0001817   -2.9324239  
H   -2.9844344    0.0001026   -0.9290168  
H    0.1083579    0.0003683   -4.0135594  
H    4.3940038    0.0007619   -1.1498630  
C    2.5128556    2.1077716    2.9199648  
C    1.9592212    1.6432552    4.0696553  
C    0.8915788    0.7479214    3.6910360  
C    0.8684491    0.7287414    2.2159470  
N    1.8754542    1.5738793    1.8102719  
C    0.0000000    0.0000000    1.4700000  
C   -0.9772830   -0.8200135    2.1664417  
O   -1.8021297   -1.5120829    1.5842315  
C   -0.9711318   -0.8147624    3.7284083  
O   -1.7894187   -1.5009653    4.3257297  
C    0.0140216    0.0115358    4.4216297  
H    2.2638494    1.8988021    5.0689105  
H    0.0117648    0.0094386    5.5031631  
H    3.3327358    2.7953732    2.7900019  
H    2.1123206    1.7707734    0.8551938  
