58

C   -8.4608846    1.0918126   -1.7097160  
C   -9.7663241    0.7590701   -1.5388745  
C   -9.8731313   -0.6613430   -1.7752100  
C   -8.5131519   -1.1322269   -2.1000435  
N   -7.7039669   -0.0209482   -2.0437484  
C   -8.1933341   -2.4194138   -2.3873940  
C   -9.2597713   -3.4068960   -2.3761956  
O   -9.0732819   -4.5914918   -2.6216636  
C  -10.7076976   -2.9304903   -2.0350899  
O  -11.6137762   -3.7527638   -2.0228925  
C  -10.9284649   -1.5165143   -1.7421983  
H  -10.5635087    1.4319067   -1.2773403  
H   -7.1892752   -2.7439133   -2.6229297  
H  -11.9338543   -1.1948161   -1.5067691  
H   -7.9881463    2.0563556   -1.6199100  
C   -4.3991018    2.0926374   -0.0704357  
C   -3.3610091    1.6305297   -0.8140045  
C   -3.9159994    0.7341916   -1.8006143  
C   -5.3729686    0.7118419   -1.5692436  
N   -5.6007885    1.5556536   -0.5067139  
C   -6.2559170   -0.0180488   -2.2968188  
C   -5.7365716   -0.8363894   -3.3799320  
O   -6.4507770   -1.5293999   -4.0926369  
C   -4.1968644   -0.8281649   -3.6426855  
O   -3.7479707   -1.5134097   -4.5516379  
C   -3.3460097   -0.0004262   -2.7913647  
H   -2.3247243    1.8880237   -0.6858470  
H   -4.3873336    2.7801298    0.7596880  
H   -6.5015168    1.7527688   -0.1106326  
C    0.0000000    0.0000000    0.0000000  
C    1.0662919   -0.0000103   -0.8334272  
C    0.4961868    0.0000066   -2.1718889  
C   -0.9663860   -0.0000849   -1.9540248  
N   -1.2632775   -0.0000084   -0.6828659  
C   -1.8985364   -0.0000515   -3.0477258  
C   -1.3925778    0.0004567   -4.3020543  
O   -2.1456385    0.0005412   -5.4151314  
C    0.0786229    0.0009326   -4.5544999  
O    0.4683756    0.0012594   -5.7221104  
C    1.0143162    0.0008443   -3.4159034  
H    2.1107195    0.0000631   -0.5721869  
H   -1.5042277    0.0009692   -6.1484420  
H    2.0724151    0.0013151   -3.6409746  
C    3.2573670    0.0002920    2.9809380  
C    2.5379467    0.0001709    1.8291961  
C    1.1435042   -0.0000331    2.2038498  
C    1.1092607    0.0000083    3.6788474  
N    2.4227561   -0.0001909    4.0882609  
C   -0.0265533    0.0002524    4.4215661  
C   -1.3003036    0.0002640    3.7214979  
O   -2.3786784    0.0004133    4.3006425  
C   -1.2877726   -0.0000311    2.1595606  
O   -2.3539958   -0.0003306    1.5592035  
C    0.0000000    0.0000000    1.4700000  
H    2.9384090    0.0000368    0.8310761  
H   -0.0296291    0.0004086    5.5027230  
H    4.3270393    0.0004765    3.1139444  
H    2.7280493    0.0013407    5.0442112  
