58

C    4.2034619   -0.7255630   -4.3886927  
C    4.4527379   -0.5087793   -5.7058645  
C    3.4509044    0.4181871   -6.1769256  
C    2.5913896    0.7259047   -5.0179021  
N    3.1006054    0.0006263   -3.9654951  
C    1.5263756    1.5663104   -5.0520689  
C    1.2050779    2.2105989   -6.3146835  
O    0.2656528    2.9839469   -6.4477763  
C    2.1016889    1.8990899   -7.5551901  
O    1.8407280    2.4353806   -8.6236246  
C    3.2224926    0.9761311   -7.3945730  
H    0.9088868    1.7784673   -4.1903228  
H    3.8385525    0.7659042   -8.2582842  
H    4.7325143   -1.3548978   -3.6916057  
C    5.9699837   -2.4235399   -6.3914457  
C    6.9918847   -2.6686538   -7.2515107  
C    7.2483557   -1.4381903   -7.9621567  
C    6.2852188   -0.4490264   -7.4418559  
N    5.5391879   -1.1094532   -6.4930854  
C    6.2049978    0.8395823   -7.8598944  
C    7.1287654    1.2817236   -8.8912530  
O    7.1358918    2.4227044   -9.3344367  
C    8.1570901    0.2509584   -9.4568294  
O    8.9396385    0.6115933  -10.3256336  
C    8.1473671   -1.1101850   -8.9266915  
H    7.5070896   -3.6046637   -7.3742450  
H    5.4911453    1.5490984   -7.4650384  
H    8.8626871   -1.8177343   -9.3234484  
H    5.4952139   -3.0923871   -5.6920696  
C    3.2798083    0.0005857   -1.4499652  
C    2.5571142    0.0005565   -2.5996556  
C    1.1637432    0.0001548   -2.2210361  
C    1.1336964   -0.0000200   -0.7459473  
N    2.4483512   -0.0001428   -0.3402723  
C    0.0000000    0.0000000    0.0000000  
C   -1.2757368   -0.0000186   -0.6964415  
O   -2.3524598   -0.0000639   -0.1142311  
C   -1.2676497   -0.0000872   -2.2584083  
O   -2.3355766   -0.0004101   -2.8557295  
C    0.0181558    0.0001758   -2.9516296  
H    0.0150788    0.0003319   -4.0331631  
H    4.3498547    0.0008612   -1.3200026  
H    2.7563626    0.0012823    0.6148059  
C    0.8400945    0.7047457    2.2710304  
C    0.0000000    0.0000000    1.4700000  
C   -0.8844236   -0.7423113    2.3369512  
C   -0.4878984   -0.4098547    3.7186280  
N    0.5629682    0.4714286    3.6095011  
C   -1.0836927   -0.9095027    4.8308716  
C   -2.1891196   -1.8367527    4.6554461  
O   -2.7906899   -2.3413415    5.5944904  
C   -2.6257283   -2.2031529    3.2011665  
O   -3.5549479   -2.9829990    3.0410059  
C   -1.9068976   -1.5999348    2.0816745  
H   -0.7774656   -0.6525820    5.8354244  
H   -2.2155208   -1.8586617    1.0779135  
H    1.6384792    1.3747609    1.9961646  
H    1.0518368    0.8833920    4.3830260  
