60

C   -3.9833917    0.7253521   -1.7965125  
C   -5.3237300    0.5083675   -1.8185364  
C   -5.5825467   -0.4183013   -2.8951674  
C   -4.2737348   -0.7256251   -3.5029138  
N   -3.3460098   -0.0004261   -2.7913644  
C   -4.0919156   -1.5656732   -4.5531348  
C   -5.2634899   -2.2099644   -5.1230805  
O   -5.2039381   -2.9830065   -6.0702668  
C   -6.6595986   -1.8988689   -4.4954634  
O   -7.6532012   -2.4351658   -4.9670550  
C   -6.7288581   -0.9762755   -3.3650313  
H   -6.0484330    0.9475035   -1.1562833  
H   -3.1231601   -1.7775446   -4.9838707  
H   -7.6992492   -0.7663338   -2.9360927  
H   -3.4076529    1.3545694   -1.1373465  
C    0.0000000    0.0000000    0.0000000  
C    1.0662918   -0.0000103   -0.8334272  
C    0.4961866    0.0000066   -2.1718888  
C   -0.9663862   -0.0000848   -1.9540246  
N   -1.2632777   -0.0000084   -0.6828658  
C   -1.8985367   -0.0000514   -3.0477256  
C   -1.3925783    0.0004569   -4.3020543  
O   -2.1456389    0.0005417   -5.4151310  
C    0.0786225    0.0009329   -4.5544999  
O    0.4683752    0.0012595   -5.7221105  
C    1.0143159    0.0008446   -3.4159033  
H    2.1107193    0.0000632   -0.5721869  
H   -1.5042282    0.0009699   -6.1484418  
C    4.2926939   -2.1403416   -1.5040825  
C    5.3604699   -1.7320207   -2.2284491  
C    4.8134469   -0.8208702   -3.2219631  
C    3.3612062   -0.7952317   -2.9446121  
N    3.0500060   -1.5667024   -1.9386414  
C    2.4521470    0.0014842   -3.7217487  
C    2.9703718    0.7393572   -4.7298763  
O    2.2390450    1.5283422   -5.5352977  
C    4.4316761    0.7349409   -5.0343922  
O    4.8335641    1.4307763   -5.9668731  
C    5.3436383   -0.0906362   -4.2228059  
H    6.3919426   -2.0142022   -2.1038967  
H    2.8845110    1.9211532   -6.1502982  
H    6.3952192   -0.0661685   -4.4754112  
H    4.2782624   -2.8230633   -0.6694231  
C    0.0000000    0.0000000    1.4700000  
C    1.0521667    0.0011902    2.3562342  
C    0.4917218    0.0011957    3.6679131  
C   -0.9187428   -0.0003148    3.5178682  
N   -1.1833171    0.0009411    2.1707914  
C   -1.7951701   -0.0010350    4.6072090  
C   -1.2375837   -0.0005224    5.8710424  
O   -2.0474215   -0.0015360    6.9697579  
C    0.1673580    0.0013566    6.0411963  
O    0.5673524    0.0020687    7.3615553  
C    1.0325770    0.0023412    4.9669890  
H    2.0953057    0.0030649    2.0900562  
H   -2.0989778   -0.0102372    1.7591824  
H   -2.8710934   -0.0020419    4.4995513  
H   -1.4634884   -0.0006497    7.7393593  
H    1.5290710    0.0033153    7.3880045  
H    2.1042148    0.0039609    5.1284455  
