58

C    9.1301371    0.0017086   -0.7534922  
C   10.1097100    0.0011488   -1.6939761  
C   11.3699375    0.0015961   -0.9892329  
C   11.0419120    0.0024393    0.4492348  
N    9.6681500    0.0028664    0.5245065  
C   11.9612478    0.0026557    1.4474969  
C   13.3676574    0.0022416    1.0806879  
O   14.2713606    0.0024538    1.9062900  
C   13.7380244    0.0016002   -0.4367548  
O   14.9188064    0.0015541   -0.7577126  
C   12.6583393    0.0011384   -1.4206921  
H    9.9658827    0.0006793   -2.7597740  
H   11.6994550    0.0031476    2.4964843  
H   12.9232076    0.0004901   -2.4692950  
H    9.1380417    0.0019037    1.3765813  
C    6.5739137    0.0018721   -4.3537915  
C    7.6280829    0.0019471   -3.4977528  
C    7.0842286    0.0017737   -2.1601962  
C    5.6162776    0.0015611   -2.3082181  
N    5.3720679    0.0020315   -3.6621942  
C    4.7390840    0.0009613   -1.2727298  
C    5.2766310    0.0007201    0.0776694  
O    4.5688490    0.0002470    1.0763413  
C    6.8281783    0.0011907    0.2579656  
O    7.2923831    0.0012996    1.3901201  
C    7.6713704    0.0015461   -0.9348791  
H    8.6679892    0.0022880   -3.7719942  
H    6.5739132    0.0019307   -5.4317019  
H    4.4610944    0.0004679   -4.0831118  
C    3.2798077    0.0005856   -1.4499661  
C    2.5571132    0.0005565   -2.5996564  
C    1.1637425    0.0001547   -2.2210366  
C    1.1336959   -0.0000200   -0.7459475  
N    2.4483509   -0.0001429   -0.3402730  
C    0.0000000    0.0000000    0.0000000  
C   -1.2757370   -0.0000187   -0.6964411  
O   -2.3524597   -0.0000640   -0.1142306  
C   -1.2676502   -0.0000874   -2.2584078  
O   -2.3355774   -0.0004102   -2.8557287  
C    0.0181551    0.0001758   -2.9516297  
H    2.9547342    0.0006074   -3.5989118  
H    0.0150776    0.0003317   -4.0331632  
H    2.7563626    0.0012823    0.6148051  
C    0.0000000    0.0000000    1.4700000  
C    1.0662921    0.0000102    2.3034270  
C    0.4961870   -0.0000064    3.6418889  
C   -0.9663858    0.0000850    3.4240247  
N   -1.2632773    0.0000084    2.1528658  
C   -1.8985362    0.0000517    4.5177257  
C   -1.3925775   -0.0004564    5.7720543  
O   -2.1456383   -0.0005410    6.8851312  
C    0.0786232   -0.0009323    6.0245000  
O    0.4683759   -0.0012588    7.1921102  
C    1.0143166   -0.0008442    4.8859032  
H    2.1107198   -0.0000632    2.0421868  
H   -2.9622183    0.0003270    4.3293377  
H   -1.5042274   -0.0009692    7.6184419  
H    2.0724152   -0.0013148    5.1109744  
