58

C    1.1319245    0.0015659   -0.8009266  
C    0.7969913    0.0034943   -2.1169399  
C   -0.6453341    0.0035703   -2.1842667  
C   -1.1266833    0.0015426   -0.7896025  
N    0.0000000    0.0000000    0.0000000  
C   -2.4346128    0.0013952   -0.4276292  
C   -3.4350114    0.0031389   -1.4820179  
O   -4.6384616    0.0030949   -1.2583905  
C   -2.9478961    0.0050487   -2.9661070  
O   -3.7809384    0.0062193   -3.8623769  
C   -1.5113826    0.0053076   -3.2312119  
H    1.4821233    0.0045411   -2.9459192  
H   -2.7664564    0.0000217    0.6013448  
H    2.1104318    0.0009400   -0.3488059  
C    1.7765330   -2.1310632   -5.1320087  
C    1.6763794   -1.7219621   -6.4181598  
C    0.5413895   -0.8120097   -6.4350133  
C    0.0622632   -0.7878466   -5.0362862  
N    0.7824472   -1.5590795   -4.2678304  
C   -1.0641743    0.0073898   -4.6315336  
C   -1.6835604    0.7452570   -5.5808738  
O   -2.7464411    1.5329463   -5.3445022  
C   -1.2235550    0.7423104   -7.0009253  
O   -1.8348757    1.4380535   -7.8117578  
C   -0.0657297   -0.0817633   -7.3911396  
H    2.2962143   -2.0029075   -7.2523957  
H   -2.9609637    1.9261248   -6.2096857  
H    0.2362019   -0.0562578   -8.4296082  
C    2.7558489   -3.0610478   -4.5515184  
C    3.7661683   -3.7064539   -5.1794396  
C    4.4145279   -4.4900631   -4.1392057  
C    3.6452306   -4.1900996   -2.9125076  
N    2.6716257   -3.3530715   -3.1480211  
C    3.9760025   -4.7787581   -1.6439820  
C    5.0272653   -5.6287531   -1.6028745  
O    5.4473481   -6.2495535   -0.4874471  
C    5.8230481   -5.9518452   -2.8237359  
O    6.7670543   -6.7339626   -2.7125378  
C    5.4639123   -5.3351343   -4.1131594  
H    4.0378366   -3.6569686   -6.2200277  
H    3.3966975   -4.5415015   -0.7636272  
H    6.2093664   -6.7848779   -0.7736431  
H    6.0651531   -5.5951292   -4.9740551  
C    2.4951002    2.0940188    2.9809380  
C    1.9440701    1.6314916    1.8291961  
C    0.8759964    0.7350050    2.2038498  
C    0.8497377    0.7130254    3.6788474  
N    1.8560616    1.5571714    4.0882609  
C   -0.0205033   -0.0168748    4.4215661  
C   -0.9962600   -0.8356168    3.7214979  
O   -1.8224391   -1.5286685    4.3006425  
C   -0.9864710   -0.8277881    2.1595606  
O   -1.8030528   -1.5133726    1.5592035  
C    0.0000000    0.0000000    1.4700000  
H    2.2509283    1.8888011    0.8310761  
H   -0.0229599   -0.0187323    5.5027230  
H    3.3143982    2.7817323    3.1139444  
H    2.0889452    1.7545833    5.0442112  
