58

C    9.6541981   -0.7074130   -2.8184905  
C    9.0469772   -0.0039980   -3.8087253  
C   10.0801050    0.7367898   -4.4933532  
C   11.3480879    0.4048894   -3.8159674  
N   11.0211236   -0.4746497   -2.8097888  
C   12.5605844    0.9034730   -4.1666415  
C   12.6207310    1.8289091   -5.2857870  
O   13.6650722    2.3324363   -5.6783577  
C   11.2901530    2.1946922   -6.0176148  
O   11.3282953    2.9730142   -6.9610240  
C   10.0447820    1.5927418   -5.5479790  
H   13.4787173    0.6469862   -3.6565862  
H    9.1279254    1.8510309   -6.0602147  
H    9.2180829   -1.3760891   -2.0942226  
H   11.6750631   -0.8858607   -2.1692286  
C    5.6039770   -0.0017519   -1.1379123  
C    4.5679461   -0.0016854   -2.0086701  
C    5.1852103   -0.0025558   -3.3260478  
C    6.6391264   -0.0029687   -3.0563960  
N    6.8907016   -0.0025811   -1.7754982  
C    7.6095177   -0.0038924   -4.1163136  
C    7.1484101   -0.0047705   -5.3878139  
O    7.9405118   -0.0056803   -6.4734530  
C    5.6870989   -0.0047545   -5.6923313  
O    5.3390449   -0.0054589   -6.8730425  
C    4.7115728   -0.0037536   -4.5876722  
H    7.3255396   -0.0061817   -7.2290731  
H    3.6621313   -0.0038906   -4.8501667  
H    5.5656908   -0.0012541   -0.0601800  
C    3.1301149   -0.0010311   -1.7028252  
C    2.5367768   -0.0002767   -0.4864665  
C    1.1089904    0.0001028   -0.7656183  
C    1.0177872   -0.0004148   -2.2415132  
N    2.1993578   -0.0011611   -2.7963820  
C   -0.2459209   -0.0002877   -2.9257118  
C   -1.3675319   -0.0000605   -2.1698524  
O   -2.6129313    0.0000867   -2.6748490  
C   -1.3083584    0.0000910   -0.6783232  
O   -2.3693261    0.0004206   -0.0541692  
C    0.0000000    0.0000000    0.0000000  
H    3.0096017   -0.0001007    0.4807525  
H   -0.2829630   -0.0004687   -4.0053125  
H   -3.1967441    0.0002094   -1.8949034  
C    0.8175213    0.6860729    2.3021913  
C    0.0000000    0.0000000    1.4700000  
C   -0.8887526   -0.7456559    2.3478473  
C   -0.4549825   -0.3816753    3.7138435  
N    0.5448156    0.4573574    3.6934124  
C   -1.0945674   -0.9182058    4.8835240  
C   -2.1210866   -1.7789155    4.6970523  
O   -2.8083856   -2.3554314    5.6976972  
C   -2.5824069   -2.1655116    3.3310774  
O   -3.5227682   -2.9541547    3.2362962  
C   -1.9100805   -1.6015804    2.1470656  
H   -0.7567140   -0.6349833    5.8697035  
H   -3.4728268   -2.9124471    5.2533954  
H   -2.2742832   -1.9066565    1.1752040  
H    1.6189533    1.3585343    2.0405121  
