62

C    1.1243408    0.0100056   -0.7919008  
C    0.7474067    0.0234632   -2.1148548  
C   -0.6787390    0.0234407   -2.1414700  
C   -1.1201747    0.0098459   -0.7935548  
N    0.0000000    0.0000000    0.0000000  
C   -2.4730819    0.0063413   -0.4408237  
C   -3.3971961    0.0170574   -1.4675059  
O   -4.7313524    0.0145692   -1.1793460  
C   -2.9763661    0.0303149   -2.8186318  
O   -4.0166491    0.0394637   -3.7247618  
C   -1.6418573    0.0335064   -3.1673481  
H   -2.8160162   -0.0041448    0.5845969  
H   -5.1938829    0.0230244   -2.0274372  
H   -3.6464693    0.0481856   -4.6127338  
H   -1.3497485    0.0435706   -4.2109230  
H    2.1062463    0.0053069   -0.3505414  
C    4.6035529   -2.0932529   -2.9144229  
C    3.4418015   -1.6363687   -2.3364458  
C    2.8380886   -0.7400636   -3.2674499  
C    3.6839049   -0.6895631   -4.4049781  
N    4.7475347   -1.5212494   -4.1567713  
C    3.3988640    0.0972320   -5.5250200  
C    2.2386904    0.8464661   -5.4963344  
O    1.9119637    1.6320618   -6.5636212  
C    1.3821852    0.8096665   -4.3703401  
O    0.2664555    1.6116303   -4.4942146  
C    1.6628938    0.0339099   -3.2649306  
H    3.0751949   -1.9140038   -1.3630436  
H    5.5069137   -1.6969031   -4.7895987  
H    1.0769086    2.0631860   -6.3398370  
H   -0.2581469    1.5289153   -3.6919962  
H    5.3415862   -2.7807890   -2.5381780  
C    5.6519278   -3.0166637   -7.6488594  
C    6.2178694   -2.2592459   -8.6235918  
C    5.7711917   -0.9021312   -8.4148952  
C    4.8923501   -0.9311960   -7.2301660  
N    4.8614150   -2.2420486   -6.8135151  
C    4.2697642    0.1556561   -6.7078213  
C    4.4790542    1.4397135   -7.3558409  
O    3.9625021    2.4769529   -6.9613686  
C    5.4056748    1.4938164   -8.6121264  
O    5.5891176    2.5692261   -9.1662958  
C    6.0214871    0.2551155   -9.0814308  
H    6.8732832   -2.6111109   -9.4002766  
H    6.6618735    0.3011568   -9.9517810  
H    5.7456717   -4.0755939   -7.4706215  
H    4.3457899   -2.5831049   -6.0230351  
C    2.4951002    2.0940188    2.9809380  
C    1.9440701    1.6314916    1.8291961  
C    0.8759964    0.7350050    2.2038498  
C    0.8497377    0.7130254    3.6788474  
N    1.8560616    1.5571714    4.0882609  
C   -0.0205033   -0.0168748    4.4215661  
C   -0.9962600   -0.8356168    3.7214979  
O   -1.8224391   -1.5286685    4.3006425  
C   -0.9864710   -0.8277881    2.1595606  
O   -1.8030528   -1.5133726    1.5592035  
C    0.0000000    0.0000000    1.4700000  
H    2.2509283    1.8888011    0.8310761  
H   -0.0229599   -0.0187323    5.5027230  
H    3.3143982    2.7817323    3.1139444  
H    2.0889452    1.7545833    5.0442112  
