58

C   10.0944277    0.7268600   -1.0910293  
C   11.3284770    0.5105836   -0.5671766  
C   11.1642876   -0.4150391    0.5287705  
C    9.7230957   -0.7225210    0.6009656  
N    9.1302743    0.0015974   -0.4075514  
C    9.1604065   -1.5617719    1.5069139  
C   10.0323890   -2.2049771    2.4756604  
O    9.6216967   -2.9772464    3.3319507  
C   11.5619522   -1.8936956    2.4178197  
O   12.3058929   -2.4290812    3.2284819  
C   12.0504166   -0.9720250    1.3951869  
H   12.2487349    0.9495311   -0.9093226  
H    8.1008362   -1.7737767    1.5426283  
H   13.1108279   -0.7619476    1.3617543  
H    9.8081921    1.3552220   -1.9187484  
C    6.6781261    0.0000524   -4.1292993  
C    7.7444182    0.0009684   -3.2958728  
C    7.1743128    0.0014027   -1.9574109  
C    5.7117403    0.0007371   -2.1752745  
N    5.4148486   -0.0001362   -3.4464332  
C    4.7795901    0.0008674   -1.0815733  
C    5.2855494    0.0012391    0.1727552  
O    4.5324883    0.0014070    1.2858322  
C    6.7567502    0.0015422    0.4252007  
O    7.1465030    0.0019990    1.5928107  
C    7.6924431    0.0014448   -0.7133963  
H    8.7888458    0.0012168   -3.5571132  
H    5.1738997    0.0016452    2.0191429  
H    6.6781258   -0.0005127   -5.2077115  
C    3.3321168    0.0004716   -1.3379341  
C    2.6974177    0.0000118   -2.5332316  
C    1.2800432   -0.0002116   -2.2052842  
C    1.2395033    0.0000644   -0.7271298  
N    2.4394059    0.0005460   -0.2131041  
C    0.0000000    0.0000000    0.0000000  
C   -1.1468704    0.0000635   -0.7169542  
O   -2.3742206    0.0000074   -0.1695488  
C   -1.1388774    0.0001608   -2.2096352  
O   -2.2206238    0.0000906   -2.7970409  
C    0.1454514    0.0001818   -2.9324241  
H    3.1367978   -0.0000649   -3.5160956  
H   -2.9844350    0.0001027   -0.9290164  
H    0.1083567    0.0003684   -4.0135594  
C    0.8400945    0.7047457    2.2710304  
C    0.0000000    0.0000000    1.4700000  
C   -0.8844236   -0.7423113    2.3369512  
C   -0.4878984   -0.4098547    3.7186280  
N    0.5629682    0.4714286    3.6095011  
C   -1.0836927   -0.9095027    4.8308716  
C   -2.1891196   -1.8367527    4.6554461  
O   -2.7906899   -2.3413415    5.5944904  
C   -2.6257283   -2.2031529    3.2011665  
O   -3.5549479   -2.9829990    3.0410059  
C   -1.9068976   -1.5999348    2.0816745  
H   -0.7774656   -0.6525820    5.8354244  
H   -2.2155208   -1.8586617    1.0779135  
H    1.6384792    1.3747609    1.9961646  
H    1.0518368    0.8833920    4.3830260  
