60

C    3.3041269    0.0001177   -1.5420438  
C    2.5845370   -0.0004779   -0.3695861  
C    1.2040002   -0.0000008   -0.7283590  
C    1.1422367    0.0006037   -2.1454374  
N    2.4348632    0.0026109   -2.6077471  
C   -0.0655189    0.0008797   -2.8497917  
C   -1.2321775    0.0002324   -2.1101397  
O   -2.4392823    0.0001146   -2.7472512  
C   -1.1911212   -0.0000007   -0.6955261  
O   -2.4371527   -0.0002320   -0.1032857  
C    0.0000000    0.0000000    0.0000000  
H    3.0031537   -0.0000660    0.6222577  
H    2.7054620   -0.0071099   -3.5745265  
H   -3.1132994   -0.0000649   -2.0551779  
H   -2.3200279   -0.0004071    0.8516418  
H    4.3686615    0.0004071   -1.7024300  
C   -0.1387093    0.0017017   -4.3179685  
C    0.8847644    0.0023479   -5.2034514  
C    0.2487251    0.0030111   -6.5118680  
C   -1.2011862    0.0025365   -6.2214533  
N   -1.4344192    0.0018493   -4.9370894  
C   -2.1866352    0.0030148   -7.2673865  
C   -1.7437564    0.0043146   -8.5453501  
O   -2.5513026    0.0048871   -9.6195522  
C   -0.2869496    0.0051945   -8.8707328  
O    0.0441852    0.0062435  -10.0562996  
C    0.7042733    0.0046370   -7.7801360  
H    1.9409042    0.0024619   -4.9945365  
H   -1.9471986    0.0058399  -10.3838892  
H    1.7498532    0.0054225   -8.0576099  
C   -4.5361774    2.0935922   -4.1681011  
C   -3.5363244    1.6320856   -4.9626956  
C   -4.1396137    0.7362002   -5.9209576  
C   -5.5832523    0.7134610   -5.6173460  
N   -5.7580146    1.5566378   -4.5443124  
C   -6.5012217   -0.0161806   -6.3004715  
C   -6.0363250   -0.8338228   -7.4085628  
O   -6.7850247   -1.5265624   -8.0852168  
C   -4.5116106   -0.8251762   -7.7476460  
O   -4.1084263   -1.5098326   -8.6782096  
C   -3.6195492    0.0022382   -6.9392752  
H   -2.4949827    1.8896929   -4.8861466  
H   -7.5556508   -0.0186074   -6.0615475  
H   -4.4831959    2.7806227   -3.3392032  
H   -6.6379350    1.7533706   -4.1037644  
C    2.5128556    2.1077716    2.9199648  
C    1.9592212    1.6432552    4.0696553  
C    0.8915788    0.7479214    3.6910360  
C    0.8684491    0.7287414    2.2159470  
N    1.8754542    1.5738793    1.8102719  
C    0.0000000    0.0000000    1.4700000  
C   -0.9772830   -0.8200135    2.1664417  
O   -1.8021297   -1.5120829    1.5842315  
C   -0.9711318   -0.8147624    3.7284083  
O   -1.7894187   -1.5009653    4.3257297  
C    0.0140216    0.0115358    4.4216297  
H    2.2638494    1.8988021    5.0689105  
H    0.0117648    0.0094386    5.5031631  
H    3.3327358    2.7953732    2.7900019  
H    2.1123206    1.7707734    0.8551938  
