58

C    9.0957825   -0.0008792   -2.1411297  
C   10.1070304   -0.0002458   -1.2347898  
C   11.3423501   -0.0005205   -1.9823334  
C   10.9651903   -0.0013426   -3.4087065  
N    9.5896552   -0.0019236   -3.4368259  
C   11.8497539   -0.0014133   -4.4379070  
C   13.2679150   -0.0008534   -4.1195415  
O   14.1427754   -0.0009288   -4.9756470  
C   13.6900989   -0.0002315   -2.6156915  
O   14.8811934   -0.0000636   -2.3354130  
C   12.6447897    0.0000668   -1.5953091  
H    9.9998351    0.0001638   -0.1646864  
H   11.5521436   -0.0018925   -5.4773001  
H   12.9454605    0.0007027   -0.5564056  
H    9.0306399   -0.0009868   -4.2702214  
C    6.4550017   -0.0009257    1.4492346  
C    7.5628473   -0.0014711    0.6718950  
C    7.0625121   -0.0013726   -0.6941815  
C    5.5906518   -0.0008359   -0.5520182  
N    5.2286132   -0.0004914    0.7021423  
C    4.7161325   -0.0005435   -1.6923264  
C    5.2860924   -0.0003877   -2.9188991  
O    4.5914235   -0.0001202   -4.0693237  
C    6.7683520   -0.0005474   -3.0951535  
O    7.2177891   -0.0005152   -4.2411146  
C    7.6440945   -0.0008909   -1.9098263  
H    8.5924160   -0.0017982    0.9866389  
H    5.2697914   -0.0000403   -4.7685877  
H    6.3993987   -0.0008021    2.5262129  
C    3.2573665   -0.0002920   -1.5109385  
C    2.5379463   -0.0001709   -0.3591964  
C    1.1435038    0.0000331   -0.7338500  
C    1.1092599   -0.0000083   -2.2088477  
N    2.4227553    0.0001909   -2.6182613  
C   -0.0265539   -0.0002524   -2.9515660  
C   -1.3003040   -0.0002640   -2.2514977  
O   -2.3786790   -0.0004133   -2.8306421  
C   -1.2877727    0.0000311   -0.6895603  
O   -2.3539959    0.0003306   -0.0892030  
C    0.0000000    0.0000000    0.0000000  
H    2.9384091   -0.0000367    0.6389234  
H   -0.0296303   -0.0004086   -4.0327229  
H    2.7280482   -0.0013407   -3.5742119  
C    2.5528530    2.1414826    2.8079335  
C    2.0663498    1.7338582    4.0032312  
C    0.9804344    0.8229586    3.6752840  
C    0.9495562    0.7966882    2.1971295  
N    1.8690446    1.5676019    1.6831036  
C    0.0000000    0.0000000    1.4700000  
C   -0.8785127   -0.7372425    2.1869543  
O   -1.8187535   -1.5261249    1.6395491  
C   -0.8723269   -0.7321790    3.6796354  
O   -1.7010379   -1.4274584    4.2670412  
C    0.1115397    0.0933559    4.4024240  
H    2.4028853    2.0163452    4.9860947  
H   -2.2861435   -1.9184361    2.3990168  
H    0.0832434    0.0693689    5.4835595  
H    3.3664920    2.8238276    2.6198634  
