58

C    1.1319246    0.0015699   -0.8009270  
C    0.7969910    0.0034973   -2.1169403  
C   -0.6453347    0.0035683   -2.1842668  
C   -1.1266837    0.0015387   -0.7896024  
N    0.0000000    0.0000000    0.0000000  
C   -2.4346131    0.0013865   -0.4276287  
C   -3.4350119    0.0031267   -1.4820171  
O   -4.6384616    0.0030784   -1.2583901  
C   -2.9478970    0.0050382   -2.9661067  
O   -3.7809395    0.0062062   -3.8623766  
C   -1.5113834    0.0053027   -3.2312118  
H   -2.7664564    0.0000119    0.6013457  
H   -1.1823544    0.0068359   -4.2614846  
H    2.1104314    0.0009476   -0.3488061  
C    4.5548774   -2.1353085   -2.6566587  
C    4.9411038   -1.7265060   -3.8876294  
C    3.8945943   -0.8158998   -4.3259368  
C    2.9291045   -0.7910706   -3.2062058  
N    3.3108587   -1.5625084   -2.2248105  
C    1.7334684    0.0049315   -3.2500369  
C    1.5125968    0.7428951   -4.3617741  
O    0.4386411    1.5312663   -4.5382106  
C    2.4682948    0.7392876   -5.5084167  
O    2.2033062    1.4351603   -6.4886017  
C    3.6876297   -0.0855663   -5.4394041  
H    0.5619599    1.9243299   -5.4210731  
H    4.3545519   -0.0605239   -6.2907667  
H    5.0626410   -2.8178568   -1.9938791  
C    6.1504688   -2.1109172   -4.6296293  
C    7.1342329   -2.9547808   -4.2401652  
C    8.0760020   -2.9701312   -5.3489191  
C    7.4878190   -2.0547019   -6.3502252  
N    6.3590736   -1.5479551   -5.9341344  
C    8.1270122   -1.7935135   -7.6105021  
C    9.3006511   -2.4181331   -7.8590123  
O   10.0058802   -2.2670977   -8.9929794  
C    9.9198872   -3.3473757   -6.8684489  
O   10.9896044   -3.8812445   -7.1615527  
C    9.2447206   -3.5989450   -5.5828404  
H    7.2113457   -3.4994860   -3.3147324  
H    7.6745088   -1.1200812   -8.3236916  
H   10.7887086   -2.8350402   -8.8756181  
H    9.7259388   -4.2785428   -4.8923294  
C    2.5128556    2.1077716    2.9199648  
C    1.9592212    1.6432552    4.0696553  
C    0.8915788    0.7479214    3.6910360  
C    0.8684491    0.7287414    2.2159470  
N    1.8754542    1.5738793    1.8102719  
C    0.0000000    0.0000000    1.4700000  
C   -0.9772830   -0.8200135    2.1664417  
O   -1.8021297   -1.5120829    1.5842315  
C   -0.9711318   -0.8147624    3.7284083  
O   -1.7894187   -1.5009653    4.3257297  
C    0.0140216    0.0115358    4.4216297  
H    2.2638494    1.8988021    5.0689105  
H    0.0117648    0.0094386    5.5031631  
H    3.3327358    2.7953732    2.7900019  
H    2.1123206    1.7707734    0.8551938  
