60

C    3.3003548    0.0005277   -1.4738984  
C    2.5232816    0.0003501   -2.6090747  
C    1.1623203   -0.0001316   -2.1820102  
C    1.1711885    0.0000585   -0.7636140  
N    2.4852303   -0.0014920   -0.3662358  
C    0.0000000    0.0000000    0.0000000  
C   -1.2020381    0.0000521   -0.6806484  
O   -2.3759250    0.0003494    0.0157746  
C   -1.2314657   -0.0005108   -2.0955510  
O   -2.5054384   -0.0008032   -2.6250185  
C   -0.0764515   -0.0007267   -2.8495195  
H    2.8036264    0.0088182    0.5858665  
H   -3.0835635    0.0000350   -0.6418819  
H   -2.4360042   -0.0011520   -3.5845924  
H   -0.1304093   -0.0013415   -3.9319085  
H    4.3715550    0.0004898   -1.3667136  
C    4.0803118   -0.6868208   -4.4912472  
C    3.0267439   -0.0008946   -3.9901700  
C    2.4918845    0.7430929   -5.1201735  
C    3.3675127    0.3784074   -6.2545739  
N    4.3004233   -0.4595674   -5.8919908  
C    3.1668460    0.9132815   -7.5731825  
C    2.1379534    1.7730803   -7.7505530  
O    1.8345374    2.3480335   -8.9267369  
C    1.2364333    2.1603526   -6.6256342  
O    0.3199405    2.9480971   -6.8595587  
C    1.4629718    1.5981239   -5.2823162  
H    1.0577289    2.9047337   -8.7375126  
H    0.7877317    1.9036438   -4.4943194  
H    4.7441133   -1.3582263   -3.9701370  
C    4.9007346   -2.9613296   -8.5573157  
C    5.6198427   -2.6777697   -9.6681964  
C    5.4079593   -1.2572012   -9.8996915  
C    4.5110262   -0.8307608   -8.8041342  
N    4.2103401   -1.8253911   -8.0140153  
C    4.0586866    0.5272107   -8.6761197  
C    4.4833981    1.4187291   -9.6003220  
O    4.1402117    2.7180583   -9.6030554  
C    5.3891480    1.0191962  -10.7175282  
O    5.7357428    1.8833946  -11.5226707  
C    5.8392228   -0.3798487  -10.8272121  
H    6.2200293   -3.3496036  -10.2576799  
H    4.5955656    3.0931460  -10.3783707  
H    6.4949564   -0.6288260  -11.6507741  
H    4.7964111   -3.9116618   -8.0583581  
C    0.8681109    0.7263879    2.2709268  
C    0.6127770    0.5096195    3.5869401  
C   -0.4920590   -0.4175482    3.6542670  
C   -0.8620974   -0.7254003    2.2596025  
N    0.0000000    0.0000000    1.4700000  
C   -1.8641242   -1.5660088    1.8976294  
C   -2.6293522   -2.2103885    2.9520183  
O   -3.5512764   -2.9839180    2.7283916  
C   -2.2549728   -1.8987399    4.4361073  
O   -2.8923672   -2.4351063    5.3323774  
C   -1.1543735   -0.9755647    4.7012123  
H    1.1382914    0.9492124    4.4159191  
H   -2.1192137   -1.7782617    0.8686553  
H   -0.9013378   -0.7652422    5.7314848  
H    1.6172880    1.3558399    1.8188057  
