58

C    0.7996788   -0.7095980   -9.5978440  
C    0.2970127    0.5329591   -9.3800051  
C    0.8423858    1.3931087  -10.4035021  
C    1.7101857    0.5437170  -11.2415041  
N    1.6411468   -0.7191428  -10.6999240  
C    2.4091473    0.9843943  -12.3180550  
C    2.2995885    2.3890500  -12.6750914  
O    2.8898105    2.8822962  -13.6272710  
C    1.3863956    3.3069838  -11.8014304  
O    1.2865631    4.4913710  -12.0921569  
C    0.6825920    2.7167023  -10.6656139  
H    3.0399754    0.3446739  -12.9194899  
H    0.0521412    3.3590042  -10.0658599  
H    0.6263645   -1.6190890   -9.0458692  
H    2.1256461   -1.5242047  -11.0523220  
C    0.1961175   -0.6857269   -5.1976468  
C   -0.8712826    0.0001710   -4.7267111  
C   -1.3726388    0.7456798   -5.8709829  
C   -0.4644983    0.3818146   -6.9797964  
N    0.4570580   -0.4570291   -6.5911259  
C   -0.6264066    0.9182525   -8.3030899  
C   -1.6492906    1.7787628   -8.5093994  
O   -1.9180360    2.3551729   -9.6932768  
C   -2.5830256    2.1652383   -7.4107923  
O   -3.4919438    2.9537009   -7.6704371  
C   -2.3959896    1.6014058   -6.0620765  
H   -2.6997675    2.9120521   -9.5261428  
H   -3.0937610    1.9063895   -5.2937467  
H    0.8441376   -1.3580427   -4.6581707  
C    1.0965514    0.0001359   -0.8010305  
C    0.0000000    0.0000000    0.0000000  
C   -1.1546563    0.0001470   -0.8669513  
C   -0.6372014    0.0003519   -2.2486282  
N    0.7342871    0.0007337   -2.1395014  
C   -1.4147739    0.0001352   -3.3608717  
C   -2.8576049   -0.0001048   -3.1854462  
O   -3.6427779   -0.0002494   -4.1244907  
C   -3.4275840   -0.0000725   -1.7311666  
O   -4.6406831    0.0000333   -1.5710060  
C   -2.4891867   -0.0001091   -0.6116744  
H   -2.8919122   -0.0002918    0.3920866  
H    2.1388272    0.0000663   -0.5261648  
H    1.3735872   -0.0006099   -2.9130262  
C    0.8175213    0.6860729    2.3021913  
C    0.0000000    0.0000000    1.4700000  
C   -0.8887526   -0.7456559    2.3478473  
C   -0.4549825   -0.3816753    3.7138435  
N    0.5448156    0.4573574    3.6934124  
C   -1.0945674   -0.9182058    4.8835240  
C   -2.1210866   -1.7789155    4.6970523  
O   -2.8083856   -2.3554314    5.6976972  
C   -2.5824069   -2.1655116    3.3310774  
O   -3.5227682   -2.9541547    3.2362962  
C   -1.9100805   -1.6015804    2.1470656  
H   -0.7567140   -0.6349833    5.8697035  
H   -3.4728268   -2.9124471    5.2533954  
H   -2.2742832   -1.9066565    1.1752040  
H    1.6189533    1.3585343    2.0405121  
