60

C    3.3041273    0.0001179   -1.5420430  
C    2.5845371   -0.0004779   -0.3695859  
C    1.2040005   -0.0000007   -0.7283590  
C    1.1422373    0.0006038   -2.1454373  
N    2.4348640    0.0026111   -2.6077467  
C   -0.0655182    0.0008798   -2.8497918  
C   -1.2321770    0.0002324   -2.1101398  
O   -2.4392816    0.0001148   -2.7472518  
C   -1.1911211   -0.0000007   -0.6955265  
O   -2.4371525   -0.0002320   -0.1032864  
C    0.0000000    0.0000000    0.0000000  
H    3.0031536   -0.0000659    0.6222578  
H    2.7054629   -0.0071097   -3.5745262  
H   -3.1132988   -0.0000647   -2.0551787  
H   -2.3200281   -0.0004071    0.8516404  
H    4.3686621    0.0004072   -1.7024296  
C    2.2805262   -2.0884668   -5.9525543  
C    1.7869811   -1.6272474   -4.7745199  
C    0.7005263   -0.7318378   -5.0949771  
C    0.6008356   -0.7090651   -6.5668237  
N    1.5865173   -1.5517700   -7.0263552  
C   -0.3061620    0.0202024   -7.2648420  
C   -1.2468136    0.8373778   -6.5165548  
O   -2.1016165    1.5297582   -7.0534181  
C   -1.1592599    0.8286875   -4.9570470  
O   -1.9457422    1.5129527   -4.3163540  
C   -0.1387083    0.0017019   -4.3179684  
H    2.1434564   -1.8847454   -3.7930755  
H    3.0929929   -2.7751195   -6.1266129  
H    1.7717481   -1.7483671   -7.9928368  
C   -0.2397578   -1.0253700   -9.5760085  
C   -0.3826909    0.0235458   -8.7328446  
C   -0.6310032    1.1677593   -9.5963358  
C   -0.6032627    0.6133495  -10.9668994  
N   -0.3744075   -0.6717900  -10.9612976  
C   -0.8100133    1.4379404  -12.1255142  
C   -1.0346641    2.7563822  -11.9240754  
O   -1.2435218    3.6418749  -12.9131767  
C   -1.0690063    3.3458168  -10.5531089  
O   -1.2786485    4.5539058  -10.4445186  
C   -0.8540012    2.4791672   -9.3806689  
H   -0.7841831    1.0061564  -13.1153652  
H   -1.3721506    4.4944572  -12.4596233  
H   -0.8867458    2.9446534   -8.4047176  
H   -0.0434729   -2.0560096   -9.3265527  
C    0.0000000    0.0000000    1.4700000  
C    1.0541688    0.0001722    2.3260392  
C    0.5103138    0.0000454    3.6635956  
C   -0.9576371   -0.0002459    3.5155732  
N   -1.2018458    0.0001392    2.1615969  
C   -1.8348311   -0.0008317    4.5510609  
C   -1.2972847   -0.0009736    5.9014604  
O   -2.0050672   -0.0014265    6.9001319  
C    0.2542623   -0.0004184    6.0817573  
O    0.7184670   -0.0002256    7.2139121  
C    1.0974552   -0.0000873    4.8889129  
H    2.0940752    0.0005483    2.0517982  
H   -2.9081052   -0.0011668    4.4207061  
H    2.1707277    0.0000911    5.0223670  
H   -2.1128194   -0.0014912    1.7406791  
