62

C    2.3021910   -2.1255957   -5.9826735  
C    1.8095069   -1.6629746   -4.7844614  
C    0.7354735   -0.7756724   -5.0906433  
C    0.6180411   -0.7363240   -6.5036497  
N    1.5855137   -1.5656970   -7.0142915  
C   -0.3411041    0.0395977   -7.1615058  
C   -1.1974963    0.7892224   -6.3786691  
O   -2.1530486    1.5644625   -6.9693778  
C   -1.0957951    0.7634636   -4.9673539  
O   -2.0200008    1.5643286   -4.3287607  
C   -0.1496415   -0.0015616   -4.3176959  
H    2.1795065   -1.9311009   -3.8096787  
H   -0.4356854    0.0740440   -8.2381068  
H   -2.6345080    1.9978446   -6.2526902  
H   -1.8829374    1.4894719   -3.3794383  
H    3.1090430   -2.8095407   -6.1830921  
C    3.3003542    0.0005274   -1.4738984  
C    2.5232813    0.0003496   -2.6090747  
C    1.1623199   -0.0001320   -2.1820097  
C    1.1711882    0.0000583   -0.7636143  
N    2.4852298   -0.0014919   -0.3662359  
C    0.0000000    0.0000000    0.0000000  
C   -1.2020385    0.0000519   -0.6806477  
O   -2.3759249    0.0003493    0.0157746  
C   -1.2314658   -0.0005115   -2.0955507  
O   -2.5054393   -0.0008039   -2.6250177  
C   -0.0764517   -0.0007275   -2.8495196  
H    2.8919953   -0.0005619   -3.6205303  
H    2.8036266    0.0088182    0.5858663  
H   -3.0835639    0.0000344   -0.6418818  
H   -2.4360048   -0.0011532   -3.5845921  
H    4.3715547    0.0004895   -1.3667136  
C    2.1148020   -3.0695341   -8.9882953  
C    2.2628915   -2.9842519  -10.3354670  
C    2.0408487   -1.6040616  -10.6968635  
C    1.7491970   -0.8871016   -9.4407987  
N    1.8091014   -1.8320070   -8.4425731  
C    1.4832903    0.4410791   -9.3575247  
C    1.4842007    1.2161410  -10.5870819  
O    1.2562691    2.4184166  -10.6167752  
C    1.7902678    0.4773925  -11.9288636  
O    1.7935302    1.1194322  -12.9705143  
C    2.0622641   -0.9573490  -11.8916196  
H    2.5003746   -3.7956400  -11.0001965  
H    1.2719840    0.9475841   -8.4260137  
H    2.2734692   -1.4613427  -12.8249495  
H    2.2030603   -3.9323621   -8.3482738  
C    0.8681109    0.7263879    2.2709268  
C    0.6127770    0.5096195    3.5869401  
C   -0.4920590   -0.4175482    3.6542670  
C   -0.8620974   -0.7254003    2.2596025  
N    0.0000000    0.0000000    1.4700000  
C   -1.8641242   -1.5660088    1.8976294  
C   -2.6293522   -2.2103885    2.9520183  
O   -3.5512764   -2.9839180    2.7283916  
C   -2.2549728   -1.8987399    4.4361073  
O   -2.8923672   -2.4351063    5.3323774  
C   -1.1543735   -0.9755647    4.7012123  
H    1.1382914    0.9492124    4.4159191  
H   -2.1192137   -1.7782617    0.8686553  
H   -0.9013378   -0.7652422    5.7314848  
H    1.6172880    1.3558399    1.8188057  
