62

C    4.3850145   -2.1302472   -1.4420375  
C    3.1441333   -1.6664867   -1.8129919  
C    3.3426832   -0.7794073   -2.9122042  
C    4.7370124   -0.7413627   -3.1697381  
N    5.3406713   -1.5712647   -2.2578847  
C    5.2968248    0.0340036   -4.1896431  
C    4.4333093    0.7844034   -4.9638647  
O    4.9266648    1.5591504   -5.9735093  
C    3.0391090    0.7599480   -4.7221527  
O    2.3124159    1.5614585   -5.5782141  
C    2.4861708   -0.0045286   -3.7159913  
H    2.2107835   -1.9337300   -1.3477684  
H    6.3263480   -1.7540630   -2.2030539  
H    4.1660047    1.9932246   -6.3812358  
H    1.3813876    1.4874741   -5.3473111  
H    4.6641351   -2.8144246   -0.6591248  
C    0.0000000    0.0000000    0.0000000  
C    1.0521668   -0.0011862   -0.8862337  
C    0.4917223   -0.0011933   -2.1979128  
C   -0.9187426    0.0003121   -2.0478684  
N   -1.1833170   -0.0009451   -0.7007915  
C   -1.7951692    0.0010294   -3.1372093  
C   -1.2375827    0.0005192   -4.4010426  
O   -2.0474200    0.0015301   -5.4997582  
C    0.1673593   -0.0013551   -4.5711963  
O    0.5673537   -0.0020655   -5.8915553  
C    1.0325777   -0.0023369   -3.4969887  
H    2.0953056   -0.0030573   -0.6200556  
H   -2.0989779    0.0102301   -0.2891829  
H   -2.8710925    0.0020326   -3.0295520  
H   -1.4634871    0.0006461   -6.2693596  
H    1.5290723   -0.0033086   -5.9180041  
C    7.5955288   -0.9749242   -4.4305359  
C    6.7404103    0.0794822   -4.4633099  
C    7.5197234    1.2427275   -4.8159661  
C    8.9089137    0.7762368   -4.9872162  
N    8.8874381   -0.5768744   -4.7391873  
C    9.9525885    1.5758866   -5.3233833  
C    9.6901960    2.9904334   -5.5301262  
O   10.5633218    3.7922175   -5.8352390  
C    8.2264702    3.5064131   -5.3538368  
O    7.9934727    4.6953934   -5.5250054  
C    7.1856730    2.5482133   -4.9899065  
H   10.9640502    1.2135615   -5.4441127  
H    6.1747737    2.9134846   -4.8699730  
H    7.3906591   -2.0092345   -4.2066605  
H    9.6867361   -1.1823686   -4.7785213  
C    3.2573670    0.0002920    2.9809380  
C    2.5379467    0.0001709    1.8291961  
C    1.1435042   -0.0000331    2.2038498  
C    1.1092607    0.0000083    3.6788474  
N    2.4227561   -0.0001909    4.0882609  
C   -0.0265533    0.0002524    4.4215661  
C   -1.3003036    0.0002640    3.7214979  
O   -2.3786784    0.0004133    4.3006425  
C   -1.2877726   -0.0000311    2.1595606  
O   -2.3539958   -0.0003306    1.5592035  
C    0.0000000    0.0000000    1.4700000  
H    2.9384090    0.0000368    0.8310761  
H   -0.0296291    0.0004086    5.5027230  
H    4.3270393    0.0004765    3.1139444  
H    2.7280493    0.0013407    5.0442112  
