58

C   -4.7161345    0.0009935   -1.6923229  
C   -5.6957082    0.0016034   -0.7518389  
C   -6.9559355    0.0017237   -1.4565820  
C   -6.6279105    0.0011005   -2.8950499  
N   -5.2541477    0.0010770   -2.9703220  
C   -7.5472459    0.0006151   -3.8933113  
C   -8.9536547    0.0009393   -3.5265020  
O   -9.8573594    0.0006108   -4.3521040  
C   -9.3240222    0.0018516   -2.0090593  
O  -10.5048043    0.0024379   -1.6881013  
C   -8.2443375    0.0020337   -1.0251223  
H   -5.5518795    0.0021138    0.3139595  
H   -7.2854533    0.0000315   -4.9422986  
H   -4.7240399   -0.0008468   -3.8223957  
C   -3.2573684    0.0006028   -1.5109361  
C   -2.5379475    0.0004131   -0.3591947  
C   -1.1435048    0.0000759   -0.7338492  
C   -1.1092620    0.0001140   -2.2088470  
N   -2.4227582    0.0000402   -2.6182595  
C    0.0265510    0.0002498   -2.9515662  
C    1.3003018    0.0001398   -2.2514987  
O    2.3786768    0.0001862   -2.8306439  
C    1.2877719   -0.0001540   -0.6895613  
O    2.3539954   -0.0005553   -0.0892049  
C    0.0000000    0.0000000    0.0000000  
H   -2.9384094    0.0003172    0.6389255  
H    0.0296270    0.0004056   -4.0327229  
H   -2.7280517    0.0016009   -3.5742098  
C   -7.9858988    0.7076388    1.3822280  
C   -8.6043394    0.0026151    0.4001139  
C   -9.6742515   -0.7393123    1.0243468  
C   -9.6281263   -0.4063276    2.4609341  
N   -8.5824098    0.4748639    2.6121592  
C  -10.4782356   -0.9055081    3.3935847  
C  -11.5071704   -1.8327762    2.9531280  
O  -12.3204646   -2.3369658    3.7164409  
C  -11.5743842   -2.1997315    1.4363447  
O  -12.4361946   -2.9795980    1.0537860  
C  -10.6031944   -1.5969894    0.5267596  
H  -10.4273118   -0.6482042    4.4424465  
H  -10.6566360   -1.8560989   -0.5219207  
H   -7.1444167    1.3775083    1.3110067  
H   -8.2978051    0.8871106    3.4816992  
C    0.0000000    0.0000000    1.4700000  
C    1.0662921    0.0000102    2.3034270  
C    0.4961870   -0.0000064    3.6418889  
C   -0.9663858    0.0000850    3.4240247  
N   -1.2632773    0.0000084    2.1528658  
C   -1.8985362    0.0000517    4.5177257  
C   -1.3925775   -0.0004564    5.7720543  
O   -2.1456383   -0.0005410    6.8851312  
C    0.0786232   -0.0009323    6.0245000  
O    0.4683759   -0.0012588    7.1921102  
C    1.0143166   -0.0008442    4.8859032  
H    2.1107198   -0.0000632    2.0421868  
H   -2.9622183    0.0003270    4.3293377  
H   -1.5042274   -0.0009692    7.6184419  
H    2.0724152   -0.0013148    5.1109744  
