60

C    1.1243395    0.0100939   -0.7919010  
C    0.7474039    0.0235224   -2.1148549  
C   -0.6787418    0.0233883   -2.1414696  
C   -1.1201761    0.0097586   -0.7935540  
N    0.0000000    0.0000000    0.0000000  
C   -2.4730827    0.0061481   -0.4408225  
C   -3.3971982    0.0167922   -1.4675042  
O   -4.7313542    0.0141997   -1.1793438  
C   -2.9763699    0.0300832   -2.8186306  
O   -4.0166533    0.0391507   -3.7247599  
C   -1.6418617    0.0333790   -3.1673473  
H   -2.8160161   -0.0043650    0.5845981  
H   -5.1938852    0.0226192   -2.0274351  
H   -3.6464744    0.0479018   -4.6127319  
H   -1.3497540    0.0434661   -4.2109224  
H    2.1062456    0.0054721   -0.3505424  
C    2.8209486   -0.6504607   -3.4130380  
C    1.6628896    0.0340410   -3.2649310  
C    1.5140623    0.7907443   -4.4985236  
C    2.7042427    0.4342122   -5.3003587  
N    3.4739550   -0.4103281   -4.6692605  
C    2.9321603    0.9825419   -6.6089740  
C    2.0126818    1.8474218   -7.0946453  
O    2.0979868    2.4347831   -8.3003690  
C    0.8009541    2.2267174   -6.3097814  
O    0.0060053    3.0197248   -6.8141780  
C    0.5897347    1.6507086   -4.9698091  
H    1.3012971    2.9921828   -8.3615579  
H   -0.3005436    1.9507833   -4.4335351  
H    3.2851764   -1.3290921   -2.7152375  
C    4.6995658   -0.6182132   -7.4767197  
C    4.1277366    0.6042662   -7.3760500  
C    4.9557615    1.4744089   -8.1968576  
C    6.0110565    0.5879177   -8.7326471  
N    5.8660260   -0.6399697   -8.3140211  
C    7.0444200    1.0756231   -9.6040769  
C    7.0242295    2.3891406   -9.9259449  
O    7.9262132    2.9791513  -10.7286611  
C    5.9722373    3.3092214   -9.4016141  
O    6.0156731    4.4930584   -9.7360745  
C    4.9230507    2.7848787   -8.5093148  
H    7.8032558    0.4053753   -9.9807010  
H    7.6499021    3.9125554  -10.7681769  
H    4.1791141    3.4837439   -8.1510194  
H    4.3838531   -1.5392788   -7.0131064  
C    0.8681109    0.7263879    2.2709268  
C    0.6127770    0.5096195    3.5869401  
C   -0.4920590   -0.4175482    3.6542670  
C   -0.8620974   -0.7254003    2.2596025  
N    0.0000000    0.0000000    1.4700000  
C   -1.8641242   -1.5660088    1.8976294  
C   -2.6293522   -2.2103885    2.9520183  
O   -3.5512764   -2.9839180    2.7283916  
C   -2.2549728   -1.8987399    4.4361073  
O   -2.8923672   -2.4351063    5.3323774  
C   -1.1543735   -0.9755647    4.7012123  
H    1.1382914    0.9492124    4.4159191  
H   -2.1192137   -1.7782617    0.8686553  
H   -0.9013378   -0.7652422    5.7314848  
H    1.6172880    1.3558399    1.8188057  
