60

C   -1.1178032   -0.0487174   -0.8003807  
C    0.0000000    0.0000000    0.0000000  
C    1.1313866    0.0475856   -0.8673522  
C    0.6377658    0.0253564   -2.1969277  
N   -0.7315650   -0.0351970   -2.1202240  
C    1.4758554    0.0605014   -3.3154803  
C    2.8370351    0.1194616   -3.0876848  
O    3.7006302    0.1561155   -4.1440335  
C    3.3487744    0.1420901   -1.7684323  
O    4.7257669    0.2012464   -1.7073109  
C    2.5225792    0.1071713   -0.6644810  
H    1.1059018    0.0436821   -4.3313806  
H    4.5898871    0.1944773   -3.7685115  
H    4.9889141    0.2130323   -0.7819903  
H    2.9435814    0.1255624    0.3339667  
H   -2.1599672   -0.0934841   -0.5342069  
C   -1.6467605   -0.0605395   -3.2703000  
C   -2.9988600   -0.1176637   -3.2583483  
C   -3.3866698   -0.1178897   -4.6605265  
C   -2.1081509   -0.0553822   -5.4008412  
N   -1.0847501   -0.0216367   -4.5912111  
C   -2.0606665   -0.0368845   -6.8369782  
C   -3.2369342   -0.0793092   -7.5032589  
O   -3.3414552   -0.0683796   -8.8430339  
C   -4.5437085   -0.1431429   -6.7846303  
O   -5.5751889   -0.1792305   -7.4554269  
C   -4.5660126   -0.1609541   -5.3111621  
H   -3.6523510   -0.1551227   -2.4035834  
H   -4.2991948   -0.1071749   -9.0173392  
H   -5.5329378   -0.2077421   -4.8283622  
C   -0.7699913    0.0259639   -7.5377688  
C    0.4842086    0.0731532   -7.0192795  
C    1.3993057    0.1249134   -8.1349646  
C    0.5694738    0.1038893   -9.3546889  
N   -0.7357432    0.0431235   -8.9238687  
C    1.0604104    0.1397904  -10.6193618  
C    2.5023473    0.2031550  -10.7906434  
O    3.0417326    0.2390788  -11.8888566  
C    3.4003827    0.2261488   -9.5128286  
O    4.6157467    0.2790995   -9.6445364  
C    2.7550639    0.1834274   -8.2030232  
H    0.7392192    0.0716691   -5.9744917  
H    0.4342542    0.1235947  -11.5005967  
H    3.3839348    0.1999122   -7.3232652  
H   -1.5396944    0.0174561   -9.5239110  
C    0.8400945    0.7047457    2.2710304  
C    0.0000000    0.0000000    1.4700000  
C   -0.8844236   -0.7423113    2.3369512  
C   -0.4878984   -0.4098547    3.7186280  
N    0.5629682    0.4714286    3.6095011  
C   -1.0836927   -0.9095027    4.8308716  
C   -2.1891196   -1.8367527    4.6554461  
O   -2.7906899   -2.3413415    5.5944904  
C   -2.6257283   -2.2031529    3.2011665  
O   -3.5549479   -2.9829990    3.0410059  
C   -1.9068976   -1.5999348    2.0816745  
H   -0.7774656   -0.6525820    5.8354244  
H   -2.2155208   -1.8586617    1.0779135  
H    1.6384792    1.3747609    1.9961646  
H    1.0518368    0.8833920    4.3830260  
