64

C    0.6781145   -0.7162599   -5.1604645  
C   -0.1387079    0.0017019   -4.3179684  
C   -1.0478130    0.7305978   -5.1406703  
C   -0.7352232    0.4146204   -6.4876569  
N    0.3186252   -0.4648430   -6.4638853  
C   -1.4322859    0.9549030   -7.5725470  
C   -2.4638924    1.8298711   -7.2925530  
O   -3.1776732    2.3862181   -8.3143196  
C   -2.7906191    2.1577872   -5.9551904  
O   -3.8423100    3.0433748   -5.8410699  
C   -2.1032015    1.6253726   -4.8844344  
H   -1.1988695    0.7182162   -8.6014779  
H   -3.8402269    2.9578224   -7.9049826  
H   -3.9981261    3.2117475   -4.9067382  
H   -2.3761700    1.8953599   -3.8709883  
H    1.4896294   -1.3866873   -4.9347903  
C    1.8601550   -4.5775772   -7.2998066  
C    1.3010495   -3.4718316   -6.7021481  
C    1.3553196   -2.4115236   -7.6547248  
C    1.9628403   -2.9341439   -8.8250715  
N    2.2586861   -4.2511588   -8.5749430  
C    2.1786915   -2.1655018   -9.9728464  
C    1.7736037   -0.8453079   -9.9386445  
O    1.9601319   -0.0499716  -11.0321066  
C    1.1659661   -0.3054994   -8.7801107  
O    0.8190575    1.0241592   -8.9026106  
C    0.9529565   -1.0631269   -7.6473466  
H    0.9040406   -3.4337983   -5.7021831  
H    2.6869209   -4.8836510   -9.2265176  
H    2.6413172   -2.5578397  -10.8679727  
H    1.6120291    0.8205531  -10.7991343  
H    0.4153987    1.3104301   -8.0775573  
H    2.0074874   -5.5728807   -6.9168925  
C    3.3041273    0.0001178   -1.5420428  
C    2.5845373   -0.0004780   -0.3695851  
C    1.2040007   -0.0000007   -0.7283589  
C    1.1422374    0.0006038   -2.1454372  
N    2.4348641    0.0026111   -2.6077464  
C   -0.0655179    0.0008799   -2.8497918  
C   -1.2321766    0.0002325   -2.1101402  
O   -2.4392814    0.0001148   -2.7472522  
C   -1.1911209   -0.0000007   -0.6955266  
O   -2.4371528   -0.0002320   -0.1032862  
C    0.0000000    0.0000000    0.0000000  
H    3.0031533   -0.0000660    0.6222584  
H    2.7054631   -0.0071097   -3.5745261  
H   -3.1132988   -0.0000648   -2.0551787  
H   -2.3200282   -0.0004072    0.8516409  
H    4.3686625    0.0004073   -1.7024290  
C    2.5128556    2.1077716    2.9199648  
C    1.9592212    1.6432552    4.0696553  
C    0.8915788    0.7479214    3.6910360  
C    0.8684491    0.7287414    2.2159470  
N    1.8754542    1.5738793    1.8102719  
C    0.0000000    0.0000000    1.4700000  
C   -0.9772830   -0.8200135    2.1664417  
O   -1.8021297   -1.5120829    1.5842315  
C   -0.9711318   -0.8147624    3.7284083  
O   -1.7894187   -1.5009653    4.3257297  
C    0.0140216    0.0115358    4.4216297  
H    2.2638494    1.8988021    5.0689105  
H    0.0117648    0.0094386    5.5031631  
H    3.3327358    2.7953732    2.7900019  
H    2.1123206    1.7707734    0.8551938  
