60

C   -3.3003548    0.0018919   -1.4738969  
C   -2.5232825    0.0015001   -2.6090733  
C   -1.1623208    0.0009839   -2.1820094  
C   -1.1711891    0.0008003   -0.7636130  
N   -2.4852286    0.0033138   -0.3662345  
C    0.0000000    0.0000000    0.0000000  
C    1.2020379   -0.0009333   -0.6806481  
O    2.3759235   -0.0020914    0.0157739  
C    1.2314644   -0.0003917   -2.0955509  
O    2.5054372   -0.0010333   -2.6250184  
C    0.0764506    0.0006710   -2.8495194  
H   -2.8919961    0.0026821   -3.6205285  
H   -2.8036323   -0.0067627    0.5858680  
H    3.0835622   -0.0022955   -0.6418826  
H    2.4360033   -0.0006334   -3.5845928  
H    0.1304089    0.0012463   -3.9319084  
C   -6.7690617    0.0040220   -4.2725592  
C   -5.4996714    0.0037069   -3.8032749  
C   -5.6352797    0.0039648   -2.3547894  
C   -7.0947601    0.0045546   -2.1170927  
N   -7.7645144    0.0045100   -3.2375478  
C   -7.6497391    0.0049085   -0.7915422  
C   -6.7859632    0.0042944    0.2492387  
O   -7.1644538    0.0045358    1.5387290  
C   -5.3077369    0.0033192    0.0418565  
O   -4.5810503    0.0029224    1.0354093  
C   -4.7630504    0.0030164   -1.3275378  
H   -4.5843350    0.0032540   -4.3700507  
H   -8.7202876    0.0055446   -0.6471949  
H   -6.3302569    0.0039249    2.0419868  
C   -7.2165433    0.0039390   -5.6727948  
C   -6.4545595    0.0035094   -6.7912579  
C   -7.4050479    0.0036495   -7.8926531  
C   -8.7318890    0.0040811   -7.2399068  
N   -8.6277377    0.0043332   -5.9386997  
C   -9.9527335    0.0043781   -7.9979473  
C   -9.8526163    0.0046387   -9.3467659  
O  -10.9087688    0.0049234  -10.1777792  
C   -8.5280832    0.0045867  -10.0350776  
O   -8.5122593    0.0047111  -11.2659189  
C   -7.2901977    0.0042361   -9.2353520  
H   -5.3801744    0.0032329   -6.8603487  
H  -10.9085877    0.0044849   -7.4947054  
H  -10.5210250    0.0050862  -11.0715394  
H   -6.3508287    0.0043246   -9.7718365  
C    0.8681109    0.7263879    2.2709268  
C    0.6127770    0.5096195    3.5869401  
C   -0.4920590   -0.4175482    3.6542670  
C   -0.8620974   -0.7254003    2.2596025  
N    0.0000000    0.0000000    1.4700000  
C   -1.8641242   -1.5660088    1.8976294  
C   -2.6293522   -2.2103885    2.9520183  
O   -3.5512764   -2.9839180    2.7283916  
C   -2.2549728   -1.8987399    4.4361073  
O   -2.8923672   -2.4351063    5.3323774  
C   -1.1543735   -0.9755647    4.7012123  
H    1.1382914    0.9492124    4.4159191  
H   -2.1192137   -1.7782617    0.8686553  
H   -0.9013378   -0.7652422    5.7314848  
H    1.6172880    1.3558399    1.8188057  
