62

C    2.8233664   -0.7205607   -3.3382292  
C    3.4268661   -0.4842994   -4.5516688  
C    2.5842328    0.4170778   -5.2672726  
C    1.4720842    0.6983393   -4.4330402  
N    1.6478441   -0.0100103   -3.2702994  
C    0.4355979    1.5542918   -4.8175285  
C    0.5235710    2.1371635   -6.0668078  
O   -0.4608988    2.9814396   -6.4922850  
C    1.6251367    1.8686375   -6.9137216  
O    1.5672663    2.5248764   -8.1258871  
C    2.6478820    1.0241123   -6.5351770  
H    4.3591355   -0.9101967   -4.8810315  
H   -0.4148219    1.7726465   -4.1864115  
H   -0.2071854    3.2724183   -7.3778505  
H    2.3476242    2.2892251   -8.6368809  
H    3.1377238   -1.3408256   -2.5163961  
C    1.1188644    0.0008222   -0.8003802  
C    0.0000000    0.0000000    0.0000000  
C   -1.1323859    0.0008892   -0.8673531  
C   -0.6382655    0.0019669   -2.1969283  
N    0.7324019    0.0038477   -2.1202237  
C   -1.4770904    0.0027303   -3.3154812  
C   -2.8395467    0.0020925   -3.0876865  
O   -3.7039188    0.0024401   -4.1440357  
C   -3.3517866    0.0013913   -1.7684335  
O   -4.7300494    0.0012345   -1.7073130  
C   -2.5248543    0.0009112   -0.6644822  
H   -1.1067560    0.0036971   -4.3313815  
H   -4.5940025    0.0021802   -3.7685138  
H   -4.9934597    0.0007243   -0.7819929  
H   -2.9462580    0.0005593    0.3339652  
H    2.1619896    0.0009358   -0.5342059  
C    3.7749258    0.7708419   -7.4443116  
C    4.8643707   -0.0181480   -7.2580876  
C    5.6664378    0.0823857   -8.4545063  
C    4.9498430    1.0012308   -9.3594953  
N    3.8112071    1.3827920   -8.6880720  
C    5.3835558    1.3569716  -10.5952322  
C    6.6398761    0.7973684  -11.0653812  
O    7.1149164    1.0562773  -12.1633811  
C    7.4154390   -0.1781026  -10.1237001  
O    8.4741264   -0.6557410  -10.5088004  
C    6.8472336   -0.4858477   -8.8136285  
H    5.0812725   -0.6038795   -6.3825959  
H    4.8427205    2.0326810  -11.2431694  
H    7.3905229   -1.1619693   -8.1675475  
H    3.1149332    2.0108221   -9.0456033  
C    2.5528530    2.1414826    2.8079335  
C    2.0663498    1.7338582    4.0032312  
C    0.9804344    0.8229586    3.6752840  
C    0.9495562    0.7966882    2.1971295  
N    1.8690446    1.5676019    1.6831036  
C    0.0000000    0.0000000    1.4700000  
C   -0.8785127   -0.7372425    2.1869543  
O   -1.8187535   -1.5261249    1.6395491  
C   -0.8723269   -0.7321790    3.6796354  
O   -1.7010379   -1.4274584    4.2670412  
C    0.1115397    0.0933559    4.4024240  
H    2.4028853    2.0163452    4.9860947  
H   -2.2861435   -1.9184361    2.3990168  
H    0.0832434    0.0693689    5.4835595  
H    3.3664920    2.8238276    2.6198634  
