58

C    6.5739137    0.0018721   -4.3537915  
C    7.6280829    0.0019470   -3.4977528  
C    7.0842286    0.0017737   -2.1601960  
C    5.6162776    0.0015611   -2.3082178  
N    5.3720684    0.0020316   -3.6621941  
C    4.7390840    0.0009613   -1.2727298  
C    5.2766310    0.0007201    0.0776699  
O    4.5688490    0.0002470    1.0763413  
C    6.8281778    0.0011907    0.2579657  
O    7.2923831    0.0012996    1.3901206  
C    7.6713704    0.0015461   -0.9348787  
H    8.6679891    0.0022879   -3.7719937  
H    8.7446421    0.0016655   -0.8014251  
H    4.4610946    0.0004680   -4.0831113  
C    6.5739134    0.0019520   -5.8237915  
C    7.6280814    0.0017756   -6.6798315  
C    7.0842263    0.0020013   -8.0173871  
C    5.6162754    0.0023552   -7.8693636  
N    5.3720674    0.0019083   -6.5153879  
C    4.7390809    0.0030396   -8.9048512  
C    5.2766267    0.0032290  -10.2552514  
O    4.5688437    0.0037704  -11.2539219  
C    6.8281736    0.0026089  -10.4355485  
O    7.2923778    0.0024553  -11.5677040  
C    7.6713666    0.0021724   -9.2427045  
H    8.6679886    0.0013345   -6.4055906  
H    3.6658070    0.0034193   -8.7744963  
H    8.7446395    0.0019495   -9.3761596  
H    4.4610936    0.0035597   -6.0944699  
C    3.2798077    0.0005856   -1.4499661  
C    2.5571132    0.0005565   -2.5996564  
C    1.1637425    0.0001547   -2.2210366  
C    1.1336959   -0.0000200   -0.7459475  
N    2.4483509   -0.0001429   -0.3402730  
C    0.0000000    0.0000000    0.0000000  
C   -1.2757370   -0.0000187   -0.6964411  
O   -2.3524597   -0.0000640   -0.1142306  
C   -1.2676502   -0.0000874   -2.2584078  
O   -2.3355774   -0.0004102   -2.8557287  
C    0.0181551    0.0001758   -2.9516297  
H    2.9547342    0.0006074   -3.5989118  
H    0.0150776    0.0003317   -4.0331632  
H    2.7563626    0.0012823    0.6148051  
C    0.8400945    0.7047457    2.2710304  
C    0.0000000    0.0000000    1.4700000  
C   -0.8844236   -0.7423113    2.3369512  
C   -0.4878984   -0.4098547    3.7186280  
N    0.5629682    0.4714286    3.6095011  
C   -1.0836927   -0.9095027    4.8308716  
C   -2.1891196   -1.8367527    4.6554461  
O   -2.7906899   -2.3413415    5.5944904  
C   -2.6257283   -2.2031529    3.2011665  
O   -3.5549479   -2.9829990    3.0410059  
C   -1.9068976   -1.5999348    2.0816745  
H   -0.7774656   -0.6525820    5.8354244  
H   -2.2155208   -1.8586617    1.0779135  
H    1.6384792    1.3747609    1.9961646  
H    1.0518368    0.8833920    4.3830260  
