58

C    5.1951194   -1.0837498   -7.1687937  
C    5.9873243   -0.7499930   -8.2200273  
C    5.8349397    0.6707542   -8.4276139  
C    4.8822090    1.1407286   -7.4037874  
N    4.5318911    0.0286585   -6.6733988  
C    4.4751080    2.4279130   -7.2654820  
C    5.0108918    3.4163525   -8.1866008  
O    4.7059023    4.6010253   -8.1437943  
C    6.0211250    2.9409200   -9.2789372  
O    6.4786700    3.7640040  -10.0602463  
C    6.3841734    1.5268506   -9.3284898  
H    6.6075070   -1.4223678   -8.7856240  
H    3.7754360    2.7517369   -6.5075199  
H    7.0844099    1.2058296  -10.0876595  
H    5.0398472   -2.0488123   -6.7144426  
C    4.6190967   -2.0899187   -2.8279649  
C    3.4606683   -1.6280057   -2.2906061  
C    2.8761401   -0.7301694   -3.2586205  
C    3.7955634   -0.7067285   -4.4122676  
N    4.8319965   -1.5514033   -4.0878914  
C    3.5979916    0.0246978   -5.5381832  
C    2.3999527    0.8436571   -5.6190796  
O    2.1321349    1.5380348   -6.5908895  
C    1.4124499    0.8342975   -4.4088912  
O    0.4006155    1.5200500   -4.4654210  
C    1.7334695    0.0049281   -3.2500363  
H    3.0613134   -1.8865707   -1.3260992  
H    5.3352943   -2.7782579   -2.4094676  
H    5.6204864   -1.7480985   -4.6766544  
C    1.1319246    0.0015678   -0.8009268  
C    0.7969914    0.0034958   -2.1169401  
C   -0.6453340    0.0035696   -2.1842669  
C   -1.1266832    0.0015410   -0.7896025  
N    0.0000000    0.0000000    0.0000000  
C   -2.4346129    0.0013913   -0.4276292  
C   -3.4350111    0.0031335   -1.4820181  
O   -4.6384614    0.0030875   -1.2583914  
C   -2.9478961    0.0050442   -2.9661074  
O   -3.7809382    0.0062135   -3.8623773  
C   -1.5113825    0.0053055   -3.2312122  
H   -2.7664565    0.0000174    0.6013448  
H   -1.1823533    0.0068381   -4.2614848  
H    2.1104316    0.0009435   -0.3488059  
C    2.3971438    2.0127888    3.1728260  
C    1.9431056    1.6308205    1.9564670  
C    0.8496017    0.7127664    2.2356185  
C    0.7794028    0.6545384    3.7115134  
N    1.6840587    1.4146091    4.2663826  
C   -0.1885723   -0.1578550    4.3957118  
C   -1.0476298   -0.8789867    3.6398520  
O   -2.0015663   -1.6796266    4.1448486  
C   -1.0022026   -0.8410666    2.1483229  
O   -1.8147390   -1.5232959    1.5241687  
C    0.0000000    0.0000000    1.4700000  
H    2.3054237    1.9346118    0.9892483  
H   -0.2170646   -0.1815267    5.4753125  
H   -2.4487139   -2.0549881    3.3649027  
H    3.2048689    2.6911772    3.3971983  
