58

C   -3.2797914   -0.0108270   -1.4499644  
C   -2.5571011   -0.0085413   -2.5996551  
C   -1.1637379   -0.0037887   -2.2210360  
C   -1.1336916   -0.0035200   -0.7459469  
N   -2.4483407   -0.0075022   -0.3402718  
C    0.0000000    0.0000000    0.0000000  
C    1.2757305    0.0040022   -0.6964418  
O    2.3524472    0.0074096   -0.1142322  
C    1.2676417    0.0040455   -2.2584083  
O    2.3355630    0.0077030   -2.8557301  
C   -0.0181564   -0.0002327   -2.9516298  
H   -2.9547199   -0.0098339   -3.5989098  
H   -0.0150793   -0.0003790   -4.0331632  
H   -2.7563455   -0.0098892    0.6148067  
C   -5.6706182   -0.0174260   -2.2998274  
C   -6.9366478   -0.0197517   -1.8086668  
C   -6.8295844   -0.0192067   -0.3687457  
C   -5.3870598   -0.0163232   -0.0590617  
N   -4.7390592   -0.0157593   -1.2727275  
C   -4.8700337   -0.0146260    1.1956838  
C   -5.7961140   -0.0159381    2.3159105  
O   -5.4290218   -0.0146520    3.4836189  
C   -7.3281054   -0.0192424    2.0112847  
O   -8.1173976   -0.0206775    2.9463123  
C   -7.7644743   -0.0205649    0.6172142  
H   -3.8085574   -0.0123870    1.4010438  
H   -8.8269007   -0.0226484    0.4148048  
H   -5.3397730   -0.0170063   -3.3257077  
C   -8.0962124   -2.1173876   -5.5170039  
C   -7.4246721   -1.6531142   -4.4318500  
C   -8.3181862   -0.7582486   -3.7349404  
C   -9.5743439   -0.7391231   -4.5085633  
N   -9.3744343   -1.5832057   -5.5764820  
C  -10.6706973   -0.0113835   -4.1767368  
C  -10.6093335    0.8078790   -2.9777466  
O  -11.5441104    1.4991214   -2.5947631  
C   -9.2888870    0.8030574   -2.1433588  
O   -9.2253319    1.4891053   -1.1321412  
C   -8.1743864   -0.0225741   -2.6016965  
H   -6.4181809   -1.9082484   -4.1516794  
H  -11.5823600   -0.0116039   -4.7579274  
H   -7.7647881   -2.8046650   -6.2783827  
H  -10.0532999   -1.7822565   -6.2882181  
C    0.8400945    0.7047457    2.2710304  
C    0.0000000    0.0000000    1.4700000  
C   -0.8844236   -0.7423113    2.3369512  
C   -0.4878984   -0.4098547    3.7186280  
N    0.5629682    0.4714286    3.6095011  
C   -1.0836927   -0.9095027    4.8308716  
C   -2.1891196   -1.8367527    4.6554461  
O   -2.7906899   -2.3413415    5.5944904  
C   -2.6257283   -2.2031529    3.2011665  
O   -3.5549479   -2.9829990    3.0410059  
C   -1.9068976   -1.5999348    2.0816745  
H   -0.7774656   -0.6525820    5.8354244  
H   -2.2155208   -1.8586617    1.0779135  
H    1.6384792    1.3747609    1.9961646  
H    1.0518368    0.8833920    4.3830260  
