58

C   -1.1319149    0.0048922   -0.8009265  
C   -0.7969980    0.0010528   -2.1169402  
C    0.6453036   -0.0072524   -2.1842663  
C    1.1266564   -0.0079710   -0.7896022  
N    0.0000000    0.0000000    0.0000000  
C    2.4345657   -0.0152858   -0.4276284  
C    3.4349378   -0.0227374   -1.4820167  
O    4.6383679   -0.0295596   -1.2583896  
C    2.9478200   -0.0218680   -2.9661066  
O    3.7808417   -0.0277916   -3.8623762  
C    1.5113287   -0.0139311   -3.2312116  
H    2.7664110   -0.0158058    0.6013457  
H    1.1822961   -0.0135856   -4.2614844  
H   -2.1104023    0.0111010   -0.3488058  
C   -1.7334685    0.0049652   -3.2500367  
C   -3.0863065    0.0119124   -3.2131616  
C   -3.4995424    0.0129351   -4.6080581  
C   -2.2333967    0.0059740   -5.3718714  
N   -1.1947553    0.0012003   -4.5811826  
C   -2.2116413    0.0047262   -6.8087469  
C   -3.4007139    0.0097956   -7.4532752  
O   -3.5293448    0.0093407   -8.7909945  
C   -4.6955420    0.0165024   -6.7106204  
O   -5.7397973    0.0210083   -7.3623342  
C   -4.6914271    0.0177012   -5.2368814  
H   -3.7249293    0.0157659   -2.3464311  
H   -1.2717387   -0.0002073   -7.3411643  
H   -4.4909070    0.0137028   -8.9476239  
C   -6.1075111    2.1351195   -1.6599294  
C   -7.3849952    1.6764520   -1.6182947  
C   -7.5474787    0.7808532   -2.7391597  
C   -6.2506319    0.7551436   -3.4422372  
N   -5.4211750    1.5971390   -2.7380108  
C   -5.9945529    0.0242389   -4.5566459  
C   -7.0679006   -0.7913785   -5.0999951  
O   -6.9366275   -1.4849410   -6.1000151  
C   -8.4496824   -0.7791888   -4.3717543  
O   -9.3609782   -1.4616477   -4.8201411  
C   -8.6045736    0.0488832   -3.1783734  
H   -8.1286864    1.9360381   -0.8860707  
H   -9.5643851    0.0515990   -2.6798973  
H   -5.6097758    2.8210534   -0.9938633  
H   -4.4640123    1.7894707   -2.9701640  
C    0.8681109    0.7263879    2.2709268  
C    0.6127770    0.5096195    3.5869401  
C   -0.4920590   -0.4175482    3.6542670  
C   -0.8620974   -0.7254003    2.2596025  
N    0.0000000    0.0000000    1.4700000  
C   -1.8641242   -1.5660088    1.8976294  
C   -2.6293522   -2.2103885    2.9520183  
O   -3.5512764   -2.9839180    2.7283916  
C   -2.2549728   -1.8987399    4.4361073  
O   -2.8923672   -2.4351063    5.3323774  
C   -1.1543735   -0.9755647    4.7012123  
H    1.1382914    0.9492124    4.4159191  
H   -2.1192137   -1.7782617    0.8686553  
H   -0.9013378   -0.7652422    5.7314848  
H    1.6172880    1.3558399    1.8188057  
