60

C   -0.0307358   -0.0004643   -4.4215602  
C    1.0209930   -0.0006519   -5.2805951  
C    0.4733348   -0.0007741   -6.6165989  
C   -0.9941891   -0.0006121   -6.4644009  
N   -1.2345445   -0.0008267   -5.1097353  
C   -1.8743257   -0.0002659   -7.4973888  
C   -1.3406230   -0.0002637   -8.8493124  
O   -2.0512444   -0.0000277   -9.8459663  
C    0.2104047   -0.0006857   -9.0340221  
O    0.6713865   -0.0009944  -10.1674936  
C    1.0569876   -0.0007580   -7.8435818  
H    2.0616754   -0.0008816   -5.0093143  
H   -2.9472243   -0.0000221   -7.3639810  
H    2.1298761   -0.0008456   -7.9800891  
H   -2.1443170    0.0007710   -4.6862273  
C    3.2573667   -0.0002917   -1.5109384  
C    2.5379466   -0.0001708   -0.3591963  
C    1.1435040    0.0000333   -0.7338502  
C    1.1092604   -0.0000080   -2.2088477  
N    2.4227557    0.0001912   -2.6182616  
C   -0.0265537   -0.0002520   -2.9515661  
C   -1.3003040   -0.0002638   -2.2514979  
O   -2.3786786   -0.0004130   -2.8306424  
C   -1.2877728    0.0000313   -0.6895606  
O   -2.3539959    0.0003306   -0.0892032  
C    0.0000000    0.0000000    0.0000000  
H    2.9384091   -0.0000367    0.6389235  
H    2.7280487   -0.0013403   -3.5742117  
C    4.7161330   -0.0005432   -1.6923264  
C    5.6747634   -0.0008961   -0.7370222  
C    6.9326495   -0.0010015   -1.4679274  
C    6.5359790   -0.0007813   -2.8924401  
N    5.2379004   -0.0004315   -3.0302104  
C    7.5063008   -0.0007603   -3.9524220  
C    8.8134761   -0.0005617   -3.6051056  
O    9.8251245   -0.0005263   -4.4897572  
C    9.2455282   -0.0004050   -2.1762978  
O   10.4523082   -0.0003514   -1.9335987  
C    8.2310911   -0.0004738   -1.1072602  
H    5.5443950   -0.0009739    0.3316592  
H    7.1881015   -0.0008038   -4.9847296  
H   10.6319769   -0.0003439   -3.9437336  
H    8.5850042   -0.0002402   -0.0850199  
C    0.0000000    0.0000000    1.4700000  
C    1.0521667    0.0011902    2.3562342  
C    0.4917218    0.0011957    3.6679131  
C   -0.9187428   -0.0003148    3.5178682  
N   -1.1833171    0.0009411    2.1707914  
C   -1.7951701   -0.0010350    4.6072090  
C   -1.2375837   -0.0005224    5.8710424  
O   -2.0474215   -0.0015360    6.9697579  
C    0.1673580    0.0013566    6.0411963  
O    0.5673524    0.0020687    7.3615553  
C    1.0325770    0.0023412    4.9669890  
H    2.0953057    0.0030649    2.0900562  
H   -2.0989778   -0.0102372    1.7591824  
H   -2.8710934   -0.0020419    4.4995513  
H   -1.4634884   -0.0006497    7.7393593  
H    1.5290710    0.0033153    7.3880045  
H    2.1042148    0.0039609    5.1284455  
