60

C    1.1188644    0.0008221   -0.8003800  
C    0.0000000    0.0000000    0.0000000  
C   -1.1323862    0.0008898   -0.8673528  
C   -0.6382657    0.0019678   -2.1969278  
N    0.7324022    0.0038479   -2.1202235  
C   -1.4770906    0.0027317   -3.3154808  
C   -2.8395468    0.0020943   -3.0876862  
O   -3.7039190    0.0024425   -4.1440357  
C   -3.3517866    0.0013930   -1.7684337  
O   -4.7300490    0.0012365   -1.7073132  
C   -2.5248543    0.0009123   -0.6644820  
H    1.3576320   -0.0056170   -2.9057037  
H   -4.5940019    0.0021828   -3.7685142  
H   -4.9934598    0.0007262   -0.7819929  
H   -2.9462579    0.0005602    0.3339648  
H    2.1619894    0.0009352   -0.5342066  
C    1.8643876   -2.0046421   -5.4763639  
C    1.0207151   -1.6242496   -4.4888941  
C    0.0877448   -0.7071218   -5.1252453  
C    0.5271961   -0.6476496   -6.5358937  
N    1.5681767   -1.4062512   -6.7477267  
C   -0.1489730    0.1643148   -7.5098529  
C   -1.2158991    0.8838465   -7.0935867  
O   -1.9402382    1.6839123   -7.8943796  
C   -1.6840051    0.8446417   -5.6767239  
O   -2.6620642    1.5254390   -5.3682834  
C   -0.9736284    0.0040463   -4.6965764  
H    1.0302558   -1.9285164   -3.4562241  
H   -2.6279609    2.0580956   -7.3145714  
H    2.7010000   -2.6819611   -5.4108473  
C    1.3604758   -2.9741779  -10.2242329  
C    0.8705162   -2.2922405   -9.1570046  
C    0.7484954   -0.9110712   -9.5598900  
C    1.2108174   -0.8437726  -10.9593611  
N    1.5681407   -2.1273326  -11.3024108  
C    1.2499595    0.2911255  -11.7024485  
C    0.8074076    1.5289751  -11.0824401  
O    0.8046399    2.6036244  -11.6684614  
C    0.3139655    1.4811131   -9.6012144  
O   -0.0607506    2.5170118   -9.0685202  
C    0.3177231    0.1977995   -8.9034003  
H    0.6230142   -2.7091427   -8.1970312  
H    1.5925281    0.3187533  -12.7275314  
H    1.5875207   -4.0240976  -10.3137270  
H    1.9230058   -2.4063361  -12.1986674  
C    0.8400945    0.7047457    2.2710304  
C    0.0000000    0.0000000    1.4700000  
C   -0.8844236   -0.7423113    2.3369512  
C   -0.4878984   -0.4098547    3.7186280  
N    0.5629682    0.4714286    3.6095011  
C   -1.0836927   -0.9095027    4.8308716  
C   -2.1891196   -1.8367527    4.6554461  
O   -2.7906899   -2.3413415    5.5944904  
C   -2.6257283   -2.2031529    3.2011665  
O   -3.5549479   -2.9829990    3.0410059  
C   -1.9068976   -1.5999348    2.0816745  
H   -0.7774656   -0.6525820    5.8354244  
H   -2.2155208   -1.8586617    1.0779135  
H    1.6384792    1.3747609    1.9961646  
H    1.0518368    0.8833920    4.3830260  
