64

C    1.1188649    0.0008223   -0.8003809  
C    0.0000000    0.0000000    0.0000000  
C   -1.1323859    0.0008898   -0.8673530  
C   -0.6382651    0.0019678   -2.1969287  
N    0.7324024    0.0038481   -2.1202242  
C   -1.4770903    0.0027319   -3.3154817  
C   -2.8395469    0.0020944   -3.0876865  
O   -3.7039190    0.0024425   -4.1440359  
C   -3.3517863    0.0013930   -1.7684340  
O   -4.7300491    0.0012365   -1.7073134  
C   -2.5248538    0.0009123   -0.6644826  
H   -1.1067558    0.0036986   -4.3313816  
H   -4.5940024    0.0021827   -3.7685147  
H   -4.9934598    0.0007262   -0.7819928  
H   -2.9462575    0.0005602    0.3339646  
H    2.1619898    0.0009355   -0.5342066  
C    4.5872068   -2.1313003   -2.8760565  
C    3.4257632   -1.6618669   -2.3075954  
C    2.8225616   -0.7845961   -3.2568814  
C    3.6683580   -0.7581070   -4.3952367  
N    4.7314860   -1.5851497   -4.1299508  
C    3.3837523    0.0055789   -5.5312702  
C    2.2240422    0.7559615   -5.5180177  
O    1.8977521    1.5195630   -6.6012814  
C    1.3675647    0.7429390   -4.3914764  
O    0.2523242    1.5428638   -4.5318413  
C    1.6478443   -0.0100100   -3.2702998  
H    3.0590290   -1.9191256   -1.3286585  
H    5.4907282   -1.7742962   -4.7590422  
H    1.0629731    1.9557297   -6.3864166  
H   -0.2722932    1.4770480   -3.7280697  
H    5.3248330   -2.8113800   -2.4857246  
C    4.9101146   -1.0467071   -7.2468892  
C    5.6446951   -0.6435203   -8.3378978  
C    5.4341263    0.7594288   -8.4862027  
C    4.5547806    1.1603628   -7.4479697  
N    4.2546355    0.0390400   -6.7150533  
C    4.1283453    2.4820318   -7.2863156  
C    4.5984034    3.4160296   -8.1890169  
O    4.2140018    4.7209140   -8.0770988  
C    5.4761163    3.0353697   -9.2318679  
O    5.8550826    4.0805705  -10.0487420  
C    5.8970054    1.7316438   -9.3921080  
H    6.2561257   -1.2822429   -8.9520465  
H    3.4581438    2.7940103   -6.4972007  
H    4.6497210    5.1965567   -8.7962489  
H    6.4467841    3.7383544  -10.7257803  
H    6.5695633    1.4699805  -10.2006106  
H    4.8007467   -2.0231222   -6.8068763  
C    0.8681109    0.7263879    2.2709268  
C    0.6127770    0.5096195    3.5869401  
C   -0.4920590   -0.4175482    3.6542670  
C   -0.8620974   -0.7254003    2.2596025  
N    0.0000000    0.0000000    1.4700000  
C   -1.8641242   -1.5660088    1.8976294  
C   -2.6293522   -2.2103885    2.9520183  
O   -3.5512764   -2.9839180    2.7283916  
C   -2.2549728   -1.8987399    4.4361073  
O   -2.8923672   -2.4351063    5.3323774  
C   -1.1543735   -0.9755647    4.7012123  
H    1.1382914    0.9492124    4.4159191  
H   -2.1192137   -1.7782617    0.8686553  
H   -0.9013378   -0.7652422    5.7314848  
H    1.6172880    1.3558399    1.8188057  
