64

C    1.1243401    0.0100483   -0.7919007  
C    0.7474053    0.0234914   -2.1148547  
C   -0.6787405    0.0234146   -2.1414695  
C   -1.1201753    0.0098030   -0.7935540  
N    0.0000000    0.0000000    0.0000000  
C   -2.4730825    0.0062471   -0.4408226  
C   -3.3971975    0.0169279   -1.4675047  
O   -4.7313530    0.0143892   -1.1793449  
C   -2.9763681    0.0302012   -2.8186308  
O   -4.0166516    0.0393103   -3.7247604  
C   -1.6418596    0.0334433   -3.1673474  
H   -2.8160158   -0.0042520    0.5845977  
H   -5.1938843    0.0228267   -2.0274355  
H   -3.6464720    0.0480461   -4.6127323  
H   -1.3497512    0.0435186   -4.2109226  
H    2.1062461    0.0053870   -0.3505415  
C    2.8388809   -0.6742549   -3.3474595  
C    3.4422633   -0.4126037   -4.5557374  
C    2.5990617    0.5027998   -5.2526214  
C    1.4867033    0.7660554   -4.4128112  
N    1.6628917    0.0339729   -3.2649308  
C    0.4496687    1.6290828   -4.7795968  
C    0.5372983    2.2376732   -6.0165759  
O   -0.4477113    3.0899068   -6.4245804  
C    1.6390661    1.9874050   -6.8688026  
O    1.5808034    2.6684852   -8.0671677  
C    2.6623526    1.1359161   -6.5077242  
H    4.3748212   -0.8310021   -4.8937789  
H   -0.4009138    1.8338089   -4.1441454  
H   -0.1941610    3.3992672   -7.3039399  
H    2.3613307    2.4439419   -8.5828817  
H    3.1536194   -1.3111443   -2.5385896  
C    4.9667625   -2.5456854   -7.5684640  
C    4.0684789   -1.6618791   -7.0167019  
C    4.3461535   -0.3806560   -7.5788093  
C    5.4332978   -0.5459753   -8.4747512  
N    5.7869906   -1.8720634   -8.4429960  
C    5.9755633    0.5127866   -9.2094354  
C    5.4098628    1.7611222   -9.0367487  
O    5.9003104    2.8298706   -9.7297500  
C    4.3248805    1.9461912   -8.1471530  
O    3.8726169    3.2481049   -8.0853364  
C    3.7895901    0.9022014   -7.4218426  
H    3.3074871   -1.9098800   -6.2967154  
H    6.5216643   -2.2898896   -8.9848975  
H    6.8041785    0.3933835   -9.8937888  
H    5.3705926    3.5932043   -9.4652035  
H    3.1400486    3.2863649   -7.4628547  
H    5.0882008   -3.6030007   -7.4063036  
C    2.4951002    2.0940188    2.9809380  
C    1.9440701    1.6314916    1.8291961  
C    0.8759964    0.7350050    2.2038498  
C    0.8497377    0.7130254    3.6788474  
N    1.8560616    1.5571714    4.0882609  
C   -0.0205033   -0.0168748    4.4215661  
C   -0.9962600   -0.8356168    3.7214979  
O   -1.8224391   -1.5286685    4.3006425  
C   -0.9864710   -0.8277881    2.1595606  
O   -1.8030528   -1.5133726    1.5592035  
C    0.0000000    0.0000000    1.4700000  
H    2.2509283    1.8888011    0.8310761  
H   -0.0229599   -0.0187323    5.5027230  
H    3.3143982    2.7817323    3.1139444  
H    2.0889452    1.7545833    5.0442112  
