58

C    0.8353407   -0.7266722   -5.2248496  
C    0.5761897   -0.5101812   -6.5401622  
C   -0.5291500    0.4165998   -6.6044784  
C   -0.8953242    0.7245273   -5.2088111  
N   -0.0307359   -0.0004648   -4.4215606  
C   -1.8966041    1.5648462   -4.8441094  
C   -2.6650489    2.2088125   -5.8964093  
O   -3.5865974    2.9820599   -5.6702711  
C   -2.2947869    1.8970770   -7.3815126  
O   -2.9349117    2.4330964   -8.2760428  
C   -1.1946309    0.9742393   -7.6496151  
H    1.0994937   -0.9497145   -7.3705699  
H   -2.1488378    1.7771609   -3.8144438  
H   -0.9444559    0.7638543   -8.6805735  
H    1.5860162   -1.3558034   -4.7747714  
C    3.2573667   -0.0002920   -1.5109386  
C    2.5379466   -0.0001709   -0.3591965  
C    1.1435040    0.0000332   -0.7338503  
C    1.1092604   -0.0000083   -2.2088478  
N    2.4227557    0.0001908   -2.6182616  
C   -0.0265538   -0.0002523   -2.9515663  
C   -1.3003040   -0.0002641   -2.2514979  
O   -2.3786787   -0.0004133   -2.8306426  
C   -1.2877728    0.0000312   -0.6895607  
O   -2.3539959    0.0003306   -0.0892033  
C    0.0000000    0.0000000    0.0000000  
H    2.9384091   -0.0000368    0.6389234  
H    2.7280486   -0.0013408   -3.5742120  
C    4.7161330   -0.0005435   -1.6923266  
C    5.6957072   -0.0010600   -0.7518432  
C    6.9559338   -0.0010601   -1.4565873  
C    6.6279078   -0.0004681   -2.8950550  
N    5.2541452   -0.0005756   -2.9703260  
C    7.5472421    0.0001050   -3.8933172  
C    8.9536517   -0.0000850   -3.5265089  
O    9.8573549    0.0003297   -4.3521114  
C    9.3240199   -0.0009621   -2.0090664  
O   10.5048028   -0.0014358   -1.6881095  
C    8.2443355   -0.0012473   -1.0251286  
H    5.5518787   -0.0015843    0.3139555  
H    7.2854493    0.0006638   -4.9423043  
H    8.5092053   -0.0016498    0.0234744  
H    4.7240363    0.0012977   -3.8223993  
C    0.0000000    0.0000000    1.4700000  
C    1.0662921    0.0000102    2.3034270  
C    0.4961870   -0.0000064    3.6418889  
C   -0.9663858    0.0000850    3.4240247  
N   -1.2632773    0.0000084    2.1528658  
C   -1.8985362    0.0000517    4.5177257  
C   -1.3925775   -0.0004564    5.7720543  
O   -2.1456383   -0.0005410    6.8851312  
C    0.0786232   -0.0009323    6.0245000  
O    0.4683759   -0.0012588    7.1921102  
C    1.0143166   -0.0008442    4.8859032  
H    2.1107198   -0.0000632    2.0421868  
H   -2.9622183    0.0003270    4.3293377  
H   -1.5042274   -0.0009692    7.6184419  
H    2.0724152   -0.0013148    5.1109744  
