58

C   -6.3143419    1.1089215   -0.9135921  
C   -6.1215021    1.9810552    0.1092816  
C   -7.4199327    2.2577802    0.6770279  
C   -8.3920006    1.4697013   -0.1045132  
N   -7.6579520    0.7959674   -1.0532728  
C   -9.7302179    1.4575217    0.1207256  
C  -10.2476983    2.2753355    1.2051289  
O  -11.4374215    2.3321667    1.4873143  
C   -9.2363695    3.1182220    2.0457011  
O   -9.6603714    3.8108102    2.9610184  
C   -7.8169126    3.0490874    1.7077451  
H   -5.1774373    2.3846253    0.4294147  
H  -10.4260064    0.8721950   -0.4642369  
H   -7.1231962    3.6355587    2.2947136  
H   -8.0392861    0.1713933   -1.7399593  
C   -3.9834218    0.7255592   -1.7966835  
C   -5.3237509    0.5085137   -1.8186564  
C   -5.5825288   -0.4184187   -2.8950701  
C   -4.2737047   -0.7258308   -3.5027435  
N   -3.3460097   -0.0004262   -2.7913647  
C   -4.0918496   -1.5661180   -4.5527675  
C   -5.2633971   -2.2105922   -5.1225625  
O   -5.2038133   -2.9838537   -6.0695664  
C   -6.6595195   -1.8994068   -4.4950176  
O   -7.6531001   -2.4358567   -4.9664843  
C   -6.7288169   -0.9765510   -3.3648030  
H   -3.1230855   -1.7780504   -4.9834532  
H   -7.6992173   -0.7665488   -2.9359134  
H   -3.4077090    1.3549553   -1.1376654  
C    0.0000000    0.0000000    0.0000000  
C    1.0662919   -0.0000103   -0.8334272  
C    0.4961868    0.0000066   -2.1718889  
C   -0.9663860   -0.0000849   -1.9540248  
N   -1.2632775   -0.0000084   -0.6828659  
C   -1.8985364   -0.0000515   -3.0477258  
C   -1.3925778    0.0004567   -4.3020543  
O   -2.1456385    0.0005412   -5.4151314  
C    0.0786229    0.0009326   -4.5544999  
O    0.4683756    0.0012594   -5.7221104  
C    1.0143162    0.0008443   -3.4159034  
H    2.1107195    0.0000631   -0.5721869  
H   -1.5042277    0.0009692   -6.1484420  
H    2.0724151    0.0013151   -3.6409746  
C    3.2573670    0.0002920    2.9809380  
C    2.5379467    0.0001709    1.8291961  
C    1.1435042   -0.0000331    2.2038498  
C    1.1092607    0.0000083    3.6788474  
N    2.4227561   -0.0001909    4.0882609  
C   -0.0265533    0.0002524    4.4215661  
C   -1.3003036    0.0002640    3.7214979  
O   -2.3786784    0.0004133    4.3006425  
C   -1.2877726   -0.0000311    2.1595606  
O   -2.3539958   -0.0003306    1.5592035  
C    0.0000000    0.0000000    1.4700000  
H    2.9384090    0.0000368    0.8310761  
H   -0.0296291    0.0004086    5.5027230  
H    4.3270393    0.0004765    3.1139444  
H    2.7280493    0.0013407    5.0442112  
