62

C    1.1243418    0.0099229   -0.7919009  
C    0.7474090    0.0234085   -2.1148548  
C   -0.6787364    0.0234916   -2.1414702  
C   -1.1201739    0.0099289   -0.7935547  
N    0.0000000    0.0000000    0.0000000  
C   -2.4730813    0.0065243   -0.4408242  
C   -3.3971945    0.0173091   -1.4675058  
O   -4.7313507    0.0149194   -1.1793465  
C   -2.9763633    0.0305360   -2.8186327  
O   -4.0166457    0.0397618   -3.7247620  
C   -1.6418543    0.0336287   -3.1673482  
H   -2.8160166   -0.0039364    0.5845966  
H   -5.1938803    0.0234092   -2.0274379  
H   -3.6464645    0.0484567   -4.6127343  
H   -1.3497445    0.0436713   -4.2109236  
H    2.1062469    0.0051515   -0.3505410  
C    4.5588325   -2.0914295   -2.8627789  
C    4.8000438   -1.5806194   -4.1171142  
C    3.7182711   -0.7031725   -4.4244488  
C    2.8403310   -0.7187822   -3.3104900  
N    3.3795178   -1.5732322   -2.3810763  
C    1.6628969    0.0337879   -3.2649303  
C    1.3664901    0.8166058   -4.3638005  
O    0.2294637    1.5716681   -4.3719360  
C    2.2297468    0.8452125   -5.4848654  
O    1.7959066    1.6732583   -6.4994921  
C    3.3913434    0.1028338   -5.5306116  
H    5.6504542   -1.8128085   -4.7350814  
H    2.9825538   -1.7781657   -1.4819637  
H    0.2148247    2.0340638   -5.2200169  
H    2.4349449    1.6348289   -7.2176550  
H    4.0327912    0.1449298   -6.4031089  
C    6.5408043   -3.6209231   -2.4494993  
C    7.0152244   -4.4518711   -1.4858987  
C    6.0706301   -4.4135625   -0.3945194  
C    4.9993121   -3.4855501   -0.8042292  
N    5.3441849   -3.0391759   -2.0591007  
C    3.9168398   -3.1779096   -0.0457333  
C    3.7991808   -3.8023116    1.2614827  
O    2.8615963   -3.5898693    2.0191797  
C    4.9222526   -4.7882150    1.7159149  
O    4.8341785   -5.3197254    2.8145505  
C    6.0403311   -5.0407774    0.8103957  
H    7.9233525   -5.0259776   -1.5340623  
H    3.1422020   -2.4946427   -0.3650957  
H    6.8136696   -5.7248428    1.1324610  
H    6.9647835   -3.3844298   -3.4118933  
C    0.0000000    0.0000000    1.4700000  
C    1.0541688    0.0001722    2.3260392  
C    0.5103138    0.0000454    3.6635956  
C   -0.9576371   -0.0002459    3.5155732  
N   -1.2018458    0.0001392    2.1615969  
C   -1.8348311   -0.0008317    4.5510609  
C   -1.2972847   -0.0009736    5.9014604  
O   -2.0050672   -0.0014265    6.9001319  
C    0.2542623   -0.0004184    6.0817573  
O    0.7184670   -0.0002256    7.2139121  
C    1.0974552   -0.0000873    4.8889129  
H    2.0940752    0.0005483    2.0517982  
H   -2.9081052   -0.0011668    4.4207061  
H    2.1707277    0.0000911    5.0223670  
H   -2.1128194   -0.0014912    1.7406791  
