58

C    0.3024911    3.5204857   -2.8368671  
C   -0.0662272    4.7594619   -3.2528712  
C   -0.9770150    4.5785745   -4.3585748  
C   -1.1096631    3.1222112   -4.5540266  
N   -0.3087805    2.5375027   -3.6003009  
C   -1.8847519    2.5414567   -5.5046402  
C   -2.6384682    3.4086499   -6.3948219  
O   -3.3648188    2.9820869   -7.2829439  
C   -2.5128311    4.9540951   -6.2060925  
O   -3.1424297    5.6942169   -6.9497893  
C   -1.6457537    5.4614618   -5.1456175  
H   -1.9681357    1.4709525   -5.6310418  
H   -1.5644087    6.5327605   -5.0214163  
H    0.9695127    3.2428215   -2.0369456  
C    0.0000000    0.0000000    0.0000000  
C   -0.1272315    1.0464625   -0.8560396  
C   -0.0616294    0.5065786   -2.1935958  
C    0.1154921   -0.9506473   -2.0455731  
N    0.1453883   -1.1930198   -0.6915971  
C    0.2209249   -1.8214826   -3.0810609  
C    0.1558182   -1.2878939   -4.4314605  
O    0.2409085   -1.9905430   -5.4301318  
C   -0.0311441    0.2523476   -4.6117574  
O   -0.0870550    0.7131725   -5.7439123  
C   -0.1327204    1.0894000   -3.4189132  
H   -0.2525371    2.0787919   -0.5817987  
H    0.3503036   -2.8869306   -2.9507060  
H    0.2538666   -2.0975129   -0.2706790  
C    1.6408226    6.3263720   -2.2574922  
C    0.3830466    6.0361692   -2.6792236  
C   -0.4186888    7.2160140   -2.4555655  
C    0.4815663    8.2246130   -1.8647534  
N    1.7151010    7.6225961   -1.7706401  
C    0.1032315    9.4781878   -1.5082173  
C   -1.2832092    9.8594010   -1.7203365  
O   -1.7215167   10.9653369   -1.4320788  
C   -2.2542300    8.8070879   -2.3444854  
O   -3.4238599    9.1165005   -2.5274918  
C   -1.7294827    7.4878362   -2.6880927  
H    0.7795134   10.2028403   -1.0764403  
H   -2.4082547    6.7650309   -3.1200022  
H    2.5196813    5.7022861   -2.2611989  
H    2.5424047    8.0584690   -1.4064547  
C    3.1301144    0.0010313    3.1728260  
C    2.5367765    0.0002768    1.9564670  
C    1.1089900   -0.0001027    2.2356185  
C    1.0177864    0.0004150    3.7115134  
N    2.1993570    0.0011613    4.2663826  
C   -0.2459220    0.0002880    4.3957118  
C   -1.3675327    0.0000606    3.6398520  
O   -2.6129319   -0.0000866    4.1448486  
C   -1.3083589   -0.0000910    2.1483229  
O   -2.3693264   -0.0004206    1.5241687  
C    0.0000000    0.0000000    1.4700000  
H    3.0096015    0.0001008    0.9892483  
H   -0.2829642    0.0004689    5.4753125  
H   -3.1967446   -0.0002093    3.3649027  
H    4.1849273    0.0015113    3.3971983  
