58

C   -3.9876870    0.7052799   -1.9724713  
C   -3.2941075    0.0012873   -2.9038235  
C   -4.2617029   -0.7397012   -3.6781169  
C   -5.5853418   -0.4072893   -3.1175164  
N   -5.3499115    0.4727077   -2.0864644  
C   -6.7615312   -0.9058824   -3.5754335  
C   -6.7210839   -1.8318689   -4.6950083  
O   -7.7260361   -2.3354498   -5.1795478  
C   -5.3302199   -2.1981995   -5.3041929  
O   -5.2836144   -2.9769874   -6.2468366  
C   -4.1319546   -1.5961851   -4.7248920  
H   -7.7217181   -0.6490153   -3.1500279  
H   -3.1728430   -1.8548551   -5.1525826  
H   -3.6182638    1.3742582   -1.2122844  
H   -6.0586655    0.8843280   -1.5074273  
C    0.0000000    0.0000000    0.0000000  
C    1.0541688   -0.0001722   -0.8560392  
C    0.5103135   -0.0000454   -2.1935954  
C   -0.9576375    0.0002459   -2.0455728  
N   -1.2018462   -0.0001392   -0.6915966  
C   -1.8348315    0.0008316   -3.0810604  
C   -1.2972851    0.0009737   -4.4314603  
O   -2.0050681    0.0014265   -5.4301316  
C    0.2542617    0.0004185   -4.6117570  
O    0.7184664    0.0002257   -5.7439119  
C    1.0974549    0.0000874   -3.4189129  
H    2.0940751   -0.0005482   -0.5817983  
H   -2.1128195    0.0014911   -0.2706785  
C    4.3630975   -2.0949046   -1.3110660  
C    3.1522508   -1.6320810   -1.7156890  
C    3.3924167   -0.7354502   -2.8216766  
C    4.8529061   -0.7137088   -3.0297353  
N    5.3832061   -1.5581164   -2.0817651  
C    5.4827040    0.0162368   -3.9848471  
C    4.6677380    0.8352826   -4.8666232  
O    5.1406419    1.5283982   -5.7578323  
C    3.1189437    0.8277096   -4.6641782  
O    2.4225425    1.5135507   -5.4003222  
C    2.5562209   -0.0001551   -3.6003007  
H    2.1995744   -1.8892851   -1.2880587  
H    6.5552961    0.0179164   -4.1206920  
H    4.5960539   -2.7827982   -0.5145589  
H    6.3605501   -1.7557311   -1.9686527  
C    3.2798086   -0.0005857    2.9199648  
C    2.5571146   -0.0005566    4.0696553  
C    1.1637436   -0.0001548    3.6910360  
C    1.1336965    0.0000200    2.2159470  
N    2.4483514    0.0001428    1.8102719  
C    0.0000000    0.0000000    1.4700000  
C   -1.2757367    0.0000186    2.1664417  
O   -2.3524596    0.0000640    1.5842315  
C   -1.2676493    0.0000873    3.7284083  
O   -2.3355761    0.0004100    4.3257297  
C    0.0181563   -0.0001760    4.4216297  
H    2.9547357   -0.0006076    5.0689105  
H    0.0150794   -0.0003319    5.5031631  
H    4.3498549   -0.0008612    2.7900019  
H    2.7563627   -0.0012824    0.8551938  
