58

C    4.9133809   -0.0003963   -7.2651735  
C    3.6538253   -0.0003599   -7.7727106  
C    3.7795535   -0.0004809   -9.2111224  
C    5.2259759   -0.0006207   -9.5020745  
N    5.8581828   -0.0001624   -8.2801068  
C    5.7592323   -0.0011566  -10.7500084  
C    4.8477568   -0.0014008  -11.8821518  
O    5.2299622   -0.0018194  -13.0450010  
C    3.3119400   -0.0010066  -11.5974180  
O    2.5348384   -0.0009009  -12.5426032  
C    2.8575276   -0.0007163  -10.2091239  
H    2.7408393   -0.0000774   -7.2043188  
H    6.8232849   -0.0013802  -10.9415858  
H    1.7925640   -0.0006496  -10.0205085  
H    6.8527254   -0.0016869   -8.1462047  
C    2.5562217   -0.0001551   -3.6003001  
C    3.5148522   -0.0005087   -2.6449957  
C    4.7727386   -0.0006027   -3.3759006  
C    4.3760680   -0.0003759   -4.8004136  
N    3.0779895   -0.0000323   -4.9381840  
C    5.3463906   -0.0003432   -5.8603952  
C    6.6535653   -0.0001396   -5.5130783  
O    7.6652130   -0.0000934   -6.3977298  
C    7.0856170    0.0000107   -4.0842703  
O    8.2923969    0.0000694   -3.8415706  
C    6.0711795   -0.0000701   -3.0152331  
H    3.3844832   -0.0005935   -1.5763148  
H    8.4720653    0.0000901   -5.8517054  
H    6.4250923    0.0001591   -1.9929925  
C    0.0000000    0.0000000    0.0000000  
C    1.0541688   -0.0001722   -0.8560390  
C    0.5103141   -0.0000453   -2.1935955  
C   -0.9576367    0.0002460   -2.0455731  
N   -1.2018459   -0.0001392   -0.6915969  
C   -1.8348307    0.0008318   -3.0810611  
C   -1.2972843    0.0009738   -4.4314606  
O   -2.0050665    0.0014267   -5.4301321  
C    0.2542628    0.0004186   -4.6117570  
O    0.7184676    0.0002258   -5.7439117  
C    1.0974555    0.0000874   -3.4189127  
H    2.0940752   -0.0005483   -0.5817978  
H   -2.9081051    0.0011670   -2.9507061  
H   -2.1128194    0.0014912   -0.2706792  
C    3.3321173   -0.0004715    2.8079335  
C    2.6974184   -0.0000116    4.0032312  
C    1.2800439    0.0002118    3.6752840  
C    1.2395035   -0.0000644    2.1971295  
N    2.4394063   -0.0005460    1.6831036  
C    0.0000000    0.0000000    1.4700000  
C   -1.1468701   -0.0000635    2.1869543  
O   -2.3742202   -0.0000073    1.6395491  
C   -1.1388768   -0.0001607    3.6796354  
O   -2.2206231   -0.0000905    4.2670412  
C    0.1454524   -0.0001816    4.4024240  
H    3.1367986    0.0000651    4.9860947  
H   -2.9844344   -0.0001026    2.3990168  
H    0.1083576   -0.0003682    5.4835595  
H    4.3940039   -0.0007619    2.6198634  
