60

C    0.0000000    0.0000000    0.0000000  
C    1.0521664   -0.0011860   -0.8862345  
C    0.4917209   -0.0011939   -2.1979133  
C   -0.9187438    0.0003112   -2.0478680  
N   -1.1833176   -0.0009458   -0.7007906  
C   -1.7951712    0.0010279   -3.1372084  
C   -1.2375856    0.0005172   -4.4010420  
O   -2.0474237    0.0015279   -5.4997571  
C    0.1673558   -0.0013562   -4.5711965  
O    0.5673502   -0.0020666   -5.8915551  
C    1.0325756   -0.0023374   -3.4969895  
H    2.0953052   -0.0030567   -0.6200570  
H   -2.0989781    0.0102288   -0.2891817  
H   -2.8710948    0.0020305   -3.0295502  
H   -1.4634911    0.0006440   -6.2693586  
H    1.5290686   -0.0033094   -5.9180049  
C    4.1863717   -2.1477707   -1.3902901  
C    5.2964430   -1.7419730   -2.0495691  
C    4.8117043   -0.8306843   -3.0747916  
C    3.3454859   -0.8022133   -2.8851147  
N    2.9730587   -1.5722763   -1.8990670  
C    2.4861684   -0.0045285   -3.7159930  
C    3.0653144    0.7315644   -4.6917448  
O    2.3850918    1.5211765   -5.5401852  
C    4.5422495    0.7242765   -4.9080094  
O    5.0006511    1.4186041   -5.8152015  
C    5.4023440   -0.1022453   -4.0425477  
H    6.3180620   -2.0258941   -1.8631303  
H    3.0670229    1.9123126   -6.1156286  
H    4.1206220   -2.8297606   -0.5574994  
C    6.8494014   -0.0718433   -4.2994550  
C    7.8265812   -0.7397070   -3.6432111  
C    9.0603403   -0.3457202   -4.3058671  
C    8.6308461    0.5894067   -5.3677788  
N    7.3358860    0.7539286   -5.3688510  
C    9.5704398    1.2109585   -6.2599248  
C   10.8796240    0.9122106   -6.0983099  
O   11.8646252    1.4191372   -6.8591250  
C   11.3444662   -0.0274501   -5.0357092  
O   12.5511845   -0.2534678   -4.9464474  
C   10.3611936   -0.6522483   -4.1330875  
H    7.7229732   -1.4160984   -2.8120457  
H    9.2285864    1.8902667   -7.0271181  
H   12.6808299    1.0225249   -6.5046378  
H   10.7383547   -1.3270612   -3.3763796  
C    3.2798086   -0.0005857    2.9199648  
C    2.5571146   -0.0005566    4.0696553  
C    1.1637436   -0.0001548    3.6910360  
C    1.1336965    0.0000200    2.2159470  
N    2.4483514    0.0001428    1.8102719  
C    0.0000000    0.0000000    1.4700000  
C   -1.2757367    0.0000186    2.1664417  
O   -2.3524596    0.0000640    1.5842315  
C   -1.2676493    0.0000873    3.7284083  
O   -2.3355761    0.0004100    4.3257297  
C    0.0181563   -0.0001760    4.4216297  
H    2.9547357   -0.0006076    5.0689105  
H    0.0150794   -0.0003319    5.5031631  
H    4.3498549   -0.0008612    2.7900019  
H    2.7563627   -0.0012824    0.8551938  
