60

C    0.0000000    0.0000000    0.0000000  
C    1.0521661   -0.0011860   -0.8862347  
C    0.4917205   -0.0011938   -2.1979135  
C   -0.9187440    0.0003111   -2.0478681  
N   -1.1833179   -0.0009458   -0.7007911  
C   -1.7951715    0.0010280   -3.1372085  
C   -1.2375854    0.0005176   -4.4010421  
O   -2.0474238    0.0015283   -5.4997576  
C    0.1673561   -0.0013560   -4.5711966  
O    0.5673502   -0.0020663   -5.8915552  
C    1.0325752   -0.0023370   -3.4969896  
H    2.0953050   -0.0030567   -0.6200569  
H   -2.0989777    0.0102290   -0.2891820  
H   -2.8710941    0.0020307   -3.0295506  
H   -1.4634910    0.0006436   -6.2693588  
H    1.5290685   -0.0033095   -5.9180051  
C    4.5245128   -2.0170115   -1.5964893  
C    3.2545814   -1.6337686   -1.8647765  
C    3.3688939   -0.7174280   -2.9889440  
C    4.8179331   -0.6614834   -3.2783222  
N    5.5004024   -1.4213079   -2.4653693  
C    5.3513364    0.1487417   -4.3385592  
C    4.4768626    0.8699809   -5.0764243  
O    4.8351410    1.6687359   -6.0960651  
C    3.0086996    0.8343380   -4.8092402  
O    2.2713422    1.5165337   -5.5206709  
C    2.4861685   -0.0045284   -3.7159932  
H    2.3517431   -1.9356885   -1.3619807  
H    3.9977693    2.0447297   -6.4225472  
H    4.8658388   -2.6947758   -0.8302611  
C    8.4497174   -2.9970027   -4.3110014  
C    7.2797645   -2.3122867   -4.2306895  
C    7.5783319   -0.9319517   -4.5313037  
C    9.0285214   -0.8681718   -4.7952548  
N    9.4977461   -2.1527647   -4.6451224  
C    9.7023517    0.2650020   -5.1170864  
C    8.9490541    1.5045762   -5.2094653  
O    9.4647783    2.5778893   -5.4928882  
C    7.4122328    1.4604411   -4.9337159  
O    6.7675956    2.4978180   -5.0082331  
C    6.7983396    0.1787184   -4.5958187  
H    6.3174595   -2.7268237   -3.9883230  
H   10.7664136    0.2900498   -5.3069662  
H    8.6345080   -4.0472852   -4.1540015  
H   10.4538650   -2.4340626   -4.7624020  
C    1.0965515   -0.0001358    2.2710304  
C    0.0000000    0.0000000    1.4700000  
C   -1.1546562   -0.0001469    2.3369512  
C   -0.6372014   -0.0003519    3.7186280  
N    0.7342871   -0.0007337    3.6095011  
C   -1.4147739   -0.0001353    4.8308716  
C   -2.8576048    0.0001048    4.6554461  
O   -3.6427778    0.0002493    5.5944904  
C   -3.4275839    0.0000726    3.2011665  
O   -4.6406829   -0.0000333    3.0410059  
C   -2.4891866    0.0001091    2.0816745  
H   -1.0150448   -0.0001615    5.8354244  
H   -2.8919121    0.0002919    1.0779135  
H    2.1388271   -0.0000662    1.9961646  
H    1.3735872    0.0006099    4.3830260  
