60

C    3.3003550    0.0005273   -1.4738982  
C    2.5232819    0.0003493   -2.6090742  
C    1.1623207   -0.0001321   -2.1820100  
C    1.1711890    0.0000582   -0.7636142  
N    2.4852302   -0.0014919   -0.3662355  
C    0.0000000    0.0000000    0.0000000  
C   -1.2020381    0.0000519   -0.6806484  
O   -2.3759243    0.0003491    0.0157736  
C   -1.2314654   -0.0005114   -2.0955513  
O   -2.5054383   -0.0008038   -2.6250183  
C   -0.0764510   -0.0007275   -2.8495196  
H    2.8036268    0.0088181    0.5858668  
H   -3.0835632    0.0000344   -0.6418824  
H   -2.4360036   -0.0011532   -3.5845925  
H   -0.1304087   -0.0013425   -3.9319085  
H    4.3715553    0.0004892   -1.3667126  
C    4.1171240   -0.7271068   -4.4445138  
C    4.3278183   -0.5117044   -5.7686305  
C    3.3122725    0.4143180   -6.2113318  
C    2.4867575    0.7229871   -5.0280991  
N    3.0267444   -0.0008956   -3.9901695  
C    1.4208268    1.5629149   -5.0321548  
C    1.0625892    2.2056480   -6.2855883  
O    0.1193413    2.9784589   -6.3921134  
C    1.9228117    1.8931113   -7.5513461  
O    1.6305912    2.4280908   -8.6123196  
C    3.0482302    0.9707954   -7.4224273  
H    0.8286152    1.7757882   -4.1530190  
H    3.6389553    0.7598499   -8.3034889  
H    4.6665433   -1.3554379   -3.7624376  
C    5.8281260   -2.3965401   -6.5146023  
C    5.3911360   -1.1128172   -6.5865048  
C    6.1684172   -0.4604221   -7.6136619  
C    7.1007292   -1.4765872   -8.1380571  
N    6.8437938   -2.6278098   -7.4298481  
C    8.0061833   -1.2534150   -9.1239840  
C    8.0666591    0.0764154   -9.7074464  
O    8.8478667    0.3770599  -10.6005468  
C    7.0888168    1.1681355   -9.1672812  
O    7.1307089    2.2914892   -9.6505840  
C    6.1570447    0.8076185   -8.1015974  
H    8.6808853   -2.0127569   -9.4942363  
H    5.4831991    1.5692073   -7.7333074  
H    5.4937871   -3.1930337   -5.8698507  
H    7.3193153   -3.5019560   -7.5594398  
C    0.8681109    0.7263879    2.2709268  
C    0.6127770    0.5096195    3.5869401  
C   -0.4920590   -0.4175482    3.6542670  
C   -0.8620974   -0.7254003    2.2596025  
N    0.0000000    0.0000000    1.4700000  
C   -1.8641242   -1.5660088    1.8976294  
C   -2.6293522   -2.2103885    2.9520183  
O   -3.5512764   -2.9839180    2.7283916  
C   -2.2549728   -1.8987399    4.4361073  
O   -2.8923672   -2.4351063    5.3323774  
C   -1.1543735   -0.9755647    4.7012123  
H    1.1382914    0.9492124    4.4159191  
H   -2.1192137   -1.7782617    0.8686553  
H   -0.9013378   -0.7652422    5.7314848  
H    1.6172880    1.3558399    1.8188057  
