58

C    0.0000000    0.0000000    0.0000000  
C   -1.0257134   -0.2432765   -0.8560396  
C   -0.4965297   -0.1178047   -2.1935959  
C    0.9318086    0.2209125   -2.0455729  
N    1.1693271    0.2776832   -0.6915966  
C    1.7854273    0.4229171   -3.0810605  
C    1.2624444    0.2986410   -4.4314602  
O    1.9511999    0.4616520   -5.4301312  
C   -0.2472915   -0.0591245   -4.6117576  
O   -0.6989924   -0.1661381   -5.7439122  
C   -1.0677693   -0.2535250   -3.4189134  
H   -2.0375973   -0.4830608   -0.5817992  
H   -2.1120714   -0.5012072   -3.5523678  
H    2.0560527    0.4864722   -0.2706785  
C    4.6919076   -1.0883254   -0.2077320  
C    5.8096033   -0.4046194   -0.5466739  
C    5.4102343    0.4365712   -1.6644405  
C    3.9799881    0.1245635   -1.8733208  
N    3.5533133   -0.7685961   -1.0223190  
C    3.2053633    0.7594712   -2.9038232  
C    3.8310104    1.6651982   -3.6896724  
O    3.2306956    2.3334013   -4.6892564  
C    5.2732964    2.0018474   -3.5035586  
O    5.7776381    2.8357100   -4.2555783  
C    6.0463527    1.3369311   -2.4395123  
H    6.7846326   -0.4637418   -0.0940179  
H    3.9286925    2.9018970   -5.0617681  
H    7.0884579    1.6085756   -2.3372560  
C    4.5285798   -2.0826278    0.8625888  
C    5.4610709   -2.5263608    1.7373122  
C    4.7642844   -3.4958556    2.5686174  
C    3.3824044   -3.5130051    2.0425959  
N    3.2382385   -2.6866622    1.0424146  
C    2.3647600   -4.3576964    2.6047189  
C    2.7119325   -5.1495556    3.6447983  
O    1.8643183   -5.9872379    4.2659904  
C    4.0983615   -5.1551057    4.1979214  
O    4.3434070   -5.9012530    5.1457808  
C    5.1243864   -4.2796087    3.6040344  
H    6.4941891   -2.2321861    1.8094517  
H    1.3630377   -4.3497639    2.2004924  
H    2.3995784   -6.4113823    4.9607932  
H    6.1167141   -4.3131240    4.0334428  
C    3.2573670    0.0002920    2.9809380  
C    2.5379467    0.0001709    1.8291961  
C    1.1435042   -0.0000331    2.2038498  
C    1.1092607    0.0000083    3.6788474  
N    2.4227561   -0.0001909    4.0882609  
C   -0.0265533    0.0002524    4.4215661  
C   -1.3003036    0.0002640    3.7214979  
O   -2.3786784    0.0004133    4.3006425  
C   -1.2877726   -0.0000311    2.1595606  
O   -2.3539958   -0.0003306    1.5592035  
C    0.0000000    0.0000000    1.4700000  
H    2.9384090    0.0000368    0.8310761  
H   -0.0296291    0.0004086    5.5027230  
H    4.3270393    0.0004765    3.1139444  
H    2.7280493    0.0013407    5.0442112  
