62

C    2.3021906   -2.1255950   -5.9826735  
C    1.8095068   -1.6629741   -4.7844620  
C    0.7354734   -0.7756720   -5.0906430  
C    0.6180409   -0.7363233   -6.5036494  
N    1.5855135   -1.5656964   -7.0142914  
C   -0.3411042    0.0395985   -7.1615057  
C   -1.1974964    0.7892231   -6.3786691  
O   -2.1530487    1.5644633   -6.9693777  
C   -1.0957952    0.7634642   -4.9673539  
O   -2.0200012    1.5643295   -4.3287603  
C   -0.1496416   -0.0015611   -4.3176956  
H    2.1795065   -1.9311006   -3.8096787  
H    1.7382194   -1.7475808   -7.9897805  
H   -2.6345083    1.9978454   -6.2526894  
H   -1.8829375    1.4894723   -3.3794379  
H    3.1090430   -2.8095403   -6.1830925  
C    3.3003542    0.0005277   -1.4738988  
C    2.5232812    0.0003500   -2.6090746  
C    1.1623199   -0.0001317   -2.1820102  
C    1.1711883    0.0000584   -0.7636139  
N    2.4852300   -0.0014919   -0.3662359  
C    0.0000000    0.0000000    0.0000000  
C   -1.2020384    0.0000521   -0.6806476  
O   -2.3759249    0.0003494    0.0157746  
C   -1.2314658   -0.0005112   -2.0955510  
O   -2.5054393   -0.0008037   -2.6250177  
C   -0.0764517   -0.0007271   -2.8495192  
H    2.8919953   -0.0005617   -3.6205301  
H    2.8036265    0.0088183    0.5858663  
H   -3.0835641    0.0000349   -0.6418814  
H   -2.4360049   -0.0011526   -3.5845918  
H    4.3715550    0.0004897   -1.3667140  
C   -0.3444072   -1.0017509   -9.4753647  
C   -0.5149713   -0.6298712  -10.7702348  
C   -0.7677292    0.7917296  -10.7701658  
C   -0.7301402    1.2206592   -9.3589970  
N   -0.4696858    0.0864276   -8.6251227  
C   -0.9225564    2.4962816   -8.9377272  
C   -1.1843528    3.5147014   -9.9411296  
O   -1.3708807    4.6919273   -9.6624755  
C   -1.2288923    3.0829259  -11.4415931  
O   -1.4487674    3.9315082  -12.2953056  
C   -1.0058788    1.6776935  -11.7724088  
H   -0.4691524   -1.2775426  -11.6275775  
H   -0.8907149    2.7898409   -7.8976698  
H   -1.0381599    1.3869725  -12.8136394  
H   -0.1379422   -1.9792459   -9.0706859  
C    2.5128556    2.1077716    2.9199648  
C    1.9592212    1.6432552    4.0696553  
C    0.8915788    0.7479214    3.6910360  
C    0.8684491    0.7287414    2.2159470  
N    1.8754542    1.5738793    1.8102719  
C    0.0000000    0.0000000    1.4700000  
C   -0.9772830   -0.8200135    2.1664417  
O   -1.8021297   -1.5120829    1.5842315  
C   -0.9711318   -0.8147624    3.7284083  
O   -1.7894187   -1.5009653    4.3257297  
C    0.0140216    0.0115358    4.4216297  
H    2.2638494    1.8988021    5.0689105  
H    0.0117648    0.0094386    5.5031631  
H    3.3327358    2.7953732    2.7900019  
H    2.1123206    1.7707734    0.8551938  
