58

C   10.0454983    0.7274011   -1.5709077  
C   11.3062302    0.5109401   -1.1150846  
C   11.2019538   -0.4152969   -0.0123394  
C    9.7668400   -0.7229383    0.1379824  
N    9.1199938    0.0016837   -0.8363906  
C    9.2543141   -1.5627326    1.0727370  
C   10.1777410   -2.2063962    1.9922563  
O    9.8142818   -2.9791690    2.8691946  
C   11.7018760   -1.8949559    1.8514622  
O   12.4888449   -2.4307239    2.6201566  
C   12.1339349   -0.9726841    0.8042794  
H   12.2064886    0.9501518   -1.5065450  
H    8.1982680   -1.7748451    1.1659241  
H   13.1909468   -0.7625002    0.7133241  
H    9.7146229    1.3561930   -2.3814825  
C    6.4690067    0.0019752   -4.4192259  
C    7.5790592    0.0025229   -3.6450414  
C    7.0826137    0.0021760   -2.2775470  
C    5.6103549    0.0015082   -2.4155218  
N    5.2447492    0.0013071   -3.6686472  
C    4.7390840    0.0009613   -1.2727298  
C    5.3125318    0.0006873   -0.0477839  
O    4.6211392    0.0001823    1.1046125  
C    6.7952873    0.0009744    0.1242520  
O    7.2479830    0.0008235    1.2689297  
C    7.6676529    0.0015791   -1.0635623  
H    8.6077291    0.0030015   -3.9627138  
H    5.3014942    0.0000718    1.8019434  
H    6.4103389    0.0020014   -5.4960416  
C    3.2798077    0.0005856   -1.4499661  
C    2.5571132    0.0005565   -2.5996564  
C    1.1637425    0.0001547   -2.2210366  
C    1.1336959   -0.0000200   -0.7459475  
N    2.4483509   -0.0001429   -0.3402730  
C    0.0000000    0.0000000    0.0000000  
C   -1.2757370   -0.0000187   -0.6964411  
O   -2.3524597   -0.0000640   -0.1142306  
C   -1.2676502   -0.0000874   -2.2584078  
O   -2.3355774   -0.0004102   -2.8557287  
C    0.0181551    0.0001758   -2.9516297  
H    2.9547342    0.0006074   -3.5989118  
H    0.0150776    0.0003317   -4.0331632  
H    2.7563626    0.0012823    0.6148051  
C    2.5128556    2.1077716    2.9199648  
C    1.9592212    1.6432552    4.0696553  
C    0.8915788    0.7479214    3.6910360  
C    0.8684491    0.7287414    2.2159470  
N    1.8754542    1.5738793    1.8102719  
C    0.0000000    0.0000000    1.4700000  
C   -0.9772830   -0.8200135    2.1664417  
O   -1.8021297   -1.5120829    1.5842315  
C   -0.9711318   -0.8147624    3.7284083  
O   -1.7894187   -1.5009653    4.3257297  
C    0.0140216    0.0115358    4.4216297  
H    2.2638494    1.8988021    5.0689105  
H    0.0117648    0.0094386    5.5031631  
H    3.3327358    2.7953732    2.7900019  
H    2.1123206    1.7707734    0.8551938  
