58

C    1.1319246    0.0015676   -0.8009264  
C    0.7969921    0.0034954   -2.1169399  
C   -0.6453335    0.0035693   -2.1842671  
C   -1.1266829    0.0015408   -0.7896032  
N    0.0000000    0.0000000    0.0000000  
C   -2.4346128    0.0013914   -0.4276300  
C   -3.4350110    0.0031336   -1.4820189  
O   -4.6384608    0.0030878   -1.2583926  
C   -2.9478954    0.0050440   -2.9661081  
O   -3.7809368    0.0062135   -3.8623782  
C   -1.5113817    0.0053053   -3.2312129  
H    1.4821240    0.0045431   -2.9459191  
H   -2.7664563    0.0000176    0.6013434  
H    2.1104319    0.0009432   -0.3488054  
C    1.7765376   -2.1310607   -5.1320084  
C    1.6763837   -1.7219598   -6.4181596  
C    0.5413924   -0.8120091   -6.4350136  
C    0.0622656   -0.7878465   -5.0362863  
N    0.7824508   -1.5590785   -4.2678307  
C   -1.0641729    0.0073880   -4.6315341  
C   -1.6835601    0.7452547   -5.5808744  
O   -2.7464415    1.5329418   -5.3445031  
C   -1.2235539    0.7423083   -7.0009259  
O   -1.8348759    1.4380505   -7.8117584  
C   -0.0657273   -0.0817637   -7.3911398  
H   -2.9609648    1.9261206   -6.2096869  
H    0.2362041   -0.0562576   -8.4296086  
H    2.4949782   -2.8133092   -4.7061525  
C    3.4323180   -5.5741953   -7.5844837  
C    4.0778283   -5.1932642   -8.7168630  
C    3.8279357   -3.7816501   -8.8893019  
C    2.9778552   -3.3684441   -7.7564230  
N    2.7739915   -4.5013334   -7.0028374  
C    2.5227103   -2.1055627   -7.5572292  
C    2.8947443   -1.0852504   -8.5231944  
O    2.5351059    0.0812064   -8.4318735  
C    3.7941464   -1.5004873   -9.7308616  
O    4.1135753   -0.6501807  -10.5507426  
C    4.2226145   -2.8928741   -9.8382188  
H    4.6621865   -5.8286698   -9.3582681  
H    4.8453460   -3.1721732  -10.6772192  
H    3.3819722   -6.5484683   -7.1260654  
H    2.2322680   -4.5420243   -6.1590797  
C    2.5128556    2.1077716    2.9199648  
C    1.9592212    1.6432552    4.0696553  
C    0.8915788    0.7479214    3.6910360  
C    0.8684491    0.7287414    2.2159470  
N    1.8754542    1.5738793    1.8102719  
C    0.0000000    0.0000000    1.4700000  
C   -0.9772830   -0.8200135    2.1664417  
O   -1.8021297   -1.5120829    1.5842315  
C   -0.9711318   -0.8147624    3.7284083  
O   -1.7894187   -1.5009653    4.3257297  
C    0.0140216    0.0115358    4.4216297  
H    2.2638494    1.8988021    5.0689105  
H    0.0117648    0.0094386    5.5031631  
H    3.3327358    2.7953732    2.7900019  
H    2.1123206    1.7707734    0.8551938  
