58

C    3.9142831   -0.7071708   -4.5248269  
C    2.8699647   -0.0020533   -4.0185822  
C    2.2908383    0.7380391   -5.1148083  
C    3.0890720    0.4038757   -6.3097759  
N    4.0573693   -0.4761769   -5.8845724  
C    2.8596387    0.9012226   -7.5514324  
C    1.7527766    1.8276206   -7.7222503  
O    1.4651477    2.3301667   -8.8006831  
C    0.8942549    2.1957982   -6.4703756  
O   -0.0400339    2.9749472   -6.6018690  
C    1.2387392    1.5950168   -5.1842015  
H    3.4570871    0.6430788   -8.4147554  
H    0.6392482    1.8549632   -4.3223649  
H    4.5915387   -1.3759574   -4.0189237  
C    3.2573674   -0.0002920   -1.5109378  
C    2.5379471   -0.0001708   -0.3591960  
C    1.1435047    0.0000329   -0.7338500  
C    1.1092612   -0.0000087   -2.2088475  
N    2.4227566    0.0001906   -2.6182608  
C   -0.0265526   -0.0002532   -2.9515663  
C   -1.3003031   -0.0002648   -2.2514983  
O   -2.3786778   -0.0004142   -2.8306428  
C   -1.2877723    0.0000309   -0.6895610  
O   -2.3539953    0.0003301   -0.0892041  
C    0.0000000    0.0000000    0.0000000  
H    2.9384091   -0.0000365    0.6389243  
H   -0.0296284   -0.0004094   -4.0327232  
H    4.3270397   -0.0004763   -1.6439441  
C    5.5222368   -2.3649159   -6.6888303  
C    5.0845588   -1.0806443   -6.7450376  
C    5.8190865   -0.4315748   -7.8052332  
C    6.7270599   -1.4502892   -8.3661190  
N    6.4982961   -2.5996626   -7.6453573  
C    7.5907269   -1.2305625   -9.3895955  
C    7.6287033    0.0979849   -9.9778594  
O    8.3722414    0.3955703  -10.9035455  
C    6.6760149    1.1923588   -9.3994672  
O    6.6993101    2.3146627   -9.8864490  
C    5.7891886    0.8354914   -8.2949137  
H    8.2481667   -1.9917305   -9.7862136  
H    5.1325257    1.5989009   -7.9002969  
H    5.2140141   -3.1595663   -6.0289677  
H    6.9666449   -3.4748285   -7.7929383  
C    2.5528530    2.1414826    2.8079335  
C    2.0663498    1.7338582    4.0032312  
C    0.9804344    0.8229586    3.6752840  
C    0.9495562    0.7966882    2.1971295  
N    1.8690446    1.5676019    1.6831036  
C    0.0000000    0.0000000    1.4700000  
C   -0.8785127   -0.7372425    2.1869543  
O   -1.8187535   -1.5261249    1.6395491  
C   -0.8723269   -0.7321790    3.6796354  
O   -1.7010379   -1.4274584    4.2670412  
C    0.1115397    0.0933559    4.4024240  
H    2.4028853    2.0163452    4.9860947  
H   -2.2861435   -1.9184361    2.3990168  
H    0.0832434    0.0693689    5.4835595  
H    3.3664920    2.8238276    2.6198634  
