58

C   -0.2315958   -2.9322960   -9.5154797  
C   -0.6520180   -1.9526189   -8.6743175  
C   -0.7337565   -0.7377839   -9.4504176  
C   -0.3235784   -1.0925642  -10.8225226  
N   -0.0318242   -2.4368169  -10.7950620  
C   -0.2674925   -0.2179397  -11.8586652  
C   -0.6354715    1.1651896  -11.6055243  
O   -0.6175830    2.0286652  -12.4729281  
C   -1.0727754    1.5632811  -10.1598079  
O   -1.3845423    2.7248920   -9.9345940  
C   -1.0937623    0.5315566   -9.1259044  
H   -0.8788055   -2.0677989   -7.6293707  
H    0.0360021   -0.4987554  -12.8576355  
H   -0.0506903   -3.9745053   -9.3082033  
H    0.2765708   -2.9754502  -11.5836128  
C    0.4920766   -0.6868682   -5.2544637  
C   -0.2963293   -0.0005341   -4.3948471  
C   -1.2145546    0.7451069   -5.2418306  
C   -0.8279327    0.3808331   -6.6218351  
N    0.1718580   -0.4583450   -6.6355552  
C   -1.5071739    0.9172630   -7.7689881  
C   -2.5265720    1.7781564   -7.5475751  
O   -3.2476973    2.3546071   -8.5241627  
C   -2.9407254    2.1650499   -6.1666507  
O   -3.8771709    2.9538489   -6.0398159  
C   -2.2282744    1.6012170   -5.0062929  
H   -3.8964326    2.9117963   -8.0574343  
H   -2.5588935    1.9065102   -4.0225665  
H    1.3019141   -1.3594050   -5.0203042  
C    3.1301146   -0.0010313   -1.7028256  
C    2.5367765   -0.0002766   -0.4864669  
C    1.1089901    0.0001027   -0.7656184  
C    1.0177865   -0.0004150   -2.2415133  
N    2.1993571   -0.0011612   -2.7963824  
C   -0.2459219   -0.0002879   -2.9257116  
C   -1.3675326   -0.0000606   -2.1698520  
O   -2.6129318    0.0000865   -2.6748483  
C   -1.3083588    0.0000910   -0.6783229  
O   -2.3693264    0.0004206   -0.0541685  
C    0.0000000    0.0000000    0.0000000  
H    3.0096016   -0.0001007    0.4807518  
H   -3.1967444    0.0002093   -1.8949026  
H    4.1849275   -0.0015114   -1.9271979  
C    0.8175213    0.6860729    2.3021913  
C    0.0000000    0.0000000    1.4700000  
C   -0.8887526   -0.7456559    2.3478473  
C   -0.4549825   -0.3816753    3.7138435  
N    0.5448156    0.4573574    3.6934124  
C   -1.0945674   -0.9182058    4.8835240  
C   -2.1210866   -1.7789155    4.6970523  
O   -2.8083856   -2.3554314    5.6976972  
C   -2.5824069   -2.1655116    3.3310774  
O   -3.5227682   -2.9541547    3.2362962  
C   -1.9100805   -1.6015804    2.1470656  
H   -0.7567140   -0.6349833    5.8697035  
H   -3.4728268   -2.9124471    5.2533954  
H   -2.2742832   -1.9066565    1.1752040  
H    1.6189533    1.3585343    2.0405121  
