60

C    3.3041266    0.0001180   -1.5420446  
C    2.5845369   -0.0004778   -0.3695869  
C    1.2040002   -0.0000006   -0.7283594  
C    1.1422366    0.0006040   -2.1454379  
N    2.4348631    0.0026117   -2.6077477  
C   -0.0655191    0.0008802   -2.8497920  
C   -1.2321776    0.0002326   -2.1101397  
O   -2.4392825    0.0001152   -2.7472516  
C   -1.1911211   -0.0000006   -0.6955258  
O   -2.4371525   -0.0002320   -0.1032853  
C    0.0000000    0.0000000    0.0000000  
H    3.0031538   -0.0000658    0.6222569  
H    2.7054615   -0.0071091   -3.5745273  
H   -3.1132998   -0.0000647   -2.0551775  
H   -2.3200276   -0.0004073    0.8516414  
H    4.3686615    0.0004077   -1.7024308  
C    2.1731786   -2.0070813   -6.1392851  
C    1.7797909   -1.6263714   -4.9015913  
C    0.6726040   -0.7095540   -5.1253816  
C    0.5289359   -0.6505898   -6.5959141  
N    1.4057873   -1.4091980   -7.1956094  
C   -0.4729140    0.1609538   -7.2305644  
C   -1.2941680    0.8805682   -6.4324222  
O   -2.2730599    1.6802757   -6.8887992  
C   -1.1744877    0.8418720   -4.9450283  
O   -1.9557877    1.5227175   -4.2807693  
C   -0.1387098    0.0017024   -4.3179683  
H    2.1901946   -1.9302425   -3.9538007  
H   -0.5551532    0.1851929   -8.3073930  
H   -2.6812858    2.0546319   -6.0873242  
C    5.0528050   -4.3151866   -3.7150672  
C    4.0524981   -3.4955417   -4.1293658  
C    4.0388795   -3.5440708   -5.5723818  
C    5.1209890   -4.4658065   -5.9676442  
N    5.6970320   -4.8985250   -4.7955435  
C    5.4327604   -4.7804286   -7.2504207  
C    4.6504710   -4.1703564   -8.3126687  
O    4.8534694   -4.3898692   -9.4996428  
C    3.4997983   -3.1909235   -7.9171092  
O    2.8345667   -2.6710004   -8.8027770  
C    3.2587564   -2.9302294   -6.5001444  
H    3.3988905   -2.9222148   -3.4963518  
H    6.2304410   -5.4590943   -7.5188010  
H    5.3736956   -4.5419904   -2.7113348  
H    6.4655921   -5.5408798   -4.7343730  
C    2.4951002    2.0940188    2.9809380  
C    1.9440701    1.6314916    1.8291961  
C    0.8759964    0.7350050    2.2038498  
C    0.8497377    0.7130254    3.6788474  
N    1.8560616    1.5571714    4.0882609  
C   -0.0205033   -0.0168748    4.4215661  
C   -0.9962600   -0.8356168    3.7214979  
O   -1.8224391   -1.5286685    4.3006425  
C   -0.9864710   -0.8277881    2.1595606  
O   -1.8030528   -1.5133726    1.5592035  
C    0.0000000    0.0000000    1.4700000  
H    2.2509283    1.8888011    0.8310761  
H   -0.0229599   -0.0187323    5.5027230  
H    3.3143982    2.7817323    3.1139444  
H    2.0889452    1.7545833    5.0442112  
