60

C    3.3003544    0.0005269   -1.4738990  
C    2.5232812    0.0003489   -2.6090747  
C    1.1623201   -0.0001325   -2.1820101  
C    1.1711882    0.0000580   -0.7636141  
N    2.4852302   -0.0014924   -0.3662355  
C    0.0000000    0.0000000    0.0000000  
C   -1.2020381    0.0000517   -0.6806479  
O   -2.3759247    0.0003494    0.0157750  
C   -1.2314655   -0.0005119   -2.0955508  
O   -2.5054387   -0.0008042   -2.6250178  
C   -0.0764516   -0.0007279   -2.8495193  
H    2.8919951   -0.0005629   -3.6205305  
H    2.8036266    0.0088176    0.5858657  
H   -3.0835637    0.0000347   -0.6418815  
H   -2.4360050   -0.0011533   -3.5845917  
H    4.3715548    0.0004886   -1.3667139  
C    2.1623912   -2.0122276   -6.1367512  
C    1.7689757   -1.6301541   -4.8994865  
C    0.6617233   -0.7136681   -5.1243082  
C    0.5180516   -0.6563682   -6.5949061  
N    1.3949575   -1.4155876   -7.1937475  
C   -0.4838560    0.1543895   -7.2304691  
C   -1.3051619    0.8748424   -6.4331370  
O   -2.2841108    1.6739661   -6.8904135  
C   -1.1854794    0.8378275   -4.9457005  
O   -1.9668285    1.5193639   -4.2822079  
C   -0.1496418   -0.0015622   -4.3176961  
H    2.1794007   -1.9329297   -3.9513546  
H   -0.5660964    0.1774116   -8.3073238  
H   -2.6923638    2.0491943   -6.0893602  
C    4.0763109   -3.5878722   -5.5958088  
C    4.9797061   -4.3686839   -6.2425586  
C    4.7290661   -4.2195131   -7.6566881  
C    3.5975025   -3.2810399   -7.7816803  
N    3.2480351   -2.9357033   -6.4965716  
C    3.0576588   -2.8801829   -8.9604876  
C    3.6291119   -3.4084672  -10.1880436  
O    3.2132697   -3.1083076  -11.2994744  
C    4.8278433   -4.4039733  -10.0793485  
O    5.3170110   -4.8555744  -11.1060097  
C    5.3230008   -4.7609556   -8.7522338  
H    5.7353078   -4.9795813   -5.7815975  
H    2.2277291   -2.1907808   -9.0301391  
H    6.1534042   -5.4506778   -8.6856322  
H    3.9458100   -3.4341792   -4.5369237  
C    0.8400945    0.7047457    2.2710304  
C    0.0000000    0.0000000    1.4700000  
C   -0.8844236   -0.7423113    2.3369512  
C   -0.4878984   -0.4098547    3.7186280  
N    0.5629682    0.4714286    3.6095011  
C   -1.0836927   -0.9095027    4.8308716  
C   -2.1891196   -1.8367527    4.6554461  
O   -2.7906899   -2.3413415    5.5944904  
C   -2.6257283   -2.2031529    3.2011665  
O   -3.5549479   -2.9829990    3.0410059  
C   -1.9068976   -1.5999348    2.0816745  
H   -0.7774656   -0.6525820    5.8354244  
H   -2.2155208   -1.8586617    1.0779135  
H    1.6384792    1.3747609    1.9961646  
H    1.0518368    0.8833920    4.3830260  
