58

C    3.4548275   -0.7035792   -2.8642451  
C    2.5562222   -0.0001542   -3.6002998  
C    3.3073795    0.7404848   -4.5862270  
C    4.7274422    0.4084863   -4.3626449  
N    4.7488625   -0.4709617   -3.3048158  
C    5.7576439    0.9069207   -5.0919950  
C    5.4471117    1.8322880   -6.1689352  
O    6.3047248    2.3356815   -6.8826537  
C    3.9500528    2.1981726   -6.4233946  
O    3.6764178    2.9764380   -7.3271020  
C    2.9278449    1.5963822   -5.5708748  
H    6.7923193    0.6503639   -4.9116172  
H    1.8936598    1.8547409   -5.7537306  
H    3.2806111   -1.3721682   -2.0368841  
H    5.5768200   -0.8822071   -2.9144164  
C    0.0000000    0.0000000    0.0000000  
C    1.0541691   -0.0001719   -0.8560389  
C    0.5103143   -0.0000448   -2.1935953  
C   -0.9576364    0.0002464   -2.0455731  
N   -1.2018458   -0.0001389   -0.6915972  
C   -1.8348303    0.0008322   -3.0810611  
C   -1.2972837    0.0009745   -4.4314603  
O   -2.0050658    0.0014276   -5.4301322  
C    0.2542633    0.0004194   -4.6117570  
O    0.7184681    0.0002269   -5.7439118  
C    1.0974560    0.0000881   -3.4189126  
H    2.0940754   -0.0005481   -0.5817976  
H   -2.1128195    0.0014913   -0.2706792  
C   -4.0214236    0.6873773   -1.9917553  
C   -3.2941065    0.0012879   -2.9038247  
C   -4.2729617   -0.7438334   -3.6804434  
C   -5.5765688   -0.3795575   -3.0850477  
N   -5.4354542    0.4591735   -2.0947920  
C   -6.8150142   -0.9155365   -3.5790769  
C   -6.7539654   -1.7760009   -4.6208104  
O   -7.8303751   -2.3520036   -5.1825960  
C   -5.4537085   -2.1628842   -5.2435582  
O   -5.4732681   -2.9512789   -6.1886890  
C   -4.1970791   -1.5995184   -4.7187476  
H   -7.7531675   -0.6321082   -3.1247130  
H   -7.4696169   -2.9089609   -5.8959014  
H   -3.2763235   -1.9047882   -5.1975477  
H   -3.6647948    1.3595209   -1.2275482  
C    3.2798086   -0.0005857    2.9199648  
C    2.5571146   -0.0005566    4.0696553  
C    1.1637436   -0.0001548    3.6910360  
C    1.1336965    0.0000200    2.2159470  
N    2.4483514    0.0001428    1.8102719  
C    0.0000000    0.0000000    1.4700000  
C   -1.2757367    0.0000186    2.1664417  
O   -2.3524596    0.0000640    1.5842315  
C   -1.2676493    0.0000873    3.7284083  
O   -2.3355761    0.0004100    4.3257297  
C    0.0181563   -0.0001760    4.4216297  
H    2.9547357   -0.0006076    5.0689105  
H    0.0150794   -0.0003319    5.5031631  
H    4.3498549   -0.0008612    2.7900019  
H    2.7563627   -0.0012824    0.8551938  
