58

C   -0.3742253   -0.0620426   -8.7963141  
C    0.3798493   -0.7198990   -9.7142851  
C   -0.1166401   -0.3413153  -11.0162102  
C   -1.2297400    0.5977817  -10.7797867  
N   -1.3348887    0.7244183   -9.4138457  
C   -1.9625204    1.1840058  -11.7601327  
C   -1.6330592    0.8688398  -13.1402282  
O   -2.2341876    1.3454231  -14.0940689  
C   -0.4581701   -0.1234012  -13.4139045  
O   -0.1718083   -0.3965567  -14.5717658  
C    0.2582860   -0.6910716  -12.2744781  
H    1.1911691   -1.3936358   -9.5034486  
H   -2.7749343    1.8702215  -11.5651928  
H    1.0706122   -1.3770979  -12.4725134  
H   -2.0048420    1.3010669   -8.9387806  
C    2.2088374   -2.1426207   -5.8191636  
C    1.6816912   -1.7351243   -6.9971456  
C    0.6077900   -0.8240080   -6.6323121  
C    0.6276206   -0.7974854   -5.1539730  
N    1.5640846   -1.5684500   -4.6716456  
C   -0.2963293   -0.0005341   -4.3948471  
C   -1.1988048    0.7367190   -5.0813825  
O   -2.1196089    1.5258328   -4.5021932  
C   -1.2438086    0.7314045   -6.5733969  
O   -2.0920751    1.4267088   -7.1321599  
C   -0.2854235   -0.0943978   -7.3293552  
H    1.9842852   -2.0178259   -7.9909228  
H   -2.6127107    1.9180866   -5.2452551  
H    3.0283492   -2.8250551   -5.6589865  
C    3.1301146   -0.0010313   -1.7028256  
C    2.5367765   -0.0002766   -0.4864669  
C    1.1089901    0.0001027   -0.7656184  
C    1.0177865   -0.0004150   -2.2415133  
N    2.1993571   -0.0011612   -2.7963824  
C   -0.2459219   -0.0002879   -2.9257116  
C   -1.3675326   -0.0000606   -2.1698520  
O   -2.6129318    0.0000865   -2.6748483  
C   -1.3083588    0.0000910   -0.6783229  
O   -2.3693264    0.0004206   -0.0541685  
C    0.0000000    0.0000000    0.0000000  
H    3.0096016   -0.0001007    0.4807518  
H   -3.1967444    0.0002093   -1.8949026  
H    4.1849275   -0.0015114   -1.9271979  
C    2.4951002    2.0940188    2.9809380  
C    1.9440701    1.6314916    1.8291961  
C    0.8759964    0.7350050    2.2038498  
C    0.8497377    0.7130254    3.6788474  
N    1.8560616    1.5571714    4.0882609  
C   -0.0205033   -0.0168748    4.4215661  
C   -0.9962600   -0.8356168    3.7214979  
O   -1.8224391   -1.5286685    4.3006425  
C   -0.9864710   -0.8277881    2.1595606  
O   -1.8030528   -1.5133726    1.5592035  
C    0.0000000    0.0000000    1.4700000  
H    2.2509283    1.8888011    0.8310761  
H   -0.0229599   -0.0187323    5.5027230  
H    3.3143982    2.7817323    3.1139444  
H    2.0889452    1.7545833    5.0442112  
