60

C    1.1243397    0.0100587   -0.7919008  
C    0.7474050    0.0234990   -2.1148549  
C   -0.6787407    0.0234097   -2.1414696  
C   -1.1201756    0.0097938   -0.7935543  
N    0.0000000    0.0000000    0.0000000  
C   -2.4730823    0.0062259   -0.4408234  
C   -3.3971976    0.0168991   -1.4675051  
O   -4.7313527    0.0143484   -1.1793462  
C   -2.9763681    0.0301765   -2.8186315  
O   -4.0166513    0.0392766   -3.7247609  
C   -1.6418599    0.0334306   -3.1673478  
H   -2.8160163   -0.0042766    0.5845976  
H   -5.1938847    0.0227821   -2.0274361  
H   -3.6464721    0.0480164   -4.6127334  
H   -1.3497514    0.0435084   -4.2109230  
H    2.1062457    0.0054059   -0.3505416  
C    2.8410155   -0.6914087   -3.3574595  
C    3.4607952   -0.4638597   -4.5441225  
C    2.6381572    0.4698018   -5.2765010  
C    1.4800223    0.7697157   -4.4130397  
N    1.6628915    0.0339888   -3.2649308  
C    0.4704761    1.6131951   -4.7463023  
C    0.5283133    2.2692638   -6.0419736  
O   -0.3323904    3.0462149   -6.4341923  
C    1.7455370    1.9661678   -6.9727280  
O    1.8049353    2.5123990   -8.0660552  
C    2.7718921    1.0388940   -6.5030354  
H    4.3882980   -0.9003973   -4.8693730  
H   -0.3699633    1.8194938   -4.0982191  
H    3.1456979   -1.3281646   -2.5428425  
C    4.9389620   -2.6749999   -7.3941815  
C    5.8535695   -2.1954289   -8.2759862  
C    5.6019400   -0.7805171   -8.4157861  
C    4.4575776   -0.4728732   -7.5368206  
N    4.1024016   -1.6638004   -6.9465394  
C    3.9131114    0.7611495   -7.3869900  
C    4.4927433    1.8595887   -8.1419692  
O    4.0736111    3.0077301   -8.0756343  
C    5.7050701    1.5566573   -9.0791470  
O    6.2012119    2.4734034   -9.7199909  
C    6.2041358    0.1859902   -9.1569764  
H    6.6172169   -2.7675954   -8.7720505  
H    7.0439655   -0.0153613   -9.8080276  
H    4.8055548   -3.6821020   -7.0338513  
H    3.3524253   -1.7800567   -6.2899823  
C    2.4951002    2.0940188    2.9809380  
C    1.9440701    1.6314916    1.8291961  
C    0.8759964    0.7350050    2.2038498  
C    0.8497377    0.7130254    3.6788474  
N    1.8560616    1.5571714    4.0882609  
C   -0.0205033   -0.0168748    4.4215661  
C   -0.9962600   -0.8356168    3.7214979  
O   -1.8224391   -1.5286685    4.3006425  
C   -0.9864710   -0.8277881    2.1595606  
O   -1.8030528   -1.5133726    1.5592035  
C    0.0000000    0.0000000    1.4700000  
H    2.2509283    1.8888011    0.8310761  
H   -0.0229599   -0.0187323    5.5027230  
H    3.3143982    2.7817323    3.1139444  
H    2.0889452    1.7545833    5.0442112  
