60

C   -3.3040082    0.0281028   -1.5420424  
C   -2.5844392    0.0225525   -0.3695848  
C   -1.2039567    0.0102840   -0.7283588  
C   -1.1422016    0.0091521   -2.1454372  
N   -2.4347980    0.0181853   -2.6077461  
C    0.0655074   -0.0014395   -2.8497915  
C    1.2321298   -0.0107566   -2.1101402  
O    2.4391913   -0.0209488   -2.7472522  
C    1.1910763   -0.0101726   -0.6955267  
O    2.4370656   -0.0205839   -0.1032868  
C    0.0000000    0.0000000    0.0000000  
H   -3.0030432    0.0257161    0.6222587  
H   -2.7053039    0.0302169   -3.5745259  
H    0.1193376   -0.0025040   -3.9297473  
H    3.1131857   -0.0265260   -2.0551788  
H    2.3199472   -0.0194084    0.8516408  
C   -6.5768786    0.0597326    1.3345549  
C   -7.6642453    0.0682250    0.5288622  
C   -7.1288299    0.0618786   -0.8238352  
C   -5.6611848    0.0494045   -0.6437050  
N   -5.3316589    0.0480115    0.6193867  
C   -4.7575533    0.0401229   -1.7610452  
C   -5.2956403    0.0427756   -3.0019279  
O   -4.5715316    0.0349887   -4.1340262  
C   -6.7728039    0.0549057   -3.2164052  
O   -7.1924933    0.0568115   -4.3735903  
C   -7.6788208    0.0643183   -2.0540930  
H   -5.2315990    0.0394294   -4.8505765  
H   -8.7423303    0.0728702   -2.2518429  
H   -6.5490989    0.0608174    2.4126091  
C   -9.7871005    2.1983195    3.7287875  
C  -11.0469749    1.7444049    3.5035037  
C  -10.9755649    0.8470479    2.3745722  
C   -9.5606642    0.8151271    1.9576458  
N   -8.8930609    1.6555707    2.8183722  
C   -9.0805972    0.0809490    0.9221638  
C  -10.0201861   -0.7318884    0.1678407  
O   -9.6858969   -1.4280284   -0.7818651  
C  -11.5234562   -0.7131246    0.5916686  
O  -12.3238465   -1.3931961   -0.0361372  
C  -11.9206545    0.1180169    1.7253750  
H  -11.9260484    2.0082432    4.0640684  
H  -12.9633388    0.1252838    2.0125695  
H   -9.4365748    2.8838331    4.4831698  
H   -7.9077623    1.8439198    2.7908307  
C    2.5128556    2.1077716    2.9199648  
C    1.9592212    1.6432552    4.0696553  
C    0.8915788    0.7479214    3.6910360  
C    0.8684491    0.7287414    2.2159470  
N    1.8754542    1.5738793    1.8102719  
C    0.0000000    0.0000000    1.4700000  
C   -0.9772830   -0.8200135    2.1664417  
O   -1.8021297   -1.5120829    1.5842315  
C   -0.9711318   -0.8147624    3.7284083  
O   -1.7894187   -1.5009653    4.3257297  
C    0.0140216    0.0115358    4.4216297  
H    2.2638494    1.8988021    5.0689105  
H    0.0117648    0.0094386    5.5031631  
H    3.3327358    2.7953732    2.7900019  
H    2.1123206    1.7707734    0.8551938  
