62

C    3.3041269    0.0001175   -1.5420426  
C    2.5845369   -0.0004781   -0.3695850  
C    1.2040006   -0.0000009   -0.7283587  
C    1.1422370    0.0006035   -2.1454368  
N    2.4348637    0.0026106   -2.6077462  
C   -0.0655187    0.0008795   -2.8497912  
C   -1.2321773    0.0002320   -2.1101394  
O   -2.4392815    0.0001144   -2.7472514  
C   -1.1911212   -0.0000008   -0.6955259  
O   -2.4371528   -0.0002320   -0.1032851  
C    0.0000000    0.0000000    0.0000000  
H    3.0031534   -0.0000661    0.6222590  
H   -0.1193551    0.0014838   -3.9297465  
H   -3.1132990   -0.0000651   -2.0551779  
H   -2.3200282   -0.0004068    0.8516418  
H    4.3686618    0.0004068   -1.7024290  
C    3.8860205   -0.7395034   -4.5524246  
C    3.9939097   -0.5373191   -5.8909151  
C    2.9441499    0.3812270   -6.2638935  
C    2.2105942    0.6999140   -5.0240848  
N    2.8310659   -0.0116225   -4.0232749  
C    1.1445016    1.5367990   -4.9549937  
C    0.6890266    2.1654498   -6.1837640  
O   -0.2623538    2.9344941   -6.2255532  
C    1.4508807    1.8421321   -7.5084711  
O    1.0763534    2.3652224   -8.5493195  
C    2.5861428    0.9243289   -7.4567932  
H    0.6206116    1.7571749   -4.0352745  
H    3.1083965    0.7058561   -8.3783375  
H    4.4883010   -1.3591735   -3.9080980  
C    5.6981491   -4.6148197   -6.0595449  
C    6.5402069   -4.4093066   -7.1278014  
C    6.3723808   -3.0526942   -7.5352786  
C    5.4071284   -2.4749797   -6.6712996  
N    5.0170471   -3.4512216   -5.7884602  
C    4.9935929   -1.1439695   -6.7817060  
C    5.5651050   -0.3821981   -7.7823337  
O    5.1977666    0.9235221   -7.9345542  
C    6.5295677   -0.9407417   -8.6544900  
O    7.0045169   -0.0542789   -9.5989222  
C    6.9378055   -2.2538180   -8.5463254  
H    7.1940801   -5.1467987   -7.5608700  
H    4.3482998   -3.3316126   -5.0492355  
H    5.7087113    1.2658364   -8.6795522  
H    7.6505554   -0.5106079  -10.1466475  
H    7.6783192   -2.6538743   -9.2290215  
H    5.5284548   -5.4997592   -5.4704398  
C    0.8681109    0.7263879    2.2709268  
C    0.6127770    0.5096195    3.5869401  
C   -0.4920590   -0.4175482    3.6542670  
C   -0.8620974   -0.7254003    2.2596025  
N    0.0000000    0.0000000    1.4700000  
C   -1.8641242   -1.5660088    1.8976294  
C   -2.6293522   -2.2103885    2.9520183  
O   -3.5512764   -2.9839180    2.7283916  
C   -2.2549728   -1.8987399    4.4361073  
O   -2.8923672   -2.4351063    5.3323774  
C   -1.1543735   -0.9755647    4.7012123  
H    1.1382914    0.9492124    4.4159191  
H   -2.1192137   -1.7782617    0.8686553  
H   -0.9013378   -0.7652422    5.7314848  
H    1.6172880    1.3558399    1.8188057  
