62

C    3.3041270    0.0001178   -1.5420432  
C    2.5845372   -0.0004779   -0.3695853  
C    1.2040007   -0.0000006   -0.7283591  
C    1.1422373    0.0006039   -2.1454374  
N    2.4348636    0.0026110   -2.6077466  
C   -0.0655186    0.0008800   -2.8497915  
C   -1.2321770    0.0002326   -2.1101397  
O   -2.4392818    0.0001149   -2.7472515  
C   -1.1911209   -0.0000006   -0.6955262  
O   -2.4371522   -0.0002319   -0.1032858  
C    0.0000000    0.0000000    0.0000000  
H    3.0031535   -0.0000661    0.6222580  
H    2.7054625   -0.0071097   -3.5745263  
H   -3.1132993   -0.0000646   -2.0551781  
H   -2.3200286   -0.0004070    0.8516413  
C    4.7577214    0.0005130   -1.7610465  
C    5.7612594   -0.0009797   -0.8461777  
C    7.0028643    0.0003067   -1.5832343  
C    6.6377953    0.0027174   -3.0127478  
N    5.2625468    0.0023276   -3.0525136  
C    7.5310403    0.0048719   -4.0344194  
C    8.9464544    0.0045861   -3.7040574  
O    9.8285345    0.0063486   -4.5527232  
C    9.3558925    0.0017971   -2.1966893  
O   10.5445699    0.0012259   -1.9063364  
C    8.3019806   -0.0000949   -1.1851958  
H    5.6450062   -0.0029591    0.2229782  
H    7.2422424    0.0067506   -5.0762934  
H    8.5938435   -0.0018161   -0.1437848  
H    4.7106076    0.0051848   -3.8906083  
C    2.2991554   -2.1048097   -5.8924429  
C    1.6888956   -1.6397492   -7.0128789  
C    0.6412937   -0.7448181   -6.5810641  
C    0.6916331   -0.7264670   -5.1066422  
N    1.7177148   -1.5716516   -4.7520878  
C   -0.1387086    0.0017020   -4.3179679  
C   -1.1495782    0.8219302   -4.9644225  
O   -1.9445183    1.5135267   -4.3414737  
C   -1.2212027    0.8175536   -6.5247612  
O   -2.0683181    1.5039444   -7.0802108  
C   -0.2716616   -0.0081808   -7.2666415  
H    1.9434327   -1.8946828   -8.0262068  
H   -0.3277644   -0.0054792   -8.3467194  
H    3.1245930   -2.7923373   -5.8038523  
H    2.0018696   -1.7690375   -3.8100996  
C    0.8576279    0.7185626    2.2703808  
C    0.0000000    0.0000000    1.4700000  
C   -0.8668858   -0.7285659    2.3373528  
C   -0.4876752   -0.4117774    3.6669281  
N    0.5635254    0.4678311    3.5902241  
C   -1.1297612   -0.9515493    4.7854808  
C   -2.1738724   -1.8268314    4.5576857  
O   -2.8357962   -2.3827064    5.6140350  
C   -2.5667212   -2.1555554    3.2384331  
O   -3.6226318   -3.0413663    3.1773122  
C   -1.9335634   -1.6236449    2.1344818  
H    1.0363952    0.8769718    4.3757045  
H   -0.8454472   -0.7142436    5.8013813  
H   -3.5178062   -2.9546422    5.2385129  
H   -3.8247440   -3.2102924    2.2519915  
H   -2.2566033   -1.8942483    1.1360343  
H    1.6567807    1.3889844    2.0042067  
