58

C    2.5562220   -0.0001552   -3.6003002  
C    3.5357961    0.0004086   -2.6598166  
C    4.7960234   -0.0001377   -3.3645601  
C    4.4679970   -0.0010433   -4.8030276  
N    3.0942345   -0.0014084   -4.8782987  
C    5.3873321   -0.0013582   -5.8012895  
C    6.7937423   -0.0009918   -5.4344811  
O    7.6974453   -0.0012924   -6.2600835  
C    7.1641097   -0.0002857   -3.9170388  
O    8.3448918   -0.0002790   -3.5960811  
C    6.0844253    0.0002815   -2.9331011  
H    3.3919682    0.0009429   -1.5940183  
H    5.1255390   -0.0018946   -6.8502769  
H    6.3492939    0.0009740   -1.8844985  
H    2.5641260   -0.0004665   -5.7303735  
C    0.0000000    0.0000000    0.0000000  
C    1.0541690   -0.0001722   -0.8560392  
C    0.5103143   -0.0000454   -2.1935956  
C   -0.9576365    0.0002459   -2.0455735  
N   -1.2018458   -0.0001391   -0.6915971  
C   -1.8348304    0.0008316   -3.0810614  
C   -1.2972839    0.0009736   -4.4314607  
O   -2.0050661    0.0014265   -5.4301325  
C    0.2542633    0.0004184   -4.6117571  
O    0.7184680    0.0002257   -5.7439119  
C    1.0974559    0.0000874   -3.4189129  
H    2.0940753   -0.0005483   -0.5817981  
H   -2.1128193    0.0014911   -0.2706794  
C   -3.2941067    0.0012872   -2.9038248  
C   -4.0168008    0.0014136   -1.7541342  
C   -5.4101717    0.0018618   -2.1327539  
C   -5.4402189    0.0019578   -3.6078429  
N   -4.1255637    0.0019954   -4.0135178  
C   -6.5739147    0.0019518   -4.3537899  
C   -7.8496515    0.0020697   -3.6573488  
O   -8.9263739    0.0021352   -4.2395589  
C   -7.8415644    0.0022229   -2.0953820  
O   -8.9094913    0.0026296   -1.4980607  
C   -6.5557589    0.0019355   -1.4021603  
H   -3.6191796    0.0013978   -0.7548791  
H   -6.5739150    0.0018930   -5.4349512  
H   -6.5588361    0.0018386   -0.3206269  
H   -3.8175524    0.0005034   -4.9685958  
C    3.2573670    0.0002920    2.9809380  
C    2.5379467    0.0001709    1.8291961  
C    1.1435042   -0.0000331    2.2038498  
C    1.1092607    0.0000083    3.6788474  
N    2.4227561   -0.0001909    4.0882609  
C   -0.0265533    0.0002524    4.4215661  
C   -1.3003036    0.0002640    3.7214979  
O   -2.3786784    0.0004133    4.3006425  
C   -1.2877726   -0.0000311    2.1595606  
O   -2.3539958   -0.0003306    1.5592035  
C    0.0000000    0.0000000    1.4700000  
H    2.9384090    0.0000368    0.8310761  
H   -0.0296291    0.0004086    5.5027230  
H    4.3270393    0.0004765    3.1139444  
H    2.7280493    0.0013407    5.0442112  
