60

C    3.3003547    0.0005275   -1.4738980  
C    2.5232816    0.0003495   -2.6090742  
C    1.1623206   -0.0001320   -2.1820096  
C    1.1711889    0.0000583   -0.7636136  
N    2.4852300   -0.0014920   -0.3662353  
C    0.0000000    0.0000000    0.0000000  
C   -1.2020382    0.0000519   -0.6806479  
O   -2.3759247    0.0003494    0.0157745  
C   -1.2314650   -0.0005113   -2.0955508  
O   -2.5054383   -0.0008037   -2.6250181  
C   -0.0764510   -0.0007273   -2.8495192  
H    2.8919962   -0.0005621   -3.6205295  
H    2.8036265    0.0088181    0.5858667  
H   -3.0835641    0.0000347   -0.6418820  
H   -2.4360047   -0.0011529   -3.5845921  
C    5.6692781    0.0003509   -2.3388886  
C    4.7630506    0.0004754   -1.3275394  
C    5.5107324    0.0002563   -0.0923034  
C    6.9370640    0.0000210   -0.4696224  
N    6.9650293   -0.0003075   -1.8451613  
C    7.9663628    0.0001703    0.4148255  
C    7.6481554    0.0003646    1.8330215  
O    8.5043584    0.0004476    2.7077878  
C    6.1443525    0.0003633    2.2553745  
O    5.8642069    0.0002193    3.4465004  
C    5.1238538    0.0004732    1.2101796  
H    9.0057225    0.0001229    0.1170994  
H    4.0849828    0.0006771    1.5109657  
H    5.4995504    0.0004676   -3.4033520  
H    7.7983621    0.0010317   -2.4042699  
C    2.2675107   -2.0960614   -5.9498174  
C    1.7744254   -1.6329638   -4.7723274  
C    0.6888627   -0.7368509   -5.0938394  
C    0.5891940   -0.7157122   -6.5657122  
N    1.5740363   -1.5599388   -7.0242501  
C   -0.3170773    0.0136354   -7.2645893  
C   -1.2569144    0.8326276   -6.5172655  
O   -2.1110276    1.5252262   -7.0549445  
C   -1.1693688    0.8256867   -4.9577486  
O   -1.9551691    1.5114887   -4.3178628  
C   -0.1496409   -0.0015614   -4.3176961  
H    2.1306445   -1.8896608   -3.7905799  
H   -0.3733609    0.0148791   -8.3442837  
H    3.0792932   -2.7837270   -6.1230660  
H    1.7590703   -1.7578581   -7.9904993  
C    0.0000000    0.0000000    1.4700000  
C    1.0541688    0.0001722    2.3260392  
C    0.5103138    0.0000454    3.6635956  
C   -0.9576371   -0.0002459    3.5155732  
N   -1.2018458    0.0001392    2.1615969  
C   -1.8348311   -0.0008317    4.5510609  
C   -1.2972847   -0.0009736    5.9014604  
O   -2.0050672   -0.0014265    6.9001319  
C    0.2542623   -0.0004184    6.0817573  
O    0.7184670   -0.0002256    7.2139121  
C    1.0974552   -0.0000873    4.8889129  
H    2.0940752    0.0005483    2.0517982  
H   -2.9081052   -0.0011668    4.4207061  
H    2.1707277    0.0000911    5.0223670  
H   -2.1128194   -0.0014912    1.7406791  
