64

C    2.3020057   -2.1258166   -5.9826643  
C    1.8093620   -1.6631474   -4.7844546  
C    0.7354061   -0.7757530   -5.0906400  
C    0.6179773   -0.7364006   -6.5036468  
N    1.5853773   -1.5658598   -7.0142848  
C   -0.3411004    0.0396021   -7.1615064  
C   -1.1974273    0.7893049   -6.3786729  
O   -2.1529118    1.5646256   -6.9693851  
C   -1.0957283    0.7635435   -4.9673579  
O   -2.0198647    1.5644922   -4.3287681  
C   -0.1496415   -0.0015615   -4.3176961  
H    2.1793385   -1.9313019   -3.8096702  
H   -0.4356785    0.0740519   -8.2381070  
H   -2.6343336    1.9980531   -6.2526991  
H   -1.8828073    1.4896273   -3.3794446  
H    3.1087983   -2.8098331   -6.1830803  
C    2.5879643   -5.2807332   -9.1945194  
C    2.6299109   -4.7373280  -10.4576173  
C    2.3358950   -3.3480559  -10.3231614  
C    2.1218537   -3.0995820   -8.9431712  
N    2.2806245   -4.2946448   -8.2864872  
C    1.8089419   -1.8321958   -8.4425652  
C    1.7106059   -0.7967207   -9.3515746  
O    1.4078063    0.4611618   -8.9167673  
C    1.9202994   -1.0248151  -10.7324502  
O    1.7865529    0.1073307  -11.5094330  
C    2.2287605   -2.2749149  -11.2270500  
H    2.8447819   -5.2762084  -11.3644975  
H    2.1993464   -4.4270764   -7.2946013  
H    1.3886592    1.0241219   -9.7016080  
H    1.9438122   -0.1335296  -12.4275076  
H    2.3837132   -2.4191263  -12.2899108  
H    2.7515518   -6.2939758   -8.8696542  
C    3.3003543    0.0005276   -1.4738987  
C    2.5232814    0.0003497   -2.6090747  
C    1.1623200   -0.0001320   -2.1820103  
C    1.1711883    0.0000582   -0.7636140  
N    2.4852300   -0.0014919   -0.3662360  
C    0.0000000    0.0000000    0.0000000  
C   -1.2020384    0.0000519   -0.6806477  
O   -2.3759249    0.0003493    0.0157743  
C   -1.2314656   -0.0005115   -2.0955510  
O   -2.5054392   -0.0008039   -2.6250180  
C   -0.0764516   -0.0007274   -2.8495195  
H    2.8919955   -0.0005620   -3.6205304  
H    2.8036267    0.0088183    0.5858662  
H   -3.0835638    0.0000347   -0.6418818  
H   -2.4360047   -0.0011529   -3.5845921  
H    4.3715549    0.0004895   -1.3667136  
C    2.5128556    2.1077716    2.9199648  
C    1.9592212    1.6432552    4.0696553  
C    0.8915788    0.7479214    3.6910360  
C    0.8684491    0.7287414    2.2159470  
N    1.8754542    1.5738793    1.8102719  
C    0.0000000    0.0000000    1.4700000  
C   -0.9772830   -0.8200135    2.1664417  
O   -1.8021297   -1.5120829    1.5842315  
C   -0.9711318   -0.8147624    3.7284083  
O   -1.7894187   -1.5009653    4.3257297  
C    0.0140216    0.0115358    4.4216297  
H    2.2638494    1.8988021    5.0689105  
H    0.0117648    0.0094386    5.5031631  
H    3.3327358    2.7953732    2.7900019  
H    2.1123206    1.7707734    0.8551938  
