58

C    7.6308972   -0.7059164   -4.5226990  
C    8.9787733   -0.7004035   -4.3575465  
C    9.4253755    0.6535380   -4.5860732  
C    8.2185421    1.4420277   -4.9001245  
N    7.1645721    0.5593762   -4.8456778  
C    8.2187404    2.7703784   -5.1779524  
C    9.4926112    3.4701461   -5.1671513  
O    9.5975029    4.6663778   -5.4044890  
C   10.7835046    2.6548873   -4.8373772  
O   11.8617853    3.2331886   -4.8256165  
C   10.6565227    1.2274677   -4.5541794  
H    9.5903942   -1.5481041   -4.1046891  
H    7.3221607    3.3300216   -5.4056653  
H   11.5550722    0.6702206   -4.3265643  
H    6.9390342   -1.5279088   -4.4358452  
C    3.4546603   -0.7051940   -2.8655879  
C    2.5562217   -0.0001543   -3.6003001  
C    3.3075553    0.7421849   -4.5848131  
C    4.7275393    0.4094242   -4.3618644  
N    4.7487509   -0.4720442   -3.3057142  
C    5.7578599    0.9090037   -5.0902629  
C    5.4475471    1.8364959   -6.1654369  
O    6.3052803    2.3410463   -6.8781952  
C    3.9505757    2.2032202   -6.4191985  
O    3.6771258    2.9832721   -7.3214208  
C    2.9282239    1.6000479   -5.5678277  
H    1.8941006    1.8589998   -5.7501908  
H    3.2802844   -1.3753180   -2.0395027  
H    5.5766095   -0.8842294   -2.9160992  
C    0.0000000    0.0000000    0.0000000  
C    1.0541688   -0.0001719   -0.8560391  
C    0.5103141   -0.0000449   -2.1935955  
C   -0.9576367    0.0002461   -2.0455733  
N   -1.2018459   -0.0001392   -0.6915970  
C   -1.8348306    0.0008319   -3.0810611  
C   -1.2972842    0.0009739   -4.4314605  
O   -2.0050664    0.0014267   -5.4301321  
C    0.2542628    0.0004190   -4.6117571  
O    0.7184677    0.0002263   -5.7439119  
C    1.0974556    0.0000880   -3.4189127  
H    2.0940752   -0.0005479   -0.5817978  
H   -2.9081050    0.0011669   -2.9507065  
H   -2.1128195    0.0014911   -0.2706793  
C    3.2573670    0.0002920    2.9809380  
C    2.5379467    0.0001709    1.8291961  
C    1.1435042   -0.0000331    2.2038498  
C    1.1092607    0.0000083    3.6788474  
N    2.4227561   -0.0001909    4.0882609  
C   -0.0265533    0.0002524    4.4215661  
C   -1.3003036    0.0002640    3.7214979  
O   -2.3786784    0.0004133    4.3006425  
C   -1.2877726   -0.0000311    2.1595606  
O   -2.3539958   -0.0003306    1.5592035  
C    0.0000000    0.0000000    1.4700000  
H    2.9384090    0.0000368    0.8310761  
H   -0.0296291    0.0004086    5.5027230  
H    4.3270393    0.0004765    3.1139444  
H    2.7280493    0.0013407    5.0442112  
