60

C    3.3041270    0.0001178   -1.5420432  
C    2.5845372   -0.0004779   -0.3695853  
C    1.2040007   -0.0000006   -0.7283591  
C    1.1422373    0.0006039   -2.1454374  
N    2.4348636    0.0026110   -2.6077466  
C   -0.0655186    0.0008800   -2.8497915  
C   -1.2321770    0.0002326   -2.1101397  
O   -2.4392818    0.0001149   -2.7472515  
C   -1.1911209   -0.0000006   -0.6955262  
O   -2.4371522   -0.0002319   -0.1032858  
C    0.0000000    0.0000000    0.0000000  
H    3.0031535   -0.0000661    0.6222580  
H    2.7054625   -0.0071097   -3.5745263  
H   -3.1132993   -0.0000646   -2.0551781  
H   -2.3200286   -0.0004070    0.8516413  
C    5.7183462    0.0008988   -0.7610764  
C    6.9697732    0.0035942   -1.2883311  
C    6.8214686    0.0054665   -2.7245894  
C    5.3706562    0.0036572   -2.9927892  
N    4.7577214    0.0005130   -1.7610465  
C    4.8178652    0.0050248   -4.2321942  
C    5.7114453    0.0082855   -5.3785093  
O    5.3110217    0.0096651   -6.5352118  
C    7.2515428    0.0099939   -5.1179311  
O    8.0137026    0.0124328   -6.0752019  
C    7.7277041    0.0085533   -3.7369455  
H    7.8915733    0.0040190   -0.7343470  
H    3.7509359    0.0037840   -4.4070375  
H    8.7954986    0.0099565   -3.5650785  
H    5.4170503   -0.0010550    0.2738664  
C   -0.1387086    0.0017020   -4.3179679  
C    0.8715313    0.0021968   -5.2254317  
C    0.2617552    0.0029744   -6.5342509  
C   -1.1970052    0.0029207   -6.3133239  
N   -1.3734978    0.0017348   -4.9488685  
C   -2.1246674    0.0039288   -7.3038522  
C   -1.6550229    0.0049219   -8.6793405  
O   -2.4116503    0.0058068   -9.6415332  
C   -0.1143768    0.0047447   -8.9366640  
O    0.2928832    0.0052679  -10.0905265  
C    0.7871608    0.0038972   -7.7872811  
H    1.9238024    0.0018531   -5.0033070  
H   -3.1901200    0.0039993   -7.1202221  
H    1.8524579    0.0039851   -7.9740072  
H   -2.2623846    0.0029671   -4.4831157  
C    0.8681109    0.7263879    2.2709268  
C    0.6127770    0.5096195    3.5869401  
C   -0.4920590   -0.4175482    3.6542670  
C   -0.8620974   -0.7254003    2.2596025  
N    0.0000000    0.0000000    1.4700000  
C   -1.8641242   -1.5660088    1.8976294  
C   -2.6293522   -2.2103885    2.9520183  
O   -3.5512764   -2.9839180    2.7283916  
C   -2.2549728   -1.8987399    4.4361073  
O   -2.8923672   -2.4351063    5.3323774  
C   -1.1543735   -0.9755647    4.7012123  
H    1.1382914    0.9492124    4.4159191  
H   -2.1192137   -1.7782617    0.8686553  
H   -0.9013378   -0.7652422    5.7314848  
H    1.6172880    1.3558399    1.8188057  
