58

C    3.0623779   -0.7272681   -7.3485016  
C    4.3218510   -0.5112495   -7.8080000  
C    4.2146212    0.4145491   -8.9108305  
C    2.7791473    0.7224149   -9.0571964  
N    2.1349317   -0.0016716   -8.0806843  
C    2.2641305    1.5619226   -9.9908387  
C    3.1850655    2.2050185  -10.9132510  
O    2.8192662    2.9774989  -11.7894728  
C    4.7095327    1.8933317  -10.7766635  
O    5.4944177    2.4286224  -11.5478172  
C    5.1443864    0.9714097   -9.7303298  
H    5.2231321   -0.9504777   -7.4189194  
H    1.2078653    1.7742071  -10.0811091  
H    6.2016112    0.7610526   -9.6422951  
H    2.7336851   -1.3556565   -6.5367263  
C   -0.2963294   -0.0005341   -4.3948471  
C    0.7278651   -0.0010062   -5.2865309  
C    0.1384644   -0.0010223   -6.6046515  
C   -1.3235472   -0.0004880   -6.4063792  
N   -1.5211839   -0.0006101   -5.0448251  
C   -2.2357329    0.0000549   -7.4111788  
C   -1.7448089   -0.0001089   -8.7792175  
O   -2.4864203    0.0002821   -9.7530304  
C   -0.2003571   -0.0009250   -9.0126110  
O    0.2247524   -0.0013763  -10.1600176  
C    0.6832434   -0.0011819   -7.8493819  
H    1.7765638   -0.0014911   -5.0481103  
H   -3.3039063    0.0005715   -7.2440972  
H   -2.4171880    0.0012260   -4.5929174  
C    3.1301143   -0.0010313   -1.7028257  
C    2.5367765   -0.0002767   -0.4864669  
C    1.1089900    0.0001027   -0.7656184  
C    1.0177864   -0.0004150   -2.2415133  
N    2.1993571   -0.0011613   -2.7963824  
C   -0.2459220   -0.0002879   -2.9257116  
C   -1.3675327   -0.0000606   -2.1698519  
O   -2.6129319    0.0000866   -2.6748482  
C   -1.3083588    0.0000910   -0.6783229  
O   -2.3693264    0.0004206   -0.0541685  
C    0.0000000    0.0000000    0.0000000  
H    3.0096014   -0.0001008    0.4807517  
H   -3.1967445    0.0002093   -1.8949025  
H    4.1849272   -0.0015113   -1.9271980  
C    2.3971438    2.0127888    3.1728260  
C    1.9431056    1.6308205    1.9564670  
C    0.8496017    0.7127664    2.2356185  
C    0.7794028    0.6545384    3.7115134  
N    1.6840587    1.4146091    4.2663826  
C   -0.1885723   -0.1578550    4.3957118  
C   -1.0476298   -0.8789867    3.6398520  
O   -2.0015663   -1.6796266    4.1448486  
C   -1.0022026   -0.8410666    2.1483229  
O   -1.8147390   -1.5232959    1.5241687  
C    0.0000000    0.0000000    1.4700000  
H    2.3054237    1.9346118    0.9892483  
H   -0.2170646   -0.1815267    5.4753125  
H   -2.4487139   -2.0549881    3.3649027  
H    3.2048689    2.6911772    3.3971983  
