62

C   -4.7630506   -0.0017261   -1.3275389  
C   -5.7496382   -0.0041248   -2.2862394  
C   -6.9989995   -0.0038895   -1.5979835  
C   -6.7092697   -0.0009933   -0.2094684  
N   -5.3425445   -0.0016914   -0.0803276  
C   -7.7059384    0.0003208    0.7710617  
C   -9.0190065   -0.0010117    0.3420785  
O  -10.0316333    0.0005299    1.2572836  
C   -9.3281955   -0.0042756   -1.0389385  
O  -10.6818176   -0.0056693   -1.3054849  
C   -8.3454697   -0.0058468   -2.0068093  
H   -5.5886403   -0.0069392   -3.3506946  
H   -4.8418176    0.0104574    0.7897908  
H   -7.4916930    0.0023831    1.8309189  
H  -10.8555486   -0.0010899    0.7528775  
H  -10.8038881   -0.0078436   -2.2597896  
C   -3.3003548   -0.0013941   -1.4738977  
C   -2.5232815   -0.0010120   -2.6090739  
C   -1.1623206   -0.0001731   -2.1820097  
C   -1.1711886   -0.0003658   -0.7636136  
N   -2.4852304    0.0008394   -0.3662353  
C    0.0000000    0.0000000    0.0000000  
C    1.2020380    0.0002638   -0.6806477  
O    2.3759255    0.0002744    0.0157743  
C    1.2314650    0.0008347   -2.0955509  
O    2.5054380    0.0014616   -2.6250181  
C    0.0764505    0.0007474   -2.8495190  
H   -2.8919962   -0.0001972   -3.6205292  
H   -2.8036244   -0.0095543    0.5858671  
H    3.0835632    0.0007749   -0.6418820  
H    2.4360040    0.0017925   -3.5845923  
H    0.1304089    0.0013765   -3.9319086  
C   -8.0910703   -0.7161062   -4.4132209  
C   -8.7081089   -0.0094864   -3.4313725  
C   -9.7796136    0.7305637   -4.0551019  
C   -9.7359507    0.3947376   -5.4911047  
N   -8.6899946   -0.4861391   -5.6425068  
C  -10.5880803    0.8915545   -6.4231736  
C  -11.6167464    1.8190953   -5.9826635  
O  -12.4317515    2.3212810   -6.7454736  
C  -11.6813694    2.1890395   -4.4664933  
O  -12.5429316    2.9691616   -4.0838973  
C  -10.7081411    1.5886865   -3.5575079  
H  -10.5389459    0.6321864   -7.4716121  
H  -10.7597946    1.8498585   -2.5092495  
H   -7.2490616   -1.3853372   -4.3422212  
H   -8.4067563   -0.8999541   -6.5117484  
C    0.8175213    0.6860729    2.3021913  
C    0.0000000    0.0000000    1.4700000  
C   -0.8887526   -0.7456559    2.3478473  
C   -0.4549825   -0.3816753    3.7138435  
N    0.5448156    0.4573574    3.6934124  
C   -1.0945674   -0.9182058    4.8835240  
C   -2.1210866   -1.7789155    4.6970523  
O   -2.8083856   -2.3554314    5.6976972  
C   -2.5824069   -2.1655116    3.3310774  
O   -3.5227682   -2.9541547    3.2362962  
C   -1.9100805   -1.6015804    2.1470656  
H   -0.7567140   -0.6349833    5.8697035  
H   -3.4728268   -2.9124471    5.2533954  
H   -2.2742832   -1.9066565    1.1752040  
H    1.6189533    1.3585343    2.0405121  
