60

C    3.3003547    0.0005276   -1.4738988  
C    2.5232815    0.0003497   -2.6090749  
C    1.1623205   -0.0001319   -2.1820100  
C    1.1711887    0.0000583   -0.7636141  
N    2.4852303   -0.0014919   -0.3662362  
C    0.0000000    0.0000000    0.0000000  
C   -1.2020381    0.0000520   -0.6806479  
O   -2.3759252    0.0003494    0.0157741  
C   -1.2314650   -0.0005112   -2.0955510  
O   -2.5054392   -0.0008037   -2.6250182  
C   -0.0764513   -0.0007272   -2.8495195  
H    2.8919957   -0.0005619   -3.6205304  
H    2.8036269    0.0088181    0.5858662  
H   -3.0835638    0.0000348   -0.6418822  
H   -2.4360049   -0.0011526   -3.5845923  
H   -0.1304095   -0.0013420   -3.9319087  
C    6.4260936    0.0030632   -4.5098906  
C    7.5522589    0.0028891   -3.7593372  
C    7.0848224    0.0018026   -2.3816573  
C    5.6099765    0.0015410   -2.4884891  
N    5.2179711    0.0021962   -3.7336080  
C    4.7630506    0.0004756   -1.3275404  
C    5.3622560   -0.0006826   -0.1149867  
O    4.6953713   -0.0017513    1.0517626  
C    6.8483157   -0.0008252    0.0256758  
O    7.3251005   -0.0017843    1.1605310  
C    7.6953857    0.0003257   -1.1803076  
H    8.5739847    0.0033406   -4.0986765  
H    5.3903102   -0.0024424    1.7345598  
H    8.7674557    0.0000663   -1.0357556  
C    9.4491316    0.0058275   -7.7282229  
C    8.8187110    0.0049505   -6.5254581  
C    7.3999641    0.0049272   -6.7937752  
C    7.2544693    0.0058402   -8.2619784  
N    8.5333102    0.0067527   -8.7693805  
C    6.0658282    0.0056976   -8.9168348  
C    4.8485614    0.0047958   -8.1226078  
O    3.7295437    0.0046603   -8.6186924  
C    4.9789685    0.0040722   -6.5660736  
O    3.9611093    0.0036171   -5.8869397  
C    6.3151220    0.0040260   -5.9756954  
H    9.2933794    0.0045666   -5.5604177  
H    5.9811434    0.0062484   -9.9946741  
H   10.5057111    0.0060927   -7.9416004  
H    8.7655661    0.0059507   -9.7456500  
C    0.8681109    0.7263879    2.2709268  
C    0.6127770    0.5096195    3.5869401  
C   -0.4920590   -0.4175482    3.6542670  
C   -0.8620974   -0.7254003    2.2596025  
N    0.0000000    0.0000000    1.4700000  
C   -1.8641242   -1.5660088    1.8976294  
C   -2.6293522   -2.2103885    2.9520183  
O   -3.5512764   -2.9839180    2.7283916  
C   -2.2549728   -1.8987399    4.4361073  
O   -2.8923672   -2.4351063    5.3323774  
C   -1.1543735   -0.9755647    4.7012123  
H    1.1382914    0.9492124    4.4159191  
H   -2.1192137   -1.7782617    0.8686553  
H   -0.9013378   -0.7652422    5.7314848  
H    1.6172880    1.3558399    1.8188057  
