58

C    7.0644383    0.0010574    2.6684676  
C    5.8063320    0.0007740    3.1795862  
C    5.9361521    0.0007217    4.6176343  
C    7.3833959    0.0010293    4.9044695  
N    8.0121246    0.0008236    3.6807088  
C    7.9202005    0.0014754    6.1508825  
C    7.0119490    0.0014392    7.2856136  
O    7.3974622    0.0017577    8.4473714  
C    5.4753290    0.0008637    7.0052506  
O    4.7009198    0.0005215    7.9526424  
C    5.0169693    0.0006931    5.6182545  
H    4.8917329    0.0004368    2.6137933  
H    8.9847939    0.0018254    6.3394318  
H    3.9514730    0.0004994    5.4326702  
H    9.0062821    0.0025077    3.5439781  
C    4.7795901    0.0008674   -1.0815733  
C    5.8063533    0.0010476   -1.9702985  
C    7.0285665    0.0013958   -1.2015143  
C    6.6268086    0.0013745    0.2181270  
N    5.2509927    0.0014465    0.2224664  
C    7.4934504    0.0012528    1.2624628  
C    8.9169020    0.0013609    0.9686573  
O    9.7768349    0.0013265    1.8397569  
C    9.3650172    0.0016372   -0.5276709  
O   10.5607782    0.0020368   -0.7873195  
C    8.3375015    0.0014690   -1.5659688  
H    5.7176695    0.0011303   -3.0420956  
H    8.6560847    0.0014568   -2.5995201  
H    4.6776560   -0.0001048    1.0460742  
C    3.3321168    0.0004716   -1.3379341  
C    2.6974177    0.0000118   -2.5332316  
C    1.2800432   -0.0002116   -2.2052842  
C    1.2395033    0.0000644   -0.7271298  
N    2.4394059    0.0005460   -0.2131041  
C    0.0000000    0.0000000    0.0000000  
C   -1.1468704    0.0000635   -0.7169542  
O   -2.3742206    0.0000074   -0.1695488  
C   -1.1388774    0.0001608   -2.2096352  
O   -2.2206238    0.0000906   -2.7970409  
C    0.1454514    0.0001818   -2.9324241  
H    3.1367978   -0.0000649   -3.5160956  
H   -2.9844350    0.0001027   -0.9290164  
H    0.1083567    0.0003684   -4.0135594  
C    2.5128556    2.1077716    2.9199648  
C    1.9592212    1.6432552    4.0696553  
C    0.8915788    0.7479214    3.6910360  
C    0.8684491    0.7287414    2.2159470  
N    1.8754542    1.5738793    1.8102719  
C    0.0000000    0.0000000    1.4700000  
C   -0.9772830   -0.8200135    2.1664417  
O   -1.8021297   -1.5120829    1.5842315  
C   -0.9711318   -0.8147624    3.7284083  
O   -1.7894187   -1.5009653    4.3257297  
C    0.0140216    0.0115358    4.4216297  
H    2.2638494    1.8988021    5.0689105  
H    0.0117648    0.0094386    5.5031631  
H    3.3327358    2.7953732    2.7900019  
H    2.1123206    1.7707734    0.8551938  
