58

C   -3.2941079    0.0012875   -2.9038234  
C   -4.0168013    0.0014139   -1.7541324  
C   -5.4101729    0.0018622   -2.1327515  
C   -5.4402200    0.0019584   -3.6078406  
N   -4.1255655    0.0019957   -4.0135161  
C   -6.5739167    0.0019524   -4.3537873  
C   -7.8496529    0.0020704   -3.6573456  
O   -8.9263771    0.0021360   -4.2395554  
C   -7.8415656    0.0022236   -2.0953789  
O   -8.9094933    0.0026303   -1.4980570  
C   -6.5557599    0.0019361   -1.4021574  
H   -3.6191807    0.0013981   -0.7548775  
H   -6.5739171    0.0018936   -5.4349490  
H   -6.5588367    0.0018391   -0.3206244  
H   -3.8175543    0.0005037   -4.9685941  
C    0.0000000    0.0000000    0.0000000  
C    1.0541686   -0.0001722   -0.8560393  
C    0.5103131   -0.0000453   -2.1935957  
C   -0.9576377    0.0002459   -2.0455727  
N   -1.2018463   -0.0001391   -0.6915965  
C   -1.8348318    0.0008318   -3.0810604  
C   -1.2972856    0.0009738   -4.4314602  
O   -2.0050684    0.0014267   -5.4301314  
C    0.2542612    0.0004186   -4.6117571  
O    0.7184659    0.0002259   -5.7439120  
C    1.0974545    0.0000875   -3.4189131  
H    2.0940750   -0.0005483   -0.5817985  
H   -2.1128195    0.0014912   -0.2706785  
C    4.3047784   -2.1086508   -1.2859256  
C    5.3774554   -1.6442174   -1.9771133  
C    4.8701574   -0.7486150   -2.9897243  
C    3.4034907   -0.7291871   -2.8306583  
N    3.1250150   -1.5744524   -1.7814359  
C    2.5562205   -0.0001551   -3.6003010  
C    3.1269037    0.8199321   -4.6559110  
O    2.4474923    1.5122567   -5.4024954  
C    4.6776918    0.8144221   -4.8425437  
O    5.1696062    1.5006843   -5.7281650  
C    5.4870218   -0.0121806   -3.9505994  
H    6.4066152   -1.8999879   -1.7981581  
H    6.5600119   -0.0102614   -4.0862925  
H    4.2768473   -2.7963891   -0.4563921  
H    2.2064265   -1.7712347   -1.4285632  
C    0.0000000    0.0000000    1.4700000  
C    1.0541688    0.0001722    2.3260392  
C    0.5103138    0.0000454    3.6635956  
C   -0.9576371   -0.0002459    3.5155732  
N   -1.2018458    0.0001392    2.1615969  
C   -1.8348311   -0.0008317    4.5510609  
C   -1.2972847   -0.0009736    5.9014604  
O   -2.0050672   -0.0014265    6.9001319  
C    0.2542623   -0.0004184    6.0817573  
O    0.7184670   -0.0002256    7.2139121  
C    1.0974552   -0.0000873    4.8889129  
H    2.0940752    0.0005483    2.0517982  
H   -2.9081052   -0.0011668    4.4207061  
H    2.1707277    0.0000911    5.0223670  
H   -2.1128194   -0.0014912    1.7406791  
