58

C    2.7524404    2.2033912   -2.8642448  
C    1.6367583    1.9634904   -3.6002996  
C    1.5487627    3.0146995   -4.5862266  
C    2.7129961    3.8929713   -4.3626442  
N    3.4022679    3.3463528   -3.3048152  
C    2.9897128    5.0034584   -5.0919941  
C    2.0800613    5.3573923   -6.1689345  
O    2.2424672    6.3384787   -6.8826536  
C    0.8405006    4.4416715   -6.4233943  
O    0.0674713    4.7297661   -7.3271017  
C    0.6482964    3.2711505   -5.5708743  
H   -0.2123088    2.6421464   -5.7537308  
H    3.1544806    1.6414954   -2.0368836  
H    4.2482759    3.7190538   -2.9144158  
C    0.0000000    0.0000000    0.0000000  
C    0.6750715    0.8096610   -0.8560388  
C    0.3267671    0.3919749   -2.1935956  
C   -0.6133226   -0.7354611   -2.0455734  
N   -0.7693836   -0.9232996   -0.6915975  
C   -1.1754020   -1.4089115   -3.0810616  
C   -0.8313432   -0.9958981   -4.4314610  
O   -1.2848536   -1.5392986   -5.4301327  
C    0.1624721    0.1955836   -4.6117574  
O    0.4598309    0.5520445   -5.7439117  
C    0.7025866    0.8430788   -3.4189126  
H    1.3411676    1.6082351   -0.5817976  
H   -1.8628308   -2.2331437   -2.9507073  
H   -1.3538933   -1.6220303   -0.2706797  
C    7.1475373    4.0453620   -4.0537818  
C    7.6568821    5.3022134   -3.9832961  
C    6.5757382    6.2118861   -4.2807188  
C    5.3862423    5.3759842   -4.5320311  
N    5.7999074    4.0727550   -4.3791799  
C    4.1583784    5.8607636   -4.8467436  
C    3.9977012    7.3019869   -4.9446897  
O    2.9319280    7.8360300   -5.2225858  
C    5.2440263    8.2063630   -4.6828050  
O    5.1209835    9.4211624   -4.7627045  
C    6.5150820    7.5674335   -4.3510839  
H    8.6739394    5.5623749   -3.7497969  
H    7.3731535    8.2006873   -4.1710085  
H    7.6433331    3.1014050   -3.8955996  
H    5.2127514    3.2659069   -4.4854407  
C    1.0672568    0.0000697    2.3021913  
C    0.0000000    0.0000000    1.4700000  
C   -1.1601224    0.0000736    2.3478473  
C   -0.5938729    0.0000769    3.7138435  
N    0.7113367    0.0001554    3.6934124  
C   -1.4286986    0.0001879    4.8835240  
C   -2.7683114    0.0006799    4.6970523  
O   -3.6653903    0.0008304    5.6976972  
C   -3.3702025    0.0010610    3.3310774  
O   -4.5974910    0.0013779    3.2362962  
C   -2.4926826    0.0008943    2.1470656  
H   -0.9878360   -0.0000190    5.8697035  
H   -4.5324246    0.0012261    5.2533954  
H   -2.9677772    0.0012974    1.1752040  
H    2.1134392    0.0000545    2.0405121  
