58

C    6.0896262   -2.3568223   -2.7451334  
C    5.9196297   -1.0724476   -3.1520212  
C    7.2037405   -0.4218294   -3.0398093  
C    8.1425204   -1.4397478   -2.5305702  
N    7.4046940   -2.5901856   -2.3724710  
C    9.4593725   -1.2185331   -2.2883529  
C    9.9872692    0.1108900   -2.5462187  
O   11.1595135    0.4098226   -2.3597189  
C    9.0110077    1.2044427   -3.0855343  
O    9.4439476    2.3274718   -3.3060551  
C    7.6124473    0.8459680   -3.3077394  
H   10.1308956   -1.9791388   -1.9149291  
H    6.9430437    1.6088184   -3.6814801  
H    5.3647974   -3.1524425   -2.6859612  
H    7.7663225   -3.4651525   -2.0397463  
C    3.4106845   -0.7032175   -3.0670122  
C    2.4521483    0.0014840   -3.7217481  
C    3.1158557    0.7444933   -4.7668628  
C    4.5499134    0.4124942   -4.6666320  
N    4.6621247   -0.4692175   -3.6164499  
C    5.5136820    0.9128420   -5.4805768  
C    5.1117778    1.8404164   -6.5249019  
O    5.9049340    2.3456315   -7.3084581  
C    3.5983551    2.2063420   -6.6492182  
O    3.2480947    2.9864551   -7.5244334  
C    2.6531312    1.6023762   -5.7134675  
H    6.5600546    0.6562475   -5.3901707  
H    1.6070339    1.8607778   -5.8063813  
H    3.3081788   -1.3736416   -2.2292093  
C    0.0000000    0.0000000    0.0000000  
C    1.0662923   -0.0000101   -0.8334270  
C    0.4961873    0.0000065   -2.1718887  
C   -0.9663854   -0.0000848   -1.9540250  
N   -1.2632773   -0.0000083   -0.6828660  
C   -1.8985359   -0.0000514   -3.0477261  
C   -1.3925770    0.0004566   -4.3020547  
O   -2.1456378    0.0005414   -5.4151314  
C    0.0786240    0.0009326   -4.5545000  
O    0.4683767    0.0012591   -5.7221100  
C    1.0143171    0.0008444   -3.4159031  
H    2.1107200    0.0000633   -0.5721865  
H   -2.9622181   -0.0003268   -2.8593381  
H   -1.5042265    0.0009697   -6.1484419  
C    1.1319247   -0.0015655    2.2709268  
C    0.7969915   -0.0034943    3.5869401  
C   -0.6453339   -0.0035710    3.6542670  
C   -1.1266833   -0.0015433    2.2596025  
N    0.0000000    0.0000000    1.4700000  
C   -2.4346130   -0.0013964    1.8976294  
C   -3.4350110   -0.0031408    2.9520183  
O   -4.6384611   -0.0030974    2.7283916  
C   -2.9478959   -0.0050506    4.4361073  
O   -3.7809380   -0.0062218    5.3323774  
C   -1.5113823   -0.0053090    4.7012123  
H    1.4821238   -0.0045407    4.4159191  
H   -2.7664565   -0.0000232    0.8686553  
H   -1.1823530   -0.0068408    5.7314848  
H    2.1104316   -0.0009391    1.8188057  
