58

C    4.5142048    0.1908604   -8.1329929  
C    5.5727079   -0.4676536   -8.6715153  
C    5.6404499   -0.0888274  -10.0631827  
C    4.5266774    0.8511285  -10.2929309  
N    3.8825134    0.9779806   -9.0838595  
C    4.2491252    1.4378047  -11.4847698  
C    5.1043033    1.1222533  -12.6168632  
O    4.9366338    1.5991926  -13.7316347  
C    6.2895805    0.1291033  -12.3964641  
O    7.0161617   -0.1443829  -13.3422680  
C    6.4883791   -0.4389909  -11.0654495  
H    6.2308230   -1.1419782   -8.1530716  
H    3.4272423    2.1246496  -11.6319525  
H    7.3114230   -1.1256464  -10.9211375  
H    3.0786767    1.5551795   -8.9173194  
C    5.9578468   -2.0116381   -4.6613370  
C    5.0861938   -1.6298115   -3.6990437  
C    4.1732073   -0.7119466   -4.3627299  
C    4.6536422   -0.6536616   -5.7600020  
N    5.6994876   -1.4135384   -5.9410649  
C    4.0070647    0.1585852   -6.7536211  
C    2.9292834    0.8795220   -6.3689500  
O    2.2294970    1.6800094   -7.1908742  
C    2.4200480    0.8415395   -4.9663102  
O    1.4341931    1.5235888   -4.6868113  
C    3.1006054    0.0006263   -3.9654951  
H    5.0652946   -1.9335817   -2.6663957  
H    1.5255989    2.0552511   -6.6315223  
H    6.7914220   -2.6898661   -4.5711609  
C    3.2798083    0.0005857   -1.4499652  
C    2.5571142    0.0005565   -2.5996556  
C    1.1637432    0.0001548   -2.2210361  
C    1.1336964   -0.0000200   -0.7459473  
N    2.4483512   -0.0001428   -0.3402723  
C    0.0000000    0.0000000    0.0000000  
C   -1.2757368   -0.0000186   -0.6964415  
O   -2.3524598   -0.0000639   -0.1142311  
C   -1.2676497   -0.0000872   -2.2584083  
O   -2.3355766   -0.0004101   -2.8557295  
C    0.0181558    0.0001758   -2.9516296  
H    0.0150788    0.0003319   -4.0331631  
H    4.3498547    0.0008612   -1.3200026  
H    2.7563626    0.0012823    0.6148059  
C    2.5528530    2.1414826    2.8079335  
C    2.0663498    1.7338582    4.0032312  
C    0.9804344    0.8229586    3.6752840  
C    0.9495562    0.7966882    2.1971295  
N    1.8690446    1.5676019    1.6831036  
C    0.0000000    0.0000000    1.4700000  
C   -0.8785127   -0.7372425    2.1869543  
O   -1.8187535   -1.5261249    1.6395491  
C   -0.8723269   -0.7321790    3.6796354  
O   -1.7010379   -1.4274584    4.2670412  
C    0.1115397    0.0933559    4.4024240  
H    2.4028853    2.0163452    4.9860947  
H   -2.2861435   -1.9184361    2.3990168  
H    0.0832434    0.0693689    5.4835595  
H    3.3664920    2.8238276    2.6198634  
