58

C   -3.8930022   -2.0874716   -7.2627583  
C   -4.5062990   -1.6260047   -6.1424947  
C   -5.5532357   -0.7302921   -6.5743026  
C   -5.4992334   -0.7076112   -8.0485342  
N   -4.4713494   -1.5506532   -8.4029687  
C   -6.3284533    0.0218732   -8.8371732  
C   -7.3416043    0.8393960   -8.1908628  
O   -8.1356928    1.5319910   -8.8137907  
C   -7.4167947    0.8308083   -6.6307100  
O   -8.2654594    1.5153653   -6.0753628  
C   -6.4685347    0.0035663   -5.8888707  
H   -4.2539576   -1.8835293   -5.1292726  
H   -6.2720916    0.0242600   -9.9168622  
H   -3.0670478   -2.7743847   -7.3512998  
H   -4.1866234   -1.7473863   -9.3449215  
C   -3.2941076    0.0012874   -2.9038237  
C   -3.9928928    0.0012414   -1.7448249  
C   -5.3903273    0.0018076   -2.1493935  
C   -5.3503939    0.0022632   -3.6275641  
N   -4.1243043    0.0018803   -4.0755528  
C   -6.5485048    0.0028439   -4.4210475  
C   -7.7326801    0.0025752   -3.7675465  
O   -8.9284333    0.0030580   -4.3809106  
C   -7.8059028    0.0017434   -2.2766415  
O   -8.9180025    0.0016635   -1.7489540  
C   -6.5627961    0.0012026   -1.4850541  
H   -3.6076324    0.0007787   -0.7395140  
H   -9.5790601    0.0026680   -3.6557643  
H   -6.6586515    0.0004893   -0.4075375  
C    0.0000000    0.0000000    0.0000000  
C    1.0541688   -0.0001722   -0.8560393  
C    0.5103135   -0.0000454   -2.1935957  
C   -0.9576374    0.0002459   -2.0455730  
N   -1.2018460   -0.0001391   -0.6915968  
C   -1.8348314    0.0008317   -3.0810607  
C   -1.2972851    0.0009737   -4.4314604  
O   -2.0050676    0.0014265   -5.4301315  
C    0.2542619    0.0004184   -4.6117571  
O    0.7184666    0.0002257   -5.7439121  
C    1.0974550    0.0000874   -3.4189130  
H    2.0940752   -0.0005483   -0.5817984  
H    2.1707276   -0.0000911   -3.5523671  
H   -2.1128194    0.0014912   -0.2706789  
C    3.1301144    0.0010313    3.1728260  
C    2.5367765    0.0002768    1.9564670  
C    1.1089900   -0.0001027    2.2356185  
C    1.0177864    0.0004150    3.7115134  
N    2.1993570    0.0011613    4.2663826  
C   -0.2459220    0.0002880    4.3957118  
C   -1.3675327    0.0000606    3.6398520  
O   -2.6129319   -0.0000866    4.1448486  
C   -1.3083589   -0.0000910    2.1483229  
O   -2.3693264   -0.0004206    1.5241687  
C    0.0000000    0.0000000    1.4700000  
H    3.0096015    0.0001008    0.9892483  
H   -0.2829642    0.0004689    5.4753125  
H   -3.1967446   -0.0002093    3.3649027  
H    4.1849273    0.0015113    3.3971983  
