58

C    3.1663135    1.5683696   -2.8368662  
C    4.0340549    2.5265141   -3.2528699  
C    3.4067817    3.2111917   -4.3585734  
C    2.0930348    2.5688070   -4.5540255  
N    2.0088361    1.5807744   -3.6003002  
C    1.1943730    2.9299789   -5.5046392  
C    1.5445182    4.0242870   -6.3948208  
O    0.8029526    4.4238143   -7.2829427  
C    2.9307749    4.7188934   -6.2060910  
O    3.2367093    5.6411621   -6.9497877  
C    3.8144415    4.2410048   -5.1456158  
H    5.0030570    2.7302653   -2.8331860  
H    0.2360262    2.4457222   -5.6310407  
H    3.2751121    0.8541017   -2.0369444  
C    0.0000000    0.0000000    0.0000000  
C    0.8284978    0.6518160   -0.8560390  
C    0.4010449    0.3155685   -2.1935953  
C   -0.7526858   -0.5920571   -2.0455729  
N   -0.9443531   -0.7433910   -0.6915968  
C   -1.4423684   -1.1340978   -3.0810610  
C   -1.0200395   -0.8015403   -4.4314606  
O   -1.5765119   -1.2389125   -5.4301320  
C    0.1995470    0.1575780   -4.6117570  
O    0.5644488    0.4445143   -5.7439120  
C    0.8623528    0.6787908   -3.4189128  
H    1.6459137    1.2946506   -0.5817978  
H   -2.2859805   -1.7976010   -2.9507064  
H   -1.6612257   -1.3055013   -0.2706791  
C    5.1164876    4.9021234   -4.9768046  
C    6.0981911    4.6419252   -4.0753444  
C    7.1676203    5.5763646   -4.3360729  
C    6.7253021    6.4082717   -5.4714475  
N    5.4744297    5.9485228   -5.8132645  
C    7.4563440    7.4111389   -6.0205734  
C    8.7663131    7.6896178   -5.4558018  
O    9.5007024    8.5721719   -5.8801502  
C    9.2550428    6.8208985   -4.2531899  
O   10.3562975    7.0458863   -3.7695806  
C    8.3773116    5.7682339   -3.7478813  
H    6.0758152    3.8819886   -3.3146806  
H    7.1132975    8.0095046   -6.8531514  
H    8.7230393    5.1713652   -2.9148479  
H    4.9078772    6.3177362   -6.5547142  
C    3.3321173   -0.0004715    2.8079335  
C    2.6974184   -0.0000116    4.0032312  
C    1.2800439    0.0002118    3.6752840  
C    1.2395035   -0.0000644    2.1971295  
N    2.4394063   -0.0005460    1.6831036  
C    0.0000000    0.0000000    1.4700000  
C   -1.1468701   -0.0000635    2.1869543  
O   -2.3742202   -0.0000073    1.6395491  
C   -1.1388768   -0.0001607    3.6796354  
O   -2.2206231   -0.0000905    4.2670412  
C    0.1454524   -0.0001816    4.4024240  
H    3.1367986    0.0000651    4.9860947  
H   -2.9844344   -0.0001026    2.3990168  
H    0.1083576   -0.0003682    5.4835595  
H    4.3940039   -0.0007619    2.6198634  
