58

C    2.9576973   -5.5848982   -8.7428495  
C    2.5372633   -4.6050739   -7.9018648  
C    2.4550629   -3.3904793   -8.6782911  
C    2.8649823   -3.7455606  -10.0503967  
N    3.1570429   -5.0897404  -10.0226222  
C    2.9206177   -2.8712199  -11.0868034  
C    2.5523930   -1.4881007  -10.8339671  
O    2.5698754   -0.6248695  -11.7016221  
C    2.1153565   -1.0896931   -9.3882570  
O    1.8033859    0.0719127   -9.1632985  
C    2.0948544   -2.1211265   -8.3540534  
H    2.3107591   -4.7200058   -6.8568290  
H    3.2239290   -3.1522540  -12.0857683  
H    3.1388859   -6.6270074   -8.5353203  
H    3.4653637   -5.6285305  -10.8110960  
C    2.2088374   -2.1426207   -5.8191636  
C    1.6816910   -1.7351242   -6.9971456  
C    0.6077898   -0.8240080   -6.6323121  
C    0.6276205   -0.7974855   -5.1539725  
N    1.5640846   -1.5684500   -4.6716456  
C   -0.2963293   -0.0005341   -4.3948471  
C   -1.1988050    0.7367191   -5.0813820  
O   -2.1196089    1.5258328   -4.5021932  
C   -1.2438086    0.7314044   -6.5733964  
O   -2.0920754    1.4267084   -7.1321594  
C   -0.2854236   -0.0943979   -7.3293548  
H   -2.6127108    1.9180864   -5.2452546  
H   -0.3507728   -0.0705877   -8.4088885  
H    3.0283492   -2.8250551   -5.6589865  
C    3.1301146   -0.0010313   -1.7028256  
C    2.5367765   -0.0002766   -0.4864669  
C    1.1089901    0.0001027   -0.7656184  
C    1.0177865   -0.0004150   -2.2415133  
N    2.1993571   -0.0011612   -2.7963824  
C   -0.2459219   -0.0002879   -2.9257116  
C   -1.3675326   -0.0000606   -2.1698520  
O   -2.6129318    0.0000865   -2.6748483  
C   -1.3083588    0.0000910   -0.6783229  
O   -2.3693264    0.0004206   -0.0541685  
C    0.0000000    0.0000000    0.0000000  
H    3.0096016   -0.0001007    0.4807518  
H   -3.1967444    0.0002093   -1.8949026  
H    4.1849275   -0.0015114   -1.9271979  
C    2.5128556    2.1077716    2.9199648  
C    1.9592212    1.6432552    4.0696553  
C    0.8915788    0.7479214    3.6910360  
C    0.8684491    0.7287414    2.2159470  
N    1.8754542    1.5738793    1.8102719  
C    0.0000000    0.0000000    1.4700000  
C   -0.9772830   -0.8200135    2.1664417  
O   -1.8021297   -1.5120829    1.5842315  
C   -0.9711318   -0.8147624    3.7284083  
O   -1.7894187   -1.5009653    4.3257297  
C    0.0140216    0.0115358    4.4216297  
H    2.2638494    1.8988021    5.0689105  
H    0.0117648    0.0094386    5.5031631  
H    3.3327358    2.7953732    2.7900019  
H    2.1123206    1.7707734    0.8551938  
