58

C    8.1165425   -0.0037910   -1.0553574  
C    8.3876022   -0.0044749    0.2752820  
C    9.8249988   -0.0066797    0.4121067  
C   10.3730654   -0.0071989   -0.9577163  
N    9.2857834   -0.0057796   -1.8007507  
C   11.6969327   -0.0087371   -1.2561746  
C   12.6453026   -0.0101893   -0.1547537  
O   13.8581373   -0.0116882   -0.3200668  
C   12.0871627   -0.0099226    1.3041104  
O   12.8759993   -0.0114425    2.2395232  
C   10.6395349   -0.0079239    1.4996116  
H    7.6632794   -0.0037238    1.0702463  
H   12.0780263   -0.0089623   -2.2679441  
H   10.2611895   -0.0075465    2.5128137  
H    9.3341948   -0.0041721   -2.8030985  
C    5.5795936   -0.0015221   -1.1027758  
C    4.5679461   -0.0016854   -2.0086701  
C    5.1756898   -0.0023284   -3.3184345  
C    6.6347911   -0.0025571   -3.0997723  
N    6.8134018   -0.0016466   -1.7355923  
C    7.5609147   -0.0035409   -4.0917396  
C    7.0891356   -0.0042079   -5.4664974  
O    7.8442685   -0.0050452   -6.4298635  
C    5.5480919   -0.0037282   -5.7214290  
O    5.1390410   -0.0039758   -6.8746584  
C    4.6483393   -0.0029380   -4.5706481  
H    8.6266511   -0.0038216   -3.9097633  
H    3.5827541   -0.0028152   -4.7557202  
H    5.5275966   -0.0011044   -0.0261211  
C    3.1301149   -0.0010311   -1.7028252  
C    2.5367768   -0.0002767   -0.4864665  
C    1.1089904    0.0001028   -0.7656183  
C    1.0177872   -0.0004148   -2.2415132  
N    2.1993578   -0.0011611   -2.7963820  
C   -0.2459209   -0.0002877   -2.9257118  
C   -1.3675319   -0.0000605   -2.1698524  
O   -2.6129313    0.0000867   -2.6748490  
C   -1.3083584    0.0000910   -0.6783232  
O   -2.3693261    0.0004206   -0.0541692  
C    0.0000000    0.0000000    0.0000000  
H    3.0096017   -0.0001007    0.4807525  
H   -0.2829630   -0.0004687   -4.0053125  
H   -3.1967441    0.0002094   -1.8949034  
C    2.4951002    2.0940188    2.9809380  
C    1.9440701    1.6314916    1.8291961  
C    0.8759964    0.7350050    2.2038498  
C    0.8497377    0.7130254    3.6788474  
N    1.8560616    1.5571714    4.0882609  
C   -0.0205033   -0.0168748    4.4215661  
C   -0.9962600   -0.8356168    3.7214979  
O   -1.8224391   -1.5286685    4.3006425  
C   -0.9864710   -0.8277881    2.1595606  
O   -1.8030528   -1.5133726    1.5592035  
C    0.0000000    0.0000000    1.4700000  
H    2.2509283    1.8888011    0.8310761  
H   -0.0229599   -0.0187323    5.5027230  
H    3.3143982    2.7817323    3.1139444  
H    2.0889452    1.7545833    5.0442112  
