62

C    2.3021910   -2.1255957   -5.9826735  
C    1.8095069   -1.6629746   -4.7844614  
C    0.7354735   -0.7756724   -5.0906433  
C    0.6180411   -0.7363240   -6.5036497  
N    1.5855137   -1.5656970   -7.0142915  
C   -0.3411041    0.0395977   -7.1615058  
C   -1.1974963    0.7892224   -6.3786691  
O   -2.1530486    1.5644625   -6.9693778  
C   -1.0957951    0.7634636   -4.9673539  
O   -2.0200008    1.5643286   -4.3287607  
C   -0.1496415   -0.0015616   -4.3176959  
H    2.1795065   -1.9311009   -3.8096787  
H   -0.4356854    0.0740440   -8.2381068  
H   -2.6345080    1.9978446   -6.2526902  
H   -1.8829374    1.4894719   -3.3794383  
H    3.1090430   -2.8095407   -6.1830921  
C    3.3003542    0.0005274   -1.4738984  
C    2.5232813    0.0003496   -2.6090747  
C    1.1623199   -0.0001320   -2.1820097  
C    1.1711882    0.0000583   -0.7636143  
N    2.4852298   -0.0014919   -0.3662359  
C    0.0000000    0.0000000    0.0000000  
C   -1.2020385    0.0000519   -0.6806477  
O   -2.3759249    0.0003493    0.0157746  
C   -1.2314658   -0.0005115   -2.0955507  
O   -2.5054393   -0.0008039   -2.6250177  
C   -0.0764517   -0.0007275   -2.8495196  
H    2.8919953   -0.0005619   -3.6205303  
H    2.8036266    0.0088182    0.5858663  
H   -3.0835639    0.0000344   -0.6418818  
H   -2.4360048   -0.0011532   -3.5845921  
H    4.3715547    0.0004895   -1.3667136  
C    2.5585888   -5.2607958   -9.1782482  
C    2.6170032   -4.7714182  -10.4436226  
C    2.3345516   -3.3577875  -10.3617385  
C    2.1051789   -3.0615820   -8.9346992  
N    2.2551463   -4.2572359   -8.2707631  
C    1.8091014   -1.8320070   -8.4425731  
C    1.7094916   -0.7266262   -9.3810540  
O    1.4474332    0.4182729   -9.0363331  
C    1.9483033   -1.0174173  -10.8970397  
O    1.8667990   -0.0947497  -11.6966042  
C    2.2611422   -2.3842283  -11.3066887  
H    2.8330968   -5.3362873  -11.3329144  
H    2.4253003   -2.5771629  -12.3581412  
H    2.7114742   -6.2701870   -8.8323501  
H    2.1608887   -4.3812872   -7.2794135  
C    2.5128556    2.1077716    2.9199648  
C    1.9592212    1.6432552    4.0696553  
C    0.8915788    0.7479214    3.6910360  
C    0.8684491    0.7287414    2.2159470  
N    1.8754542    1.5738793    1.8102719  
C    0.0000000    0.0000000    1.4700000  
C   -0.9772830   -0.8200135    2.1664417  
O   -1.8021297   -1.5120829    1.5842315  
C   -0.9711318   -0.8147624    3.7284083  
O   -1.7894187   -1.5009653    4.3257297  
C    0.0140216    0.0115358    4.4216297  
H    2.2638494    1.8988021    5.0689105  
H    0.0117648    0.0094386    5.5031631  
H    3.3327358    2.7953732    2.7900019  
H    2.1123206    1.7707734    0.8551938  
