58

C    6.9437609   -1.8460483   -6.6468514  
C    8.0295022   -2.6597111   -6.7033639  
C    8.5381134   -2.5899021   -8.0529111  
C    7.6533583   -1.6621984   -8.7832292  
N    6.7073963   -1.2466930   -7.8747125  
C    7.8000349   -1.3286180  -10.0904831  
C    8.9027712   -1.9231240  -10.8274175  
O    9.1191194   -1.6860801  -12.0086465  
C    9.8520882   -2.9085383  -10.0740506  
O   10.7837617   -3.4154846  -10.6841757  
C    9.5926027   -3.1901609   -8.6643681  
H    8.4284498   -3.2424577   -5.8922783  
H    7.1399359   -0.6458919  -10.6072661  
H   10.2546549   -3.8733758   -8.1499472  
H    5.9615312   -0.6051415   -8.0725622  
C    6.1923727   -2.0934464   -4.2359234  
C    5.2191579   -1.6310079   -3.4094375  
C    4.3967568   -0.7348789   -4.1875409  
C    4.9747507   -0.7130129   -5.5448301  
N    6.0607564   -1.5568759   -5.5077365  
C    4.4832131    0.0165646   -6.5781804  
C    3.3064983    0.8350541   -6.3374474  
O    2.7884378    1.5278083   -7.2034761  
C    2.6779836    0.8273397   -4.9075121  
O    1.6873118    1.5127139   -4.6928207  
C    3.2973506   -0.0000934   -3.8752374  
H    5.0920135   -1.8881512   -2.3729405  
H    4.9222082    0.0183443   -7.5662029  
H    6.9947906   -2.7809152   -4.0228475  
C    3.3321174    0.0004714   -1.3379332  
C    2.6974186    0.0000115   -2.5332308  
C    1.2800441   -0.0002119   -2.2052838  
C    1.2395035    0.0000643   -0.7271293  
N    2.4394063    0.0005458   -0.2131034  
C    0.0000000    0.0000000    0.0000000  
C   -1.1468701    0.0000634   -0.7169542  
O   -2.3742201    0.0000072   -0.1695492  
C   -1.1388767    0.0001606   -2.2096354  
O   -2.2206229    0.0000903   -2.7970413  
C    0.1454526    0.0001815   -2.9324239  
H   -2.9844344    0.0001023   -0.9290168  
H    0.1083580    0.0003680   -4.0135594  
H    4.3940040    0.0007617   -1.1498630  
C    0.0000000    0.0000000    1.4700000  
C    1.0541688    0.0001722    2.3260392  
C    0.5103138    0.0000454    3.6635956  
C   -0.9576371   -0.0002459    3.5155732  
N   -1.2018458    0.0001392    2.1615969  
C   -1.8348311   -0.0008317    4.5510609  
C   -1.2972847   -0.0009736    5.9014604  
O   -2.0050672   -0.0014265    6.9001319  
C    0.2542623   -0.0004184    6.0817573  
O    0.7184670   -0.0002256    7.2139121  
C    1.0974552   -0.0000873    4.8889129  
H    2.0940752    0.0005483    2.0517982  
H   -2.9081052   -0.0011668    4.4207061  
H    2.1707277    0.0000911    5.0223670  
H   -2.1128194   -0.0014912    1.7406791  
