58

C    1.1319245    0.0015678   -0.8009267  
C    0.7969910    0.0034958   -2.1169399  
C   -0.6453341    0.0035697   -2.1842670  
C   -1.1266835    0.0015411   -0.7896024  
N    0.0000000    0.0000000    0.0000000  
C   -2.4346131    0.0013918   -0.4276289  
C   -3.4350111    0.0031343   -1.4820175  
O   -4.6384613    0.0030887   -1.2583912  
C   -2.9478961    0.0050449   -2.9661070  
O   -3.7809384    0.0062147   -3.8623772  
C   -1.5113831    0.0053060   -3.2312120  
H   -2.7664565    0.0000180    0.6013454  
H   -1.1823539    0.0068384   -4.2614847  
H    2.1104313    0.0009432   -0.3488057  
C    4.6689256   -2.0036412   -3.0356157  
C    3.5435025   -1.6233429   -2.3872520  
C    2.8771267   -0.7061849   -3.2989891  
C    3.7631655   -0.6465941   -4.4813459  
N    4.8150682   -1.4051578   -4.3327803  
C    3.4517402    0.1654320   -5.6253365  
C    2.3069985    0.8849094   -5.5899294  
O    1.8922493    1.6850223   -6.5868466  
C    1.3918761    0.8455848   -4.4113009  
O    0.3669542    1.5263381   -4.4477807  
C    1.7334690    0.0049280   -3.2500365  
H    3.2070445   -1.9276896   -1.4109095  
H    1.0501682    2.0591464   -6.2704866  
H    5.4354486   -2.6809480   -2.6940436  
C    4.3577341    0.1990345   -6.7824645  
C    5.5248436   -0.4661324   -6.9467465  
C    6.0003992   -0.0697033   -8.2632535  
C    4.9697722    0.8637392   -8.7663217  
N    4.0044231    1.0252478   -7.9026066  
C    5.0726129    1.4869007  -10.0571279  
C    6.1560012    1.1913030  -10.8109360  
O    6.3805603    1.7000298  -12.0343785  
C    7.2134184    0.2534095  -10.3309515  
O    8.1720559    0.0302565  -11.0701656  
C    7.0850525   -0.3730937   -9.0031947  
H    6.0039266   -1.1422284   -6.2593964  
H    4.3045141    2.1649188  -10.3995097  
H    7.2258030    1.3055451  -12.3156244  
H    7.8724348   -1.0465407   -8.6921835  
C    0.8681109    0.7263879    2.2709268  
C    0.6127770    0.5096195    3.5869401  
C   -0.4920590   -0.4175482    3.6542670  
C   -0.8620974   -0.7254003    2.2596025  
N    0.0000000    0.0000000    1.4700000  
C   -1.8641242   -1.5660088    1.8976294  
C   -2.6293522   -2.2103885    2.9520183  
O   -3.5512764   -2.9839180    2.7283916  
C   -2.2549728   -1.8987399    4.4361073  
O   -2.8923672   -2.4351063    5.3323774  
C   -1.1543735   -0.9755647    4.7012123  
H    1.1382914    0.9492124    4.4159191  
H   -2.1192137   -1.7782617    0.8686553  
H   -0.9013378   -0.7652422    5.7314848  
H    1.6172880    1.3558399    1.8188057  
