58

C    5.5391884   -1.1094536   -6.4930852  
C    6.5019132   -1.9816301   -6.0974283  
C    7.3202282   -2.2586553   -7.2543445  
C    6.7512679   -1.4707058   -8.3643940  
N    5.6738579   -0.7967528   -7.8372659  
C    7.2422084   -1.4588074   -9.6295194  
C    8.4086981   -2.2768085   -9.9171176  
O    8.9254041   -2.3338961  -11.0252933  
C    9.0275335   -3.1195623   -8.7566799  
O   10.0095540   -3.8123060   -8.9869075  
C    8.4097977   -3.0501219   -7.4347752  
H    6.6246803   -2.3850395   -5.1080845  
H    6.8099371   -0.8735714  -10.4292384  
H    8.8444525   -3.6365029   -6.6366810  
H    5.0784391   -0.1721995   -8.3495709  
C    4.2034617   -0.7255629   -4.3886928  
C    4.4527381   -0.5087794   -5.7058645  
C    3.4509045    0.4181870   -6.1769255  
C    2.5913899    0.7259044   -5.0179020  
N    3.1006054    0.0006263   -3.9654951  
C    1.5263758    1.5663104   -5.0520694  
C    1.2050786    2.2105986   -6.3146842  
O    0.2656531    2.9839469   -6.4477772  
C    2.1016895    1.8990894   -7.5551904  
O    1.8407280    2.4353806   -8.6236246  
C    3.2224932    0.9761306   -7.3945728  
H    0.9088868    1.7784673   -4.1903228  
H    3.8385531    0.7659037   -8.2582839  
H    4.7325143   -1.3548978   -3.6916057  
C    3.2798083    0.0005857   -1.4499652  
C    2.5571142    0.0005565   -2.5996556  
C    1.1637432    0.0001548   -2.2210361  
C    1.1336964   -0.0000200   -0.7459473  
N    2.4483512   -0.0001428   -0.3402723  
C    0.0000000    0.0000000    0.0000000  
C   -1.2757368   -0.0000186   -0.6964415  
O   -2.3524598   -0.0000639   -0.1142311  
C   -1.2676497   -0.0000872   -2.2584083  
O   -2.3355766   -0.0004101   -2.8557295  
C    0.0181558    0.0001758   -2.9516296  
H    0.0150788    0.0003319   -4.0331631  
H    4.3498547    0.0008612   -1.3200026  
H    2.7563626    0.0012823    0.6148059  
C    2.5128556    2.1077716    2.9199648  
C    1.9592212    1.6432552    4.0696553  
C    0.8915788    0.7479214    3.6910360  
C    0.8684491    0.7287414    2.2159470  
N    1.8754542    1.5738793    1.8102719  
C    0.0000000    0.0000000    1.4700000  
C   -0.9772830   -0.8200135    2.1664417  
O   -1.8021297   -1.5120829    1.5842315  
C   -0.9711318   -0.8147624    3.7284083  
O   -1.7894187   -1.5009653    4.3257297  
C    0.0140216    0.0115358    4.4216297  
H    2.2638494    1.8988021    5.0689105  
H    0.0117648    0.0094386    5.5031631  
H    3.3327358    2.7953732    2.7900019  
H    2.1123206    1.7707734    0.8551938  
