62

C    3.3003547    0.0005275   -1.4738980  
C    2.5232816    0.0003495   -2.6090742  
C    1.1623206   -0.0001320   -2.1820096  
C    1.1711889    0.0000583   -0.7636136  
N    2.4852300   -0.0014920   -0.3662353  
C    0.0000000    0.0000000    0.0000000  
C   -1.2020382    0.0000519   -0.6806479  
O   -2.3759247    0.0003494    0.0157745  
C   -1.2314650   -0.0005113   -2.0955508  
O   -2.5054383   -0.0008037   -2.6250181  
C   -0.0764510   -0.0007273   -2.8495192  
H    2.8919962   -0.0005621   -3.6205295  
H    2.8036265    0.0088181    0.5858667  
H   -3.0835641    0.0000347   -0.6418820  
H   -2.4360047   -0.0011529   -3.5845921  
C    5.6726965   -0.0003332   -2.3740972  
C    6.9488235   -0.0025409   -1.9098027  
C    6.8722132   -0.0036206   -0.4679410  
C    5.4365533   -0.0018775   -0.1278399  
N    4.7630506    0.0004754   -1.3275394  
C    4.9461563   -0.0026251    1.1375512  
C    5.8957025   -0.0051008    2.2379557  
O    5.5533679   -0.0058843    3.4131609  
C    7.4209164   -0.0067251    1.9010216  
O    8.2297925   -0.0085060    2.8191589  
C    7.8277287   -0.0059964    0.4980406  
H    7.8418986   -0.0031413   -2.5089949  
H    3.8892553   -0.0014456    1.3652984  
H    8.8856414   -0.0073364    0.2732230  
H    5.3202462    0.0009881   -3.3927562  
C    2.2882822   -2.1097770   -5.8897962  
C    1.6780097   -1.6459966   -7.0107556  
C    0.6303825   -0.7506088   -6.5799497  
C    0.6807213   -0.7305953   -5.1055495  
N    1.7068267   -1.5753511   -4.7500425  
C   -0.1496409   -0.0015614   -4.3176961  
C   -1.1605334    0.8179096   -4.9650744  
O   -1.9554930    1.5101851   -4.3429047  
C   -1.2321577    0.8117731   -6.5254067  
O   -2.0792923    1.4975138   -7.0816293  
C   -0.2825933   -0.0147700   -7.2663562  
H    1.9325538   -1.9020645   -8.0237955  
H   -0.3386962   -0.0132868   -8.3464369  
H    3.1137391   -2.7971813   -5.8004310  
H    1.9909868   -1.7716677   -3.8078326  
C    0.8676693    0.7151171    2.2619005  
C    0.5875920    0.4624972    3.5848544  
C   -0.5048400   -0.4542819    3.6114698  
C   -0.8517165   -0.7276451    2.2635546  
N    0.0000000    0.0000000    1.4700000  
C   -1.8902865   -1.5946756    1.9108239  
C   -2.5912627   -2.1969500    2.9375057  
O   -3.6148162   -3.0527051    2.6493466  
C   -2.2603868   -1.9365747    4.2886322  
O   -3.0513550   -2.6123276    5.1947621  
C   -1.2361111   -1.0811317    4.6373480  
H    1.1060808    0.8876438    4.4271209  
H   -2.1597133   -1.8070987    0.8854031  
H   -3.9636755   -3.3565188    3.4974381  
H   -2.7621927   -2.3810384    6.0827341  
H   -1.0058879   -0.9010589    5.6809233  
H    1.6167816    1.3499334    1.8205408  
