58

C    2.1349317   -0.0016726   -8.0806843  
C    3.1461798   -0.0010972   -7.1743448  
C    4.3814993   -0.0019491   -7.9218882  
C    4.0043396   -0.0030468   -9.3482613  
N    2.6288040   -0.0032199   -9.3763803  
C    4.8889025   -0.0036657  -10.3774613  
C    6.3070634   -0.0034472  -10.0590950  
O    7.1819250   -0.0040207  -10.9152007  
C    6.7292484   -0.0025423   -8.5552461  
O    7.9203417   -0.0026576   -8.2749666  
C    5.6839387   -0.0016495   -7.5348634  
H    3.0389836   -0.0003630   -6.1042414  
H    4.5912932   -0.0043388  -11.4168536  
H    5.9846092   -0.0008208   -6.4959602  
H    2.0697889   -0.0023419  -10.2097761  
C   -0.2963294   -0.0005341   -4.3948471  
C    0.7278651   -0.0010065   -5.2865309  
C    0.1384644   -0.0010228   -6.6046519  
C   -1.3235472   -0.0004882   -6.4063792  
N   -1.5211839   -0.0006101   -5.0448251  
C   -2.2357329    0.0000548   -7.4111788  
C   -1.7448089   -0.0001094   -8.7792165  
O   -2.4864201    0.0002816   -9.7530304  
C   -0.2003569   -0.0009258   -9.0126110  
O    0.2247525   -0.0013772  -10.1600176  
C    0.6832435   -0.0011826   -7.8493819  
H    1.7765638   -0.0014916   -5.0481103  
H   -3.3039063    0.0005715   -7.2440972  
H   -2.4171880    0.0012263   -4.5929174  
C    3.1301143   -0.0010313   -1.7028257  
C    2.5367765   -0.0002767   -0.4864669  
C    1.1089900    0.0001027   -0.7656184  
C    1.0177864   -0.0004150   -2.2415133  
N    2.1993571   -0.0011613   -2.7963824  
C   -0.2459220   -0.0002879   -2.9257116  
C   -1.3675327   -0.0000606   -2.1698519  
O   -2.6129319    0.0000866   -2.6748482  
C   -1.3083588    0.0000910   -0.6783229  
O   -2.3693264    0.0004206   -0.0541685  
C    0.0000000    0.0000000    0.0000000  
H    3.0096014   -0.0001008    0.4807517  
H   -3.1967445    0.0002093   -1.8949025  
H    4.1849272   -0.0015113   -1.9271980  
C    0.0000000    0.0000000    1.4700000  
C    1.0541688    0.0001722    2.3260392  
C    0.5103138    0.0000454    3.6635956  
C   -0.9576371   -0.0002459    3.5155732  
N   -1.2018458    0.0001392    2.1615969  
C   -1.8348311   -0.0008317    4.5510609  
C   -1.2972847   -0.0009736    5.9014604  
O   -2.0050672   -0.0014265    6.9001319  
C    0.2542623   -0.0004184    6.0817573  
O    0.7184670   -0.0002256    7.2139121  
C    1.0974552   -0.0000873    4.8889129  
H    2.0940752    0.0005483    2.0517982  
H   -2.9081052   -0.0011668    4.4207061  
H    2.1707277    0.0000911    5.0223670  
H   -2.1128194   -0.0014912    1.7406791  
