58

C    9.8332811    0.7195179   -0.1940208  
C   11.1713606    0.5013850   -0.1163263  
C   11.3845024   -0.4247963    0.9706852  
C   10.0513519   -0.7305828    1.5238534  
N    9.1545643   -0.0050494    0.7740109  
C    9.8254086   -1.5697786    2.5661605  
C   10.9717765   -2.2147092    3.1845779  
O   10.8723259   -2.9870733    4.1289639  
C   12.3929761   -1.9052401    2.6151714  
O   13.3656988   -2.4420871    3.1278746  
C   12.5098553   -0.9834542    1.4880059  
H   11.9232820    0.9394545   -0.7482469  
H    8.8394432   -1.7805250    2.9565055  
H   13.4973787   -0.7746379    1.0995253  
H    9.2859201    1.3487989   -0.8768766  
C    5.7656458   -0.0007232   -2.0564741  
C    7.0030819   -0.0022262   -1.4971669  
C    6.8178431   -0.0019779   -0.0652025  
C    5.3606050   -0.0002234    0.1655475  
N    4.7795901    0.0008674   -1.0815733  
C    4.7760825    0.0001045    1.3903077  
C    5.6398496   -0.0011429    2.5592563  
O    5.2097739   -0.0009035    3.7052651  
C    7.1861469   -0.0027566    2.3384237  
O    7.9234038   -0.0035090    3.3150054  
C    7.6977102   -0.0032495    0.9701567  
H    7.9388414   -0.0031952   -2.0272300  
H    3.7050043    0.0012712    1.5376179  
H    5.4911002   -0.0004270   -3.0988343  
C    3.3321168    0.0004716   -1.3379341  
C    2.6974177    0.0000118   -2.5332316  
C    1.2800432   -0.0002116   -2.2052842  
C    1.2395033    0.0000644   -0.7271298  
N    2.4394059    0.0005460   -0.2131041  
C    0.0000000    0.0000000    0.0000000  
C   -1.1468704    0.0000635   -0.7169542  
O   -2.3742206    0.0000074   -0.1695488  
C   -1.1388774    0.0001608   -2.2096352  
O   -2.2206238    0.0000906   -2.7970409  
C    0.1454514    0.0001818   -2.9324241  
H    3.1367978   -0.0000649   -3.5160956  
H   -2.9844350    0.0001027   -0.9290164  
H    0.1083567    0.0003684   -4.0135594  
C    2.3971438    2.0127888    3.1728260  
C    1.9431056    1.6308205    1.9564670  
C    0.8496017    0.7127664    2.2356185  
C    0.7794028    0.6545384    3.7115134  
N    1.6840587    1.4146091    4.2663826  
C   -0.1885723   -0.1578550    4.3957118  
C   -1.0476298   -0.8789867    3.6398520  
O   -2.0015663   -1.6796266    4.1448486  
C   -1.0022026   -0.8410666    2.1483229  
O   -1.8147390   -1.5232959    1.5241687  
C    0.0000000    0.0000000    1.4700000  
H    2.3054237    1.9346118    0.9892483  
H   -0.2170646   -0.1815267    5.4753125  
H   -2.4487139   -2.0549881    3.3649027  
H    3.2048689    2.6911772    3.3971983  
