62

C    3.3041272    0.0001176   -1.5420427  
C    2.5845371   -0.0004783   -0.3695852  
C    1.2040006   -0.0000009   -0.7283586  
C    1.1422374    0.0006035   -2.1454371  
N    2.4348638    0.0026108   -2.6077464  
C   -0.0655183    0.0008794   -2.8497913  
C   -1.2321770    0.0002322   -2.1101398  
O   -2.4392812    0.0001143   -2.7472517  
C   -1.1911210   -0.0000008   -0.6955262  
O   -2.4371530   -0.0002321   -0.1032856  
C    0.0000000    0.0000000    0.0000000  
H    3.0031533   -0.0000661    0.6222589  
H   -0.1193551    0.0014842   -3.9297465  
H   -3.1132988   -0.0000649   -2.0551781  
H   -2.3200286   -0.0004070    0.8516415  
H    4.3686622    0.0004069   -1.7024291  
C    3.8594204   -0.7175077   -4.5601988  
C    2.8310659   -0.0116220   -4.0232747  
C    2.2094024    0.7153300   -5.1048987  
C    2.9652785    0.3726183   -6.3247312  
N    3.9521592   -0.4993327   -5.9264123  
C    2.6888637    0.8568055   -7.5620111  
C    1.5725228    1.7770483   -7.7015487  
O    1.2438400    2.2678073   -8.7736603  
C    0.7583121    2.1540909   -6.4229925  
O   -0.1835068    2.9281700   -6.5280646  
C    1.1517637    1.5673729   -5.1443959  
H    3.2557692    0.5925696   -8.4438887  
H    0.5827554    1.8333881   -4.2639475  
H    4.5574573   -1.3785741   -4.0727306  
C    5.6534611   -4.5782351   -6.0907536  
C    6.4940792   -4.3750585   -7.1605888  
C    6.3265472   -3.0190161   -7.5700792  
C    5.3629493   -2.4392248   -6.7056448  
N    4.9735254   -3.4137364   -5.8206061  
C    4.9501295   -1.1081275   -6.8176614  
C    5.5206685   -0.3484019   -7.8203970  
O    5.1539676    0.9573053   -7.9742534  
C    6.4834779   -0.9090359   -8.6930402  
O    6.9576190   -0.0244616   -9.6396461  
C    6.8910091   -2.2221999   -8.5832879  
H    7.1468276   -5.1137034   -7.5933893  
H    4.3059470   -3.2924540   -5.0805987  
H    5.6640397    1.2980398   -8.7205723  
H    7.6025491   -0.4821297  -10.1875602  
H    7.6302520   -2.6238823   -9.2664048  
H    5.4840509   -5.4620792   -5.4999245  
C    2.5128556    2.1077716    2.9199648  
C    1.9592212    1.6432552    4.0696553  
C    0.8915788    0.7479214    3.6910360  
C    0.8684491    0.7287414    2.2159470  
N    1.8754542    1.5738793    1.8102719  
C    0.0000000    0.0000000    1.4700000  
C   -0.9772830   -0.8200135    2.1664417  
O   -1.8021297   -1.5120829    1.5842315  
C   -0.9711318   -0.8147624    3.7284083  
O   -1.7894187   -1.5009653    4.3257297  
C    0.0140216    0.0115358    4.4216297  
H    2.2638494    1.8988021    5.0689105  
H    0.0117648    0.0094386    5.5031631  
H    3.3327358    2.7953732    2.7900019  
H    2.1123206    1.7707734    0.8551938  
