58

C    0.8712808   -0.0015102   -4.7267111  
C   -0.4246871    0.0004327   -5.1323436  
C   -0.4138925    0.0003596   -6.5761993  
C    1.0047685   -0.0018297   -6.9813993  
N    1.7322677   -0.0024831   -5.8136521  
C    1.4369625   -0.0029386   -8.2678329  
C    0.4382336   -0.0016808   -9.3238042  
O    0.7266332   -0.0024671  -10.5133941  
C   -1.0700318    0.0008935   -8.9176842  
O   -1.9199258    0.0022766   -9.7979904  
C   -1.4124567    0.0016201   -7.4976148  
H   -1.2895140    0.0019473   -4.4930590  
H    2.4823809   -0.0046735   -8.5435277  
H    2.7343114   -0.0054703   -5.7593662  
C   -1.0965506    0.0015489   -0.8010303  
C    0.0000000    0.0000000    0.0000000  
C    1.1546546   -0.0019212   -0.8669512  
C    0.6371999   -0.0013312   -2.2486283  
N   -0.7342875    0.0003943   -2.1395009  
C    1.4147717   -0.0023094   -3.3608719  
C    2.8576012   -0.0042862   -3.1854461  
O    3.6427741   -0.0053483   -4.1244907  
C    3.4275797   -0.0051941   -1.7311666  
O    4.6406773   -0.0071639   -1.5710058  
C    2.4891836   -0.0037156   -0.6116747  
H    2.8919091   -0.0041516    0.3920861  
H   -2.1388250    0.0032200   -0.5261650  
H   -1.3735848    0.0027201   -2.9130261  
C   -3.6010522    2.1131678   -4.3298468  
C   -4.8538957    1.6504386   -4.5754879  
C   -4.7581394    0.7547596   -5.7039497  
C   -3.3366144    0.7334293   -6.0984146  
N   -2.6888081    1.5777786   -5.2264563  
C   -2.8349195    0.0037674   -7.1268116  
C   -3.7565554   -0.8150385   -7.8966684  
O   -3.4022501   -1.5077978   -8.8415780  
C   -5.2664514   -0.8075070   -7.4967157  
O   -6.0518705   -1.4926780   -8.1377448  
C   -5.6875451    0.0196120   -6.3687059  
H   -5.7436214    1.9073858   -4.0286975  
H   -6.7346758    0.0190951   -6.0980754  
H   -3.2674742    2.8004199   -3.5693866  
H   -1.7045789    1.7732315   -5.2382011  
C    0.8175213    0.6860729    2.3021913  
C    0.0000000    0.0000000    1.4700000  
C   -0.8887526   -0.7456559    2.3478473  
C   -0.4549825   -0.3816753    3.7138435  
N    0.5448156    0.4573574    3.6934124  
C   -1.0945674   -0.9182058    4.8835240  
C   -2.1210866   -1.7789155    4.6970523  
O   -2.8083856   -2.3554314    5.6976972  
C   -2.5824069   -2.1655116    3.3310774  
O   -3.5227682   -2.9541547    3.2362962  
C   -1.9100805   -1.6015804    2.1470656  
H   -0.7567140   -0.6349833    5.8697035  
H   -3.4728268   -2.9124471    5.2533954  
H   -2.2742832   -1.9066565    1.1752040  
H    1.6189533    1.3585343    2.0405121  
