62

C    3.3041273    0.0001176   -1.5420427  
C    2.5845372   -0.0004779   -0.3695849  
C    1.2040006   -0.0000007   -0.7283585  
C    1.1422374    0.0006037   -2.1454371  
N    2.4348641    0.0026108   -2.6077464  
C   -0.0655184    0.0008796   -2.8497917  
C   -1.2321767    0.0002321   -2.1101399  
O   -2.4392811    0.0001142   -2.7472521  
C   -1.1911212   -0.0000007   -0.6955257  
O   -2.4371525   -0.0002322   -0.1032865  
C    0.0000000    0.0000000    0.0000000  
H    3.0031534   -0.0000661    0.6222587  
H   -0.1193542    0.0014840   -3.9297469  
H   -3.1132987   -0.0000651   -2.0551789  
H   -2.3200283   -0.0004071    0.8516414  
H    4.3686625    0.0004071   -1.7024291  
C    5.6718698   -2.1292828   -4.7374656  
C    5.4024582   -1.6450690   -5.9966009  
C    4.2795483   -0.7737663   -5.8761622  
C    3.9039369   -0.7655395   -4.5083999  
N    4.7686528   -1.6005165   -3.8453030  
C    2.8310666   -0.0116221   -4.0232749  
C    2.1246916    0.7480616   -4.9354657  
O    1.0681527    1.5033226   -4.5155603  
C    2.4839121    0.7526865   -6.3043179  
O    1.6833250    1.5594237   -7.0863533  
C    3.5420403    0.0089614   -6.7836551  
H    4.7540933   -1.7863153   -2.8587695  
H    0.7213551    1.9477939   -5.3000611  
H    1.9931415    1.5056035   -7.9955952  
H    3.7934487    0.0324028   -7.8375638  
H    6.4359577   -2.8111063   -4.4054340  
C    6.6384935   -3.1854018   -7.5899342  
C    6.1466407   -1.9803299   -7.2191774  
C    6.5142203   -1.0769522   -8.2986647  
C    7.2432165   -1.9271560   -9.2642229  
N    7.3191703   -3.1641335   -8.8542145  
C    7.7800283   -1.3997928  -10.4884809  
C    7.5965639   -0.0830184  -10.7370380  
O    8.0436487    0.5421087  -11.8394769  
C    6.8648898    0.8010059   -9.7824107  
O    6.7354263    1.9900532  -10.0733178  
C    6.3236960    0.2363084   -8.5333509  
H    8.3086275   -2.0440505  -11.1758123  
H    7.7610117    1.4681510  -11.7312430  
H    5.7999113    0.9098242   -7.8683273  
H    6.5752574   -4.1209314   -7.0572436  
C    0.8400945    0.7047457    2.2710304  
C    0.0000000    0.0000000    1.4700000  
C   -0.8844236   -0.7423113    2.3369512  
C   -0.4878984   -0.4098547    3.7186280  
N    0.5629682    0.4714286    3.6095011  
C   -1.0836927   -0.9095027    4.8308716  
C   -2.1891196   -1.8367527    4.6554461  
O   -2.7906899   -2.3413415    5.5944904  
C   -2.6257283   -2.2031529    3.2011665  
O   -3.5549479   -2.9829990    3.0410059  
C   -1.9068976   -1.5999348    2.0816745  
H   -0.7774656   -0.6525820    5.8354244  
H   -2.2155208   -1.8586617    1.0779135  
H    1.6384792    1.3747609    1.9961646  
H    1.0518368    0.8833920    4.3830260  
