60

C    3.3003543    0.0005276   -1.4738987  
C    2.5232814    0.0003497   -2.6090747  
C    1.1623201   -0.0001318   -2.1820100  
C    1.1711882    0.0000584   -0.7636144  
N    2.4852299   -0.0014918   -0.3662356  
C    0.0000000    0.0000000    0.0000000  
C   -1.2020383    0.0000521   -0.6806484  
O   -2.3759250    0.0003495    0.0157746  
C   -1.2314658   -0.0005110   -2.0955509  
O   -2.5054390   -0.0008035   -2.6250179  
C   -0.0764516   -0.0007271   -2.8495195  
H    2.8919951   -0.0005616   -3.6205302  
H    2.8036261    0.0088182    0.5858657  
H   -3.0835640    0.0000348   -0.6418822  
H   -2.4360046   -0.0011525   -3.5845922  
H    4.3715547    0.0004895   -1.3667137  
C    0.6778498   -0.7280274   -5.1604559  
C    0.3572099   -0.5121162   -6.4622422  
C   -0.7500349    0.4145349   -6.4749820  
C   -1.0503172    0.7230181   -5.0637914  
N   -0.1496415   -0.0015610   -4.3176962  
C   -2.0334658    1.5633981   -4.6528354  
C   -2.8505387    2.2068484   -5.6681675  
O   -3.7605409    2.9801052   -5.3993377  
C   -2.5503714    1.8945198   -7.1688856  
O   -3.2318468    2.4301019   -8.0326014  
C   -1.4639111    0.9716706   -7.4879570  
H   -2.2371053    1.7761244   -3.6125527  
H   -1.2623885    0.7608732   -8.5294351  
H    1.4488982   -1.3568984   -4.7458534  
C    1.4483175   -2.3972484   -7.7333697  
C    1.0184830   -1.1133085   -7.6293690  
C    1.3355590   -0.4607778   -8.8777691  
C    1.9900200   -1.4771003   -9.7236774  
N    2.0280370   -2.6285336   -8.9715832  
C    2.4409720   -1.2538653  -10.9840397  
C    2.2705625    0.0762038  -11.5447652  
O    2.6431853    0.3769209  -12.6712746  
C    1.5803305    1.1680918  -10.6666061  
O    1.4316305    2.2916461  -11.1278815  
C    1.1360670    0.8074873   -9.3225651  
H    2.9181782   -2.0133249  -11.5876995  
H    0.6588880    1.5691944   -8.7210451  
H    1.3905478   -3.1938917   -7.0095522  
H    2.4152524   -3.5028223   -9.2761012  
C    2.5128556    2.1077716    2.9199648  
C    1.9592212    1.6432552    4.0696553  
C    0.8915788    0.7479214    3.6910360  
C    0.8684491    0.7287414    2.2159470  
N    1.8754542    1.5738793    1.8102719  
C    0.0000000    0.0000000    1.4700000  
C   -0.9772830   -0.8200135    2.1664417  
O   -1.8021297   -1.5120829    1.5842315  
C   -0.9711318   -0.8147624    3.7284083  
O   -1.7894187   -1.5009653    4.3257297  
C    0.0140216    0.0115358    4.4216297  
H    2.2638494    1.8988021    5.0689105  
H    0.0117648    0.0094386    5.5031631  
H    3.3327358    2.7953732    2.7900019  
H    2.1123206    1.7707734    0.8551938  
