58

C    2.4521484    0.0014842   -3.7217481  
C    3.5087820    0.0024555   -2.8687537  
C    4.7039150    0.0027665   -3.6789965  
C    4.2537131    0.0019197   -5.0840259  
N    2.8785577    0.0007668   -5.0411852  
C    5.0840338    0.0023144   -6.1574656  
C    6.5167227    0.0034371   -5.9126443  
O    7.3462793    0.0038069   -6.8127195  
C    7.0158847    0.0040952   -4.4325625  
O    8.2198450    0.0047346   -4.2140697  
C    6.0245765    0.0038618   -3.3596409  
H    3.4569035    0.0027207   -1.7945466  
H    4.7332282    0.0018078   -7.1801314  
H    6.3784128    0.0045265   -2.3376217  
H    2.2773151    0.0015478   -5.8446488  
C    0.0000000    0.0000000    0.0000000  
C    1.0662922   -0.0000101   -0.8334266  
C    0.4961875    0.0000066   -2.1718886  
C   -0.9663853   -0.0000848   -1.9540248  
N   -1.2632772   -0.0000083   -0.6828658  
C   -1.8985359   -0.0000514   -3.0477260  
C   -1.3925768    0.0004568   -4.3020543  
O   -2.1456378    0.0005413   -5.4151314  
C    0.0786238    0.0009327   -4.5544999  
O    0.4683768    0.0012594   -5.7221098  
C    1.0143171    0.0008446   -3.4159030  
H    2.1107199    0.0000634   -0.5721863  
H   -1.5042266    0.0009697   -6.1484425  
C   -3.3460091   -0.0004261   -2.7913651  
C   -3.9807081   -0.0008719   -1.5960675  
C   -5.3980826   -0.0010995   -1.9240148  
C   -5.4386229   -0.0006185   -3.4021689  
N   -4.2387203   -0.0003032   -3.9161950  
C   -6.6781262   -0.0007176   -4.1292991  
C   -7.8249963   -0.0016610   -3.4123447  
O   -9.0523461   -0.0018573   -3.9597502  
C   -7.8170030   -0.0025373   -1.9196640  
O   -8.8987493   -0.0032505   -1.3322585  
C   -6.5326742   -0.0023727   -1.1968753  
H   -3.5413281   -0.0011173   -0.6132038  
H   -6.6781263   -0.0001513   -5.2095344  
H   -9.6625602   -0.0026190   -3.2002828  
H   -6.5697686   -0.0031424   -0.1157402  
C    3.2573670    0.0002920    2.9809380  
C    2.5379467    0.0001709    1.8291961  
C    1.1435042   -0.0000331    2.2038498  
C    1.1092607    0.0000083    3.6788474  
N    2.4227561   -0.0001909    4.0882609  
C   -0.0265533    0.0002524    4.4215661  
C   -1.3003036    0.0002640    3.7214979  
O   -2.3786784    0.0004133    4.3006425  
C   -1.2877726   -0.0000311    2.1595606  
O   -2.3539958   -0.0003306    1.5592035  
C    0.0000000    0.0000000    1.4700000  
H    2.9384090    0.0000368    0.8310761  
H   -0.0296291    0.0004086    5.5027230  
H    4.3270393    0.0004765    3.1139444  
H    2.7280493    0.0013407    5.0442112  
