58

C   -7.6843695   -0.1873501   -2.5996747  
C   -8.4747625    0.4713964   -1.7134432  
C   -9.8378368    0.0930912   -2.0028390  
C   -9.7763255   -0.8468122   -3.1384394  
N   -8.4430115   -0.9741346   -3.4530050  
C  -10.8582044   -1.4330521   -3.7107723  
C  -12.1708263   -1.1170530   -3.1725263  
O  -13.2061651   -1.5935815   -3.6189496  
C  -12.2595917   -0.1239499   -1.9701655  
O  -13.3593051    0.1499106   -1.5087648  
C  -11.0230619    0.4436537   -1.4384947  
H   -8.1410289    1.1455474   -0.9448372  
H  -10.7911963   -2.1198668   -4.5430615  
H  -11.0931439    1.1302800   -0.6058145  
H   -8.0772123   -1.5514192   -4.1878386  
C   -4.6947977    2.0138969   -0.3183444  
C   -3.5421867    1.6316856   -0.9158235  
C   -3.9514600    0.7140407   -1.9679277  
C   -5.4250718    0.6562912   -1.8596817  
N   -5.8665584    1.4162668   -0.8945308  
C   -6.2212660   -0.1556044   -2.7383096  
C   -5.5747443   -0.8767168   -3.6824179  
O   -6.1913470   -1.6769186   -4.5687131  
C   -4.0886055   -0.8392725   -3.8171449  
O   -3.5672058   -1.5214556   -4.6991824  
C   -3.2941076    0.0012878   -2.9038237  
H   -2.5382353    1.9350698   -0.6726880  
H   -5.4711316   -2.0523898   -5.1067319  
H   -4.8199134    2.6921162    0.5107138  
C    0.0000000    0.0000000    0.0000000  
C    1.0541688   -0.0001723   -0.8560392  
C    0.5103136   -0.0000455   -2.1935956  
C   -0.9576373    0.0002461   -2.0455730  
N   -1.2018460   -0.0001389   -0.6915968  
C   -1.8348314    0.0008319   -3.0810607  
C   -1.2972851    0.0009739   -4.4314603  
O   -2.0050676    0.0014268   -5.4301316  
C    0.2542619    0.0004184   -4.6117572  
O    0.7184666    0.0002257   -5.7439122  
C    1.0974551    0.0000873   -3.4189129  
H    2.0940752   -0.0005484   -0.5817983  
H    2.1707276   -0.0000912   -3.5523673  
H   -2.1128194    0.0014915   -0.2706789  
C    3.3321173   -0.0004715    2.8079335  
C    2.6974184   -0.0000116    4.0032312  
C    1.2800439    0.0002118    3.6752840  
C    1.2395035   -0.0000644    2.1971295  
N    2.4394063   -0.0005460    1.6831036  
C    0.0000000    0.0000000    1.4700000  
C   -1.1468701   -0.0000635    2.1869543  
O   -2.3742202   -0.0000073    1.6395491  
C   -1.1388768   -0.0001607    3.6796354  
O   -2.2206231   -0.0000905    4.2670412  
C    0.1454524   -0.0001816    4.4024240  
H    3.1367986    0.0000651    4.9860947  
H   -2.9844344   -0.0001026    2.3990168  
H    0.1083576   -0.0003682    5.4835595  
H    4.3940039   -0.0007619    2.6198634  
