60

C    3.3041266    0.0001180   -1.5420446  
C    2.5845369   -0.0004778   -0.3695869  
C    1.2040002   -0.0000006   -0.7283594  
C    1.1422366    0.0006040   -2.1454379  
N    2.4348631    0.0026117   -2.6077477  
C   -0.0655191    0.0008802   -2.8497920  
C   -1.2321776    0.0002326   -2.1101397  
O   -2.4392825    0.0001152   -2.7472516  
C   -1.1911211   -0.0000006   -0.6955258  
O   -2.4371525   -0.0002320   -0.1032853  
C    0.0000000    0.0000000    0.0000000  
H    3.0031538   -0.0000658    0.6222569  
H    2.7054615   -0.0071091   -3.5745273  
H   -3.1132998   -0.0000647   -2.0551775  
H   -2.3200276   -0.0004073    0.8516414  
H    4.3686615    0.0004077   -1.7024308  
C    2.1731786   -2.0070813   -6.1392851  
C    1.7797909   -1.6263714   -4.9015913  
C    0.6726040   -0.7095540   -5.1253816  
C    0.5289359   -0.6505898   -6.5959141  
N    1.4057873   -1.4091980   -7.1956094  
C   -0.4729140    0.1609538   -7.2305644  
C   -1.2941680    0.8805682   -6.4324222  
O   -2.2730599    1.6802757   -6.8887992  
C   -1.1744877    0.8418720   -4.9450283  
O   -1.9557877    1.5227175   -4.2807693  
C   -0.1387098    0.0017024   -4.3179683  
H    2.1901946   -1.9302425   -3.9538007  
H   -0.5551532    0.1851929   -8.3073930  
H   -2.6812858    2.0546319   -6.0873242  
C    4.0869858   -3.5834701   -5.6001160  
C    4.9903249   -4.3636186   -6.2477439  
C    4.7396951   -4.2128396   -7.6617047  
C    3.6081986   -3.2741454   -7.7856408  
N    3.2587564   -2.9302294   -6.5001444  
C    3.0683830   -2.8719242   -8.9639968  
C    3.6397981   -3.3988686  -10.1921454  
O    3.2239767   -3.0974294  -11.3032387  
C    4.8384581   -4.3945819  -10.0845715  
O    5.3275931   -4.8450631  -11.1117402  
C    5.3335908   -4.7530921   -8.7578584  
H    5.7458831   -4.9750881   -5.7874706  
H    2.2385027   -2.1823849   -9.0328720  
H    6.1639448   -5.4429481   -8.6920334  
H    3.9564963   -3.4309588   -4.5410587  
C    0.0000000    0.0000000    1.4700000  
C    1.0541688    0.0001722    2.3260392  
C    0.5103138    0.0000454    3.6635956  
C   -0.9576371   -0.0002459    3.5155732  
N   -1.2018458    0.0001392    2.1615969  
C   -1.8348311   -0.0008317    4.5510609  
C   -1.2972847   -0.0009736    5.9014604  
O   -2.0050672   -0.0014265    6.9001319  
C    0.2542623   -0.0004184    6.0817573  
O    0.7184670   -0.0002256    7.2139121  
C    1.0974552   -0.0000873    4.8889129  
H    2.0940752    0.0005483    2.0517982  
H   -2.9081052   -0.0011668    4.4207061  
H    2.1707277    0.0000911    5.0223670  
H   -2.1128194   -0.0014912    1.7406791  
