58

C   10.0719162   -2.1006100   -1.3665387  
C   11.2704647   -1.6353361   -1.8036610  
C   10.9989141   -0.7413948   -2.9045537  
C    9.5334056   -0.7238576   -3.0741679  
N    9.0305194   -1.5685205   -2.1115986  
C    8.8767184    0.0032695   -4.0131849  
C    9.6660040    0.8231550   -4.9172603  
O    9.1679474    1.5138302   -5.7965830  
C   11.2196330    0.8196267   -4.7559220  
O   11.8946232    1.5057378   -5.5115010  
C   11.8123565   -0.0050086   -3.7059179  
H   12.2347594   -1.8895056   -1.4009849  
H   12.8887576   -0.0017245   -3.6006940  
H    9.8618140   -2.7876048   -0.5629308  
H    8.0568289   -1.7662479   -1.9706102  
C    5.5868522   -0.0000782   -1.0681555  
C    6.8043822    0.0011469   -1.6695666  
C    6.5701482    0.0006863   -3.0943367  
C    5.1058548   -0.0008899   -3.2749812  
N    4.5679461   -0.0016854   -2.0086701  
C    4.4796781   -0.0013359   -4.4789772  
C    5.3028527   -0.0004129   -5.6768576  
O    4.8337330   -0.0007802   -6.8074448  
C    6.8558139    0.0010077   -5.5091789  
O    7.5591501    0.0014867   -6.5104674  
C    7.4139954    0.0016536   -4.1592585  
H    7.7577673    0.0020655   -1.1719033  
H    3.4041779   -0.0023678   -4.5894724  
H    5.3482113   -0.0001589   -0.0169941  
C    3.1301149   -0.0010311   -1.7028252  
C    2.5367768   -0.0002767   -0.4864665  
C    1.1089904    0.0001028   -0.7656183  
C    1.0177872   -0.0004148   -2.2415132  
N    2.1993578   -0.0011611   -2.7963820  
C   -0.2459209   -0.0002877   -2.9257118  
C   -1.3675319   -0.0000605   -2.1698524  
O   -2.6129313    0.0000867   -2.6748490  
C   -1.3083584    0.0000910   -0.6783232  
O   -2.3693261    0.0004206   -0.0541692  
C    0.0000000    0.0000000    0.0000000  
H    3.0096017   -0.0001007    0.4807525  
H   -0.2829630   -0.0004687   -4.0053125  
H   -3.1967441    0.0002094   -1.8949034  
C    2.5528530    2.1414826    2.8079335  
C    2.0663498    1.7338582    4.0032312  
C    0.9804344    0.8229586    3.6752840  
C    0.9495562    0.7966882    2.1971295  
N    1.8690446    1.5676019    1.6831036  
C    0.0000000    0.0000000    1.4700000  
C   -0.8785127   -0.7372425    2.1869543  
O   -1.8187535   -1.5261249    1.6395491  
C   -0.8723269   -0.7321790    3.6796354  
O   -1.7010379   -1.4274584    4.2670412  
C    0.1115397    0.0933559    4.4024240  
H    2.4028853    2.0163452    4.9860947  
H   -2.2861435   -1.9184361    2.3990168  
H    0.0832434    0.0693689    5.4835595  
H    3.3664920    2.8238276    2.6198634  
