58

C   -8.1165487   -0.5616594   -2.6243038  
C   -8.3430007    0.2710065   -1.5757518  
C   -9.7661651    0.2636585   -1.3320587  
C  -10.3544877   -0.6481025   -2.3317381  
N   -9.3017785   -1.1149493   -3.0845640  
C  -11.6788377   -0.9265059   -2.4331912  
C  -12.5853063   -0.2851907   -1.4953394  
O  -13.7951181   -0.4710861   -1.5052547  
C  -11.9841467    0.6843416   -0.4283719  
O  -12.7375464    1.2303298    0.3663283  
C  -10.5401623    0.9049041   -0.4177992  
H   -7.5981150    0.8270613   -1.0348632  
H  -12.0898137   -1.5984742   -3.1737763  
H  -10.1318519    1.5774871    0.3242508  
H   -9.3818940   -1.7599729   -3.8491387  
C   -3.9884051    0.7039233   -1.8242582  
C   -3.3460097   -0.0004262   -2.7913647  
C   -4.3537583   -0.7427565   -3.5112426  
C   -5.6451795   -0.4107427   -2.8797465  
N   -5.3546451    0.4703283   -1.8637774  
C   -6.8441771   -0.9105382   -3.2725751  
C   -6.8640253   -1.8374907   -4.3919052  
O   -7.8934846   -2.3421818   -4.8206280  
C   -5.5080969   -2.2034205   -5.0755413  
O   -5.5122776   -2.9830135   -6.0186627  
C   -4.2805270   -1.6000814   -4.5627983  
H   -3.3459156   -1.8584818   -5.0418127  
H   -3.5786585    1.3738261   -1.0858631  
H   -6.0311467    0.8819829   -1.2473904  
C    0.0000000    0.0000000    0.0000000  
C    1.0662919   -0.0000103   -0.8334272  
C    0.4961868    0.0000066   -2.1718889  
C   -0.9663860   -0.0000849   -1.9540248  
N   -1.2632775   -0.0000084   -0.6828659  
C   -1.8985364   -0.0000515   -3.0477258  
C   -1.3925778    0.0004567   -4.3020543  
O   -2.1456385    0.0005412   -5.4151314  
C    0.0786229    0.0009326   -4.5544999  
O    0.4683756    0.0012594   -5.7221104  
C    1.0143162    0.0008443   -3.4159034  
H    2.1107195    0.0000631   -0.5721869  
H   -1.5042277    0.0009692   -6.1484420  
H    2.0724151    0.0013151   -3.6409746  
C    3.3321173   -0.0004715    2.8079335  
C    2.6974184   -0.0000116    4.0032312  
C    1.2800439    0.0002118    3.6752840  
C    1.2395035   -0.0000644    2.1971295  
N    2.4394063   -0.0005460    1.6831036  
C    0.0000000    0.0000000    1.4700000  
C   -1.1468701   -0.0000635    2.1869543  
O   -2.3742202   -0.0000073    1.6395491  
C   -1.1388768   -0.0001607    3.6796354  
O   -2.2206231   -0.0000905    4.2670412  
C    0.1454524   -0.0001816    4.4024240  
H    3.1367986    0.0000651    4.9860947  
H   -2.9844344   -0.0001026    2.3990168  
H    0.1083576   -0.0003682    5.4835595  
H    4.3940039   -0.0007619    2.6198634  
