58

C   -0.2828412    0.1912934   -8.7859942  
C    0.4702976   -0.4673665   -9.7041581  
C   -0.0260978   -0.0882274  -11.0059574  
C   -1.1381227    0.8520711  -10.7692510  
N   -1.2428024    0.9788026   -9.4032812  
C   -1.8705058    1.4391020  -11.7494111  
C   -1.5417212    1.1235985  -13.1295906  
O   -2.1425650    1.6008458  -14.0832788  
C   -0.3679738    0.1300896  -13.4035656  
O   -0.0821890   -0.1433598  -14.5615002  
C    0.3481440   -0.4383720  -12.2643210  
H    1.2809385   -1.1419844   -9.4935276  
H   -2.6821290    2.1261943  -11.5542647  
H    1.1596785   -1.1252746  -12.4625626  
H   -1.9120155    1.5561698   -8.9280461  
C    2.4320877   -2.0124028   -6.1859210  
C    2.0200835   -1.6305795   -4.9546444  
C    0.9177867   -0.7123207   -5.1959806  
C    0.7970282   -0.6538281   -6.6685906  
N    1.6820121   -1.4139326   -7.2542822  
C   -0.1937184    0.1588217   -7.3190578  
C   -1.0262443    0.8799458   -6.5340644  
O   -1.9968173    1.6808093   -7.0059183  
C   -0.9297035    0.8417619   -5.0449762  
O   -1.7202577    1.5239997   -4.3932124  
C    0.0950446    0.0004351   -4.4015596  
H    2.4153098   -1.9345893   -4.0004696  
H   -2.4169009    2.0561001   -6.2110347  
H    3.2315426   -2.6908679   -6.4379726  
C    3.3321173    0.0004713   -1.3379338  
C    2.6974181    0.0000116   -2.5332314  
C    1.2800438   -0.0002119   -2.2052841  
C    1.2395034    0.0000643   -0.7271299  
N    2.4394062    0.0005460   -0.2131038  
C    0.0000000    0.0000000    0.0000000  
C   -1.1468702    0.0000634   -0.7169543  
O   -2.3742203    0.0000074   -0.1695487  
C   -1.1388770    0.0001607   -2.2096355  
O   -2.2206234    0.0000905   -2.7970411  
C    0.1454522    0.0001815   -2.9324241  
H    3.1367984   -0.0000653   -3.5160950  
H   -2.9844346    0.0001026   -0.9290167  
H    4.3940038    0.0007618   -1.1498640  
C    2.5128556    2.1077716    2.9199648  
C    1.9592212    1.6432552    4.0696553  
C    0.8915788    0.7479214    3.6910360  
C    0.8684491    0.7287414    2.2159470  
N    1.8754542    1.5738793    1.8102719  
C    0.0000000    0.0000000    1.4700000  
C   -0.9772830   -0.8200135    2.1664417  
O   -1.8021297   -1.5120829    1.5842315  
C   -0.9711318   -0.8147624    3.7284083  
O   -1.7894187   -1.5009653    4.3257297  
C    0.0140216    0.0115358    4.4216297  
H    2.2638494    1.8988021    5.0689105  
H    0.0117648    0.0094386    5.5031631  
H    3.3327358    2.7953732    2.7900019  
H    2.1123206    1.7707734    0.8551938  
