60

C    3.3041271    0.0001182   -1.5420442  
C    2.5845371   -0.0004779   -0.3695863  
C    1.2040003   -0.0000007   -0.7283596  
C    1.1422369    0.0006038   -2.1454378  
N    2.4348636    0.0026114   -2.6077473  
C   -0.0655186    0.0008799   -2.8497919  
C   -1.2321772    0.0002325   -2.1101399  
O   -2.4392823    0.0001149   -2.7472518  
C   -1.1911211   -0.0000006   -0.6955264  
O   -2.4371523   -0.0002321   -0.1032858  
C    0.0000000    0.0000000    0.0000000  
H    3.0031536   -0.0000657    0.6222570  
H    2.7054624   -0.0071095   -3.5745269  
H   -3.1132991   -0.0000650   -2.0551783  
H   -2.3200275   -0.0004074    0.8516409  
H    4.3686617    0.0004077   -1.7024309  
C    2.2991546   -2.1048093   -5.8924441  
C    1.6888945   -1.6397490   -7.0128799  
C    0.6412926   -0.7448179   -6.5810650  
C    0.6916325   -0.7264669   -5.1066432  
N    1.7177143   -1.5716515   -4.7520888  
C   -0.1387090    0.0017019   -4.3179688  
C   -1.1495790    0.8219302   -4.9644229  
O   -1.9445189    1.5135262   -4.3414740  
C   -1.2212040    0.8175535   -6.5247614  
O   -2.0683196    1.5039441   -7.0802108  
C   -0.2716628   -0.0081808   -7.2666419  
H    1.9434313   -1.8946825   -8.0262075  
H   -0.3277661   -0.0054791   -8.3467199  
H    2.0018693   -1.7690373   -3.8101010  
C    4.7223121   -4.2556572   -8.8922091  
C    3.8092848   -3.4659751   -8.2702305  
C    4.0360201   -3.5981924   -6.8503902  
C    5.1640903   -4.5363389   -6.6950547  
N    5.5340316   -4.8983297   -7.9698088  
C    5.6841032   -4.9228051   -5.5026059  
C    5.0931767   -4.3786161   -4.2913258  
O    5.4903405   -4.6652254   -3.1695341  
C    3.8974325   -3.3835463   -4.4321700  
O    3.3915973   -2.9191050   -3.4194087  
C    3.4248458   -3.0424254   -5.7716290  
H    3.0621034   -2.8601449   -8.7511701  
H    6.5119958   -5.6120486   -5.4106893  
H    4.8703358   -4.4223588   -9.9468131  
H    6.2802019   -5.5302989   -8.1953996  
C    0.0000000    0.0000000    1.4700000  
C    1.0541688    0.0001722    2.3260392  
C    0.5103138    0.0000454    3.6635956  
C   -0.9576371   -0.0002459    3.5155732  
N   -1.2018458    0.0001392    2.1615969  
C   -1.8348311   -0.0008317    4.5510609  
C   -1.2972847   -0.0009736    5.9014604  
O   -2.0050672   -0.0014265    6.9001319  
C    0.2542623   -0.0004184    6.0817573  
O    0.7184670   -0.0002256    7.2139121  
C    1.0974552   -0.0000873    4.8889129  
H    2.0940752    0.0005483    2.0517982  
H   -2.9081052   -0.0011668    4.4207061  
H    2.1707277    0.0000911    5.0223670  
H   -2.1128194   -0.0014912    1.7406791  
