58

C    4.5546443   -2.0975051   -2.8456840  
C    3.3966020   -1.6333854   -2.3093944  
C    2.8128205   -0.7373021   -3.2794817  
C    3.7322609   -0.7172947   -4.4331799  
N    4.7679904   -1.5620813   -4.1068518  
C    3.5352968    0.0116910   -5.5607830  
C    2.3379414    0.8314600   -5.6435731  
O    2.0707007    1.5238123   -6.6169859  
C    1.3504332    0.8257214   -4.4333664  
O    0.3391712    1.5121844   -4.4914813  
C    1.6707636   -0.0012343   -3.2725974  
H    2.9970334   -1.8893867   -1.3442923  
H    4.2221663    0.0121013   -6.3957210  
H    5.2702684   -2.7854721   -2.4255958  
C    6.9889616   -5.2819424   -4.9591157  
C    6.1108985   -4.3626689   -4.4816041  
C    6.4569476   -3.0971004   -5.0844486  
C    7.6168903   -3.3562828   -5.9586036  
N    7.8900193   -4.6992611   -5.8373613  
C    8.2422286   -2.4121624   -6.7064641  
C    7.7394175   -1.0497785   -6.6462418  
O    8.2341906   -0.1284345   -7.2823436  
C    6.5121385   -0.7524712   -5.7268940  
O    6.0801686    0.3908462   -5.6678373  
C    5.9227652   -1.8531656   -4.9686312  
H    5.3120753   -4.5497444   -3.7862640  
H    9.0915611   -2.6233245   -7.3412516  
H    7.0537423   -6.3360080   -4.7431551  
H    8.6287312   -5.1821643   -6.3150175  
C    1.0965514    0.0001358   -0.8010306  
C    0.0000000    0.0000000    0.0000000  
C   -1.1546565    0.0001470   -0.8669508  
C   -0.6372019    0.0003520   -2.2486278  
N    0.7342867    0.0007338   -2.1395012  
C   -1.4147744    0.0001354   -3.3608712  
C   -2.8576052   -0.0001047   -3.1854454  
O   -3.6427785   -0.0002490   -4.1244896  
C   -3.4275841   -0.0000727   -1.7311660  
O   -4.6406832    0.0000333   -1.5710049  
C   -2.4891868   -0.0001090   -0.6116739  
H   -1.0150456    0.0001617   -4.3654239  
H   -2.8919122   -0.0002919    0.3920871  
H    2.1388270    0.0000663   -0.5261650  
C    0.0000000    0.0000000    1.4700000  
C    1.0541688    0.0001722    2.3260392  
C    0.5103138    0.0000454    3.6635956  
C   -0.9576371   -0.0002459    3.5155732  
N   -1.2018458    0.0001392    2.1615969  
C   -1.8348311   -0.0008317    4.5510609  
C   -1.2972847   -0.0009736    5.9014604  
O   -2.0050672   -0.0014265    6.9001319  
C    0.2542623   -0.0004184    6.0817573  
O    0.7184670   -0.0002256    7.2139121  
C    1.0974552   -0.0000873    4.8889129  
H    2.0940752    0.0005483    2.0517982  
H   -2.9081052   -0.0011668    4.4207061  
H    2.1707277    0.0000911    5.0223670  
H   -2.1128194   -0.0014912    1.7406791  
