60

C    3.3041272    0.0001182   -1.5420430  
C    2.5845371   -0.0004777   -0.3695856  
C    1.2040006   -0.0000006   -0.7283593  
C    1.1422372    0.0006038   -2.1454372  
N    2.4348640    0.0026113   -2.6077468  
C   -0.0655182    0.0008798   -2.8497918  
C   -1.2321767    0.0002323   -2.1101399  
O   -2.4392815    0.0001145   -2.7472521  
C   -1.1911210   -0.0000006   -0.6955266  
O   -2.4371527   -0.0002323   -0.1032862  
C    0.0000000    0.0000000    0.0000000  
H    3.0031537   -0.0000657    0.6222579  
H    2.7054627   -0.0071095   -3.5745262  
H   -3.1132989   -0.0000651   -2.0551787  
H   -2.3200282   -0.0004073    0.8516412  
H    4.3686620    0.0004077   -1.7024292  
C    2.3446867   -2.1385760   -5.7825616  
C    1.7992123   -1.7303703   -6.9519226  
C    0.7308349   -0.8198484   -6.5697986  
C    0.7735870   -0.7944100   -5.0919257  
N    1.7176441   -1.5654466   -4.6247550  
C   -0.1387084    0.0017018   -4.3179686  
C   -1.0519392    0.7391880   -4.9898749  
O   -1.9638782    1.5275961   -4.3958874  
C   -1.1200798    0.7349601   -6.4810150  
O   -1.9771140    1.4304198   -7.0260372  
C   -0.1732961   -0.0899946   -7.2523611  
H    2.0864369   -2.0122475   -7.9504827  
H   -2.4685607    1.9202478   -5.1309194  
H   -0.2553896   -0.0654081   -8.3307333  
C    4.8918498   -4.3881760   -8.6017259  
C    3.9531397   -3.5792200   -8.0463104  
C    4.1210856   -3.6606766   -6.6145299  
C    5.2426477   -4.5900417   -6.3796484  
N    5.6653318   -4.9959279   -7.6244322  
C    5.7132635   -4.9329128   -5.1538164  
C    5.0722379   -4.3477151   -3.9879845  
O    5.4229380   -4.5935817   -2.8413111  
C    3.8824069   -3.3611131   -4.2132047  
O    3.3346839   -2.8624176   -3.2392625  
C    3.4652987   -3.0686354   -5.5822665  
H    3.2259182   -2.9925449   -8.5788279  
H    6.5372938   -5.6164910   -5.0034622  
H    5.0835182   -4.5916550   -9.6427589  
H    6.4207866   -5.6336744   -7.7965167  
C    0.8681109    0.7263879    2.2709268  
C    0.6127770    0.5096195    3.5869401  
C   -0.4920590   -0.4175482    3.6542670  
C   -0.8620974   -0.7254003    2.2596025  
N    0.0000000    0.0000000    1.4700000  
C   -1.8641242   -1.5660088    1.8976294  
C   -2.6293522   -2.2103885    2.9520183  
O   -3.5512764   -2.9839180    2.7283916  
C   -2.2549728   -1.8987399    4.4361073  
O   -2.8923672   -2.4351063    5.3323774  
C   -1.1543735   -0.9755647    4.7012123  
H    1.1382914    0.9492124    4.4159191  
H   -2.1192137   -1.7782617    0.8686553  
H   -0.9013378   -0.7652422    5.7314848  
H    1.6172880    1.3558399    1.8188057  
