60

C    5.5795940   -0.0005393   -1.1027768  
C    4.5679461   -0.0016852   -2.0086700  
C    5.1756895   -0.0033631   -3.3184336  
C    6.6347913   -0.0031282   -3.0997721  
N    6.8134015   -0.0009884   -1.7355933  
C    7.5609142   -0.0048088   -4.0917384  
C    7.0891344   -0.0067691   -5.4664949  
O    7.8442683   -0.0083101   -6.4298607  
C    5.5480913   -0.0068001   -5.7214262  
O    5.1390405   -0.0081348   -6.8746544  
C    4.6483385   -0.0051689   -4.5706462  
H    8.6266509   -0.0047314   -3.9097624  
H    3.5827537   -0.0054069   -4.7557176  
H    5.5275970    0.0008126   -0.0261227  
H    7.7030105   -0.0018794   -1.2712202  
C    3.1301152   -0.0010311   -1.7028251  
C    2.5367770   -0.0002766   -0.4864665  
C    1.1089905    0.0001028   -0.7656183  
C    1.0177873   -0.0004148   -2.2415130  
N    2.1993580   -0.0011610   -2.7963820  
C   -0.2459208   -0.0002877   -2.9257119  
C   -1.3675318   -0.0000605   -2.1698523  
O   -2.6129310    0.0000866   -2.6748492  
C   -1.3083584    0.0000911   -0.6783232  
O   -2.3693259    0.0004206   -0.0541692  
C    0.0000000    0.0000000    0.0000000  
H    3.0096019   -0.0001007    0.4807529  
H   -3.1967440    0.0002093   -1.8949035  
C    0.4920779   -0.6868678   -5.2544642  
C   -0.2963281   -0.0005339   -4.3948471  
C   -1.2145535    0.7451072   -5.2418312  
C   -0.8279315    0.3808332   -6.6218357  
N    0.1718593   -0.4583448   -6.6355552  
C   -1.5071728    0.9172630   -7.7689887  
C   -2.5265708    1.7781567   -7.5475753  
O   -3.2476960    2.3546073   -8.5241629  
C   -2.9407244    2.1650503   -6.1666509  
O   -3.8771697    2.9538492   -6.0398161  
C   -2.2282735    1.6012172   -5.0062931  
H   -1.2033753    0.6338251   -8.7661249  
H   -3.8964313    2.9117964   -8.0574346  
H   -2.5588923    1.9065103   -4.0225667  
H    1.3019156   -1.3594047   -5.0203046  
C    0.8576279    0.7185626    2.2703808  
C    0.0000000    0.0000000    1.4700000  
C   -0.8668858   -0.7285659    2.3373528  
C   -0.4876752   -0.4117774    3.6669281  
N    0.5635254    0.4678311    3.5902241  
C   -1.1297612   -0.9515493    4.7854808  
C   -2.1738724   -1.8268314    4.5576857  
O   -2.8357962   -2.3827064    5.6140350  
C   -2.5667212   -2.1555554    3.2384331  
O   -3.6226318   -3.0413663    3.1773122  
C   -1.9335634   -1.6236449    2.1344818  
H    1.0363952    0.8769718    4.3757045  
H   -0.8454472   -0.7142436    5.8013813  
H   -3.5178062   -2.9546422    5.2385129  
H   -3.8247440   -3.2102924    2.2519915  
H   -2.2566033   -1.8942483    1.1360343  
H    1.6567807    1.3889844    2.0042067  
