58

C    7.0548980    0.0018860   -6.2721684  
C    7.6714086    0.0032455   -5.0622144  
C    9.0931541    0.0038692   -5.3141546  
C    9.2555689    0.0027828   -6.7805830  
N    7.9826650    0.0012067   -7.3026964  
C   10.4516818    0.0033584   -7.4216900  
C   11.6597096    0.0049426   -6.6134797  
O   12.7843729    0.0055053   -7.0966294  
C   11.5113629    0.0058608   -5.0585530  
O   12.5213233    0.0068888   -4.3677281  
C   10.1684911    0.0053966   -4.4836215  
H    7.1856442    0.0035712   -4.1027111  
H   10.5487893    0.0026702   -8.4984814  
H   10.0744148    0.0062438   -3.4061834  
H    7.7616800    0.0017440   -8.2815798  
C    3.2973507   -0.0000930   -3.8752373  
C    4.6109363    0.0001680   -4.2009254  
C    4.6367196   -0.0000873   -5.6555165  
C    3.2125800   -0.0006165   -6.0535231  
N    2.4227569   -0.0005415   -5.0142109  
C    2.8079502   -0.0009500   -7.4324215  
C    3.7817678   -0.0003743   -8.3710445  
O    3.5485418   -0.0006025   -9.6945417  
C    5.2278981    0.0005395   -8.0010881  
O    6.0602363    0.0009038   -8.9079694  
C    5.6174389    0.0008224   -6.5797565  
H    5.4578085    0.0005838   -3.5361826  
H    1.7599988   -0.0015416   -7.6945430  
H    4.4333818   -0.0000277  -10.1022329  
C    3.3321175    0.0004715   -1.3379331  
C    2.6974186    0.0000117   -2.5332308  
C    1.2800441   -0.0002117   -2.2052838  
C    1.2395036    0.0000644   -0.7271292  
N    2.4394065    0.0005460   -0.2131033  
C    0.0000000    0.0000000    0.0000000  
C   -1.1468701    0.0000635   -0.7169542  
O   -2.3742199    0.0000073   -0.1695491  
C   -1.1388766    0.0001607   -2.2096354  
O   -2.2206227    0.0000905   -2.7970412  
C    0.1454526    0.0001817   -2.9324239  
H   -2.9844344    0.0001026   -0.9290168  
H    0.1083579    0.0003683   -4.0135594  
H    4.3940038    0.0007619   -1.1498630  
C    2.4951002    2.0940188    2.9809380  
C    1.9440701    1.6314916    1.8291961  
C    0.8759964    0.7350050    2.2038498  
C    0.8497377    0.7130254    3.6788474  
N    1.8560616    1.5571714    4.0882609  
C   -0.0205033   -0.0168748    4.4215661  
C   -0.9962600   -0.8356168    3.7214979  
O   -1.8224391   -1.5286685    4.3006425  
C   -0.9864710   -0.8277881    2.1595606  
O   -1.8030528   -1.5133726    1.5592035  
C    0.0000000    0.0000000    1.4700000  
H    2.2509283    1.8888011    0.8310761  
H   -0.0229599   -0.0187323    5.5027230  
H    3.3143982    2.7817323    3.1139444  
H    2.0889452    1.7545833    5.0442112  
