58

C    3.9142831   -0.7071708   -4.5248269  
C    2.8699647   -0.0020533   -4.0185822  
C    2.2908383    0.7380391   -5.1148083  
C    3.0890720    0.4038757   -6.3097759  
N    4.0573693   -0.4761769   -5.8845724  
C    2.8596387    0.9012226   -7.5514324  
C    1.7527766    1.8276206   -7.7222503  
O    1.4651477    2.3301667   -8.8006831  
C    0.8942549    2.1957982   -6.4703756  
O   -0.0400339    2.9749472   -6.6018690  
C    1.2387392    1.5950168   -5.1842015  
H    3.4570871    0.6430788   -8.4147554  
H    0.6392482    1.8549632   -4.3223649  
H    4.5915387   -1.3759574   -4.0189237  
C    3.2573674   -0.0002920   -1.5109378  
C    2.5379471   -0.0001708   -0.3591960  
C    1.1435047    0.0000329   -0.7338500  
C    1.1092612   -0.0000087   -2.2088475  
N    2.4227566    0.0001906   -2.6182608  
C   -0.0265526   -0.0002532   -2.9515663  
C   -1.3003031   -0.0002648   -2.2514983  
O   -2.3786778   -0.0004142   -2.8306428  
C   -1.2877723    0.0000309   -0.6895610  
O   -2.3539953    0.0003301   -0.0892041  
C    0.0000000    0.0000000    0.0000000  
H    2.9384091   -0.0000365    0.6389243  
H   -0.0296284   -0.0004094   -4.0327232  
H    4.3270397   -0.0004763   -1.6439441  
C    5.5222368   -2.3649159   -6.6888303  
C    5.0845588   -1.0806443   -6.7450376  
C    5.8190865   -0.4315748   -7.8052332  
C    6.7270599   -1.4502892   -8.3661190  
N    6.4982961   -2.5996626   -7.6453573  
C    7.5907269   -1.2305625   -9.3895955  
C    7.6287033    0.0979849   -9.9778594  
O    8.3722414    0.3955703  -10.9035455  
C    6.6760149    1.1923588   -9.3994672  
O    6.6993101    2.3146627   -9.8864490  
C    5.7891886    0.8354914   -8.2949137  
H    8.2481667   -1.9917305   -9.7862136  
H    5.1325257    1.5989009   -7.9002969  
H    5.2140141   -3.1595663   -6.0289677  
H    6.9666449   -3.4748285   -7.7929383  
C    2.5128556    2.1077716    2.9199648  
C    1.9592212    1.6432552    4.0696553  
C    0.8915788    0.7479214    3.6910360  
C    0.8684491    0.7287414    2.2159470  
N    1.8754542    1.5738793    1.8102719  
C    0.0000000    0.0000000    1.4700000  
C   -0.9772830   -0.8200135    2.1664417  
O   -1.8021297   -1.5120829    1.5842315  
C   -0.9711318   -0.8147624    3.7284083  
O   -1.7894187   -1.5009653    4.3257297  
C    0.0140216    0.0115358    4.4216297  
H    2.2638494    1.8988021    5.0689105  
H    0.0117648    0.0094386    5.5031631  
H    3.3327358    2.7953732    2.7900019  
H    2.1123206    1.7707734    0.8551938  
