58

C    7.4293902   -0.7011394   -5.0762339  
C    8.7864613   -0.6948923   -5.0273032  
C    9.2110689    0.6593609   -5.2929017  
C    7.9813106    1.4472333   -5.5020500  
N    6.9363822    0.5639631   -5.3576557  
C    7.9569458    2.7756508   -5.7784847  
C    9.2266611    3.4761478   -5.8767868  
O    9.3101487    4.6724970   -6.1218994  
C   10.5415329    2.6615504   -5.6591915  
O   11.6165293    3.2404682   -5.7397958  
C   10.4400977    1.2339898   -5.3665605  
H    9.4179845   -1.5423030   -4.8280860  
H    7.0438288    3.3348343   -5.9282916  
H   11.3551666    0.6772038   -5.2170195  
H    6.7479808   -1.5235502   -4.9305946  
C    3.4106844   -0.7032174   -3.0670123  
C    2.4521483    0.0014840   -3.7217481  
C    3.1158562    0.7444933   -4.7668629  
C    4.5499140    0.4124939   -4.6666318  
N    4.6621248   -0.4692177   -3.6164497  
C    5.5136830    0.9128418   -5.4805768  
C    5.1117788    1.8404161   -6.5249017  
O    5.9049350    2.3456315   -7.3084583  
C    3.5983555    2.2063420   -6.6492183  
O    3.2480952    2.9864551   -7.5244335  
C    2.6531316    1.6023760   -5.7134677  
H    1.6070344    1.8607780   -5.8063812  
H    3.3081788   -1.3736416   -2.2292093  
H    5.5205794   -0.8810217   -3.2994003  
C    0.0000000    0.0000000    0.0000000  
C    1.0662923   -0.0000101   -0.8334270  
C    0.4961873    0.0000065   -2.1718887  
C   -0.9663854   -0.0000848   -1.9540250  
N   -1.2632773   -0.0000083   -0.6828660  
C   -1.8985359   -0.0000514   -3.0477261  
C   -1.3925770    0.0004566   -4.3020547  
O   -2.1456378    0.0005414   -5.4151314  
C    0.0786240    0.0009326   -4.5545000  
O    0.4683767    0.0012591   -5.7221100  
C    1.0143171    0.0008444   -3.4159031  
H    2.1107200    0.0000633   -0.5721865  
H   -2.9622181   -0.0003268   -2.8593381  
H   -1.5042265    0.0009697   -6.1484419  
C    1.1319247   -0.0015655    2.2709268  
C    0.7969915   -0.0034943    3.5869401  
C   -0.6453339   -0.0035710    3.6542670  
C   -1.1266833   -0.0015433    2.2596025  
N    0.0000000    0.0000000    1.4700000  
C   -2.4346130   -0.0013964    1.8976294  
C   -3.4350110   -0.0031408    2.9520183  
O   -4.6384611   -0.0030974    2.7283916  
C   -2.9478959   -0.0050506    4.4361073  
O   -3.7809380   -0.0062218    5.3323774  
C   -1.5113823   -0.0053090    4.7012123  
H    1.4821238   -0.0045407    4.4159191  
H   -2.7664565   -0.0000232    0.8686553  
H   -1.1823530   -0.0068408    5.7314848  
H    2.1104316   -0.0009391    1.8188057  
