60

C    0.9360397   -0.7247808   -5.2319384  
C    0.6354724   -0.5080892   -6.5383762  
C   -0.4721188    0.4177752   -6.5675797  
C   -0.7944792    0.7249464   -5.1609813  
N    0.0950450    0.0004357   -4.4015596  
C   -1.7844976    1.5643000   -4.7646820  
C   -2.5861939    2.2079509   -5.7920731  
O   -3.5008219    2.9803446   -5.5367992  
C   -2.2625565    1.8970038   -7.2881930  
O   -2.9309436    2.4327661   -8.1619652  
C   -1.1706040    0.9751844   -7.5910794  
H    1.1327709   -0.9469135   -7.3849815  
H   -2.0044040    1.7760715   -3.7275202  
H   -0.9527972    0.7653406   -8.6294671  
H    1.7010237   -1.3534193   -4.8059069  
C    3.3321174    0.0004722   -1.3379336  
C    2.6974183    0.0000122   -2.5332313  
C    1.2800441   -0.0002113   -2.2052840  
C    1.2395036    0.0000646   -0.7271298  
N    2.4394063    0.0005463   -0.2131037  
C    0.0000000    0.0000000    0.0000000  
C   -1.1468699    0.0000637   -0.7169543  
O   -2.3742201    0.0000076   -0.1695489  
C   -1.1388769    0.0001611   -2.2096357  
O   -2.2206234    0.0000908   -2.7970412  
C    0.1454523    0.0001820   -2.9324241  
H    3.1367987   -0.0000643   -3.5160945  
H   -2.9844345    0.0001025   -0.9290168  
C    5.7595792    0.0007164   -2.0216246  
C    4.7795905    0.0008679   -1.0815729  
C    5.4318901    0.0011981    0.2065811  
C    6.8826353    0.0012559   -0.0619863  
N    7.0143620    0.0005553   -1.4314888  
C    7.8422297    0.0019360    0.8976402  
C    7.4178697    0.0024334    2.2877673  
O    8.2055936    0.0029964    3.2246727  
C    5.8864744    0.0021300    2.5953928  
O    5.5172093    0.0022369    3.7619704  
C    4.9477897    0.0016670    1.4761417  
H    8.9010988    0.0020959    0.6792256  
H    3.8891774    0.0016646    1.6976447  
H    5.6706935    0.0004920   -3.0958636  
H    7.8875236    0.0019722   -1.9260935  
C    2.5311839    2.1237619    3.0120429  
C    1.9795631    1.6616747    1.8395852  
C    0.9223175    0.7739173    2.1983588  
C    0.8753926    0.7337535    3.6154372  
N    1.8668922    1.5631002    4.0777464  
C   -0.0496243   -0.0427881    4.3197917  
C   -0.9437528   -0.7922060    3.5801400  
O   -1.8685244   -1.5680278    4.2172520  
C   -0.9124520   -0.7656372    2.1655264  
O   -1.8671164   -1.5663939    1.5732860  
C    0.0000000    0.0000000    1.4700000  
H    2.3005065    1.9304404    0.8477417  
H    2.0679347    1.7444845    5.0445261  
H   -0.0904770   -0.0778569    5.3997470  
H   -2.3849669   -2.0011402    3.5251786  
H   -1.7775064   -1.4909735    0.6183591  
H    3.3468514    2.8078103    3.1724291  
