58

C    0.0000000    0.0000000    0.0000000  
C    0.5729351    0.8848835   -0.8560385  
C    0.2773216    0.4283856   -2.1935953  
C   -0.5205440   -0.8038029   -2.0455735  
N   -0.6529141   -1.0090268   -0.6915974  
C   -0.9976652   -1.5398906   -3.0810616  
C   -0.7057045   -1.0885420   -4.4314611  
O   -1.0906628   -1.6824801   -5.4301328  
C    0.1378057    0.2136830   -4.6117572  
O    0.3901967    0.6032796   -5.7439117  
C    0.5962380    0.9213646   -3.4189125  
H    1.1382912    1.7576823   -0.5817976  
H   -1.5811171   -2.4407235   -2.9507074  
H   -1.1492664   -1.7729047   -0.2706800  
C    4.0777602    2.3622646   -1.2302353  
C    4.3479695    3.5288336   -1.8608563  
C    3.3343742    3.6376660   -2.8987771  
C    2.5130398    2.4174313   -2.7470486  
N    2.9439671    1.6659927   -1.7705081  
C    1.3890724    2.1458695   -3.6002995  
C    1.0985777    3.0523124   -4.5611884  
O    0.0787140    2.9271883   -5.4273657  
C    1.9083060    4.2936030   -4.7392316  
O    1.5864712    5.0745107   -5.6346787  
C    3.0564246    4.5494427   -3.8513721  
H    0.1279848    3.7243796   -5.9852281  
H    3.6175139    5.4601159   -4.0128766  
H    4.6031160    1.9194625   -0.3990309  
C    8.5068007    2.8241829   -0.7676559  
C    8.9835958    4.0837070   -0.6340664  
C    7.8500181    4.9469908   -0.9277375  
C    6.7403422    4.0163817   -1.2263499  
N    7.1193266    2.7706544   -1.1340238  
C    5.4260492    4.4849302   -1.5701281  
C    5.2291679    5.8223581   -1.6132400  
O    4.0543393    6.3985697   -1.9195051  
C    6.3288941    6.7871349   -1.3166427  
O    6.0780730    7.9908390   -1.3750021  
C    7.6682599    6.2817155   -0.9665355  
H    9.9812987    4.3892313   -0.3688919  
H    4.2267883    7.3560260   -1.8676261  
H    8.4377289    7.0130666   -0.7585171  
H    9.0379188    1.8952925   -0.6333083  
C    0.0000000    0.0000000    1.4700000  
C    1.0541688    0.0001722    2.3260392  
C    0.5103138    0.0000454    3.6635956  
C   -0.9576371   -0.0002459    3.5155732  
N   -1.2018458    0.0001392    2.1615969  
C   -1.8348311   -0.0008317    4.5510609  
C   -1.2972847   -0.0009736    5.9014604  
O   -2.0050672   -0.0014265    6.9001319  
C    0.2542623   -0.0004184    6.0817573  
O    0.7184670   -0.0002256    7.2139121  
C    1.0974552   -0.0000873    4.8889129  
H    2.0940752    0.0005483    2.0517982  
H   -2.9081052   -0.0011668    4.4207061  
H    2.1707277    0.0000911    5.0223670  
H   -2.1128194   -0.0014912    1.7406791  
