62

C   -1.7667978    2.7920742   -1.5420440  
C   -1.3815337    2.1843068   -0.3695856  
C   -0.6437715    1.0174357   -0.7283591  
C   -0.6112572    0.9649193   -2.1454373  
N   -1.3041138    2.0561740   -2.6077472  
C    0.0342904   -0.0558365   -2.8497916  
C    0.6586430   -1.0413694   -2.1101392  
O    1.3041753   -2.0613650   -2.7472509  
C    0.6368872   -1.0065512   -0.6955255  
O    1.3033290   -2.0593803   -0.1032852  
C    0.0000000    0.0000000    0.0000000  
H   -1.6057143    2.5378363    0.6222576  
H    0.0625658   -0.1016540   -3.9297466  
H    1.6647201   -2.6308444   -2.0551776  
H    1.2408506   -1.9603110    0.8516423  
H   -2.3362436    3.6914998   -1.7024306  
C   -1.2418396    5.9509929   -4.8023240  
C   -1.1846371    4.9823897   -3.8271303  
C   -1.4310110    3.7318303   -4.4674439  
C   -1.6330488    4.0022979   -5.8451066  
N   -1.5132752    5.3594298   -6.0138209  
C   -1.9015279    2.9991957   -6.7813188  
C   -1.9669475    1.6993459   -6.3184059  
O   -2.2258070    0.6811664   -7.1897924  
C   -1.7685654    1.4094806   -4.9474790  
O   -1.8657652    0.0673054   -4.6434024  
C   -1.5039332    2.3985931   -4.0232755  
H   -0.9904410    5.1559563   -2.7825464  
H   -1.5965202    5.8450884   -6.8885708  
H   -2.0566084    3.1987947   -7.8326568  
H   -2.2278043   -0.1314499   -6.6673791  
H   -1.7190636   -0.0419606   -3.6988690  
C   -0.3746635    8.5591426   -1.3775759  
C   -0.3494335    9.7602853   -2.0105803  
C   -0.6136693    9.5058198   -3.4070982  
C   -0.7962463    8.0475153   -3.5367292  
N   -0.6385206    7.5319920   -2.2709298  
C   -1.0644264    7.4068383   -4.7026268  
C   -1.1808062    8.2069456   -5.9104427  
O   -1.4202090    7.7234920   -7.0091968  
C   -0.9909556    9.7531650   -5.7965631  
O   -1.0863479   10.4370936   -6.8067125  
C   -0.7055163   10.3284944   -4.4845523  
H   -0.1664077   10.7155228   -1.5516287  
H   -0.5756232   11.3998966   -4.4142026  
H   -0.2224869    8.3378829   -0.3336524  
H   -0.7067888    6.5596161   -2.0324519  
C    0.8681109    0.7263879    2.2709268  
C    0.6127770    0.5096195    3.5869401  
C   -0.4920590   -0.4175482    3.6542670  
C   -0.8620974   -0.7254003    2.2596025  
N    0.0000000    0.0000000    1.4700000  
C   -1.8641242   -1.5660088    1.8976294  
C   -2.6293522   -2.2103885    2.9520183  
O   -3.5512764   -2.9839180    2.7283916  
C   -2.2549728   -1.8987399    4.4361073  
O   -2.8923672   -2.4351063    5.3323774  
C   -1.1543735   -0.9755647    4.7012123  
H    1.1382914    0.9492124    4.4159191  
H   -2.1192137   -1.7782617    0.8686553  
H   -0.9013378   -0.7652422    5.7314848  
H    1.6172880    1.3558399    1.8188057  
