58

C    2.8285899   -0.7061765   -3.3536583  
C    1.6707635   -0.0012348   -3.2725971  
C    1.5413726    0.7389929   -4.5055435  
C    2.7272134    0.4051002   -5.3173858  
N    3.4676731   -0.4749406   -4.5623111  
C    2.9765558    0.9026373   -6.5551213  
C    2.0127657    1.8289686   -7.1256949  
O    2.1473180    2.3316723   -8.2336141  
C    0.7497775    2.1968602   -6.2834825  
O   -0.0684722    2.9759513   -6.7533181  
C    0.5906503    1.5958912   -4.9616029  
H   -0.2866833    1.8556401   -4.3849398  
H    3.2688580   -1.3749906   -2.6320341  
H    4.3372610   -0.8874295   -4.8464184  
C    1.0965516    0.0001357   -0.8010304  
C    0.0000000    0.0000000    0.0000000  
C   -1.1546566    0.0001468   -0.8669507  
C   -0.6372021    0.0003518   -2.2486277  
N    0.7342865    0.0007335   -2.1395009  
C   -1.4147744    0.0001349   -3.3608711  
C   -2.8576057   -0.0001054   -3.1854455  
O   -3.6427784   -0.0002500   -4.1244898  
C   -3.4275844   -0.0000728   -1.7311659  
O   -4.6406834    0.0000332   -1.5710049  
C   -2.4891870   -0.0001091   -0.6116736  
H   -1.0150456    0.0001609   -4.3654240  
H   -2.8919124   -0.0002917    0.3920870  
H    2.1388270    0.0000661   -0.5261647  
C    5.1357543   -2.9010491   -7.1603171  
C    4.2591607   -1.9432471   -6.7624803  
C    4.6723761   -0.7087579   -7.3870798  
C    5.8701319   -1.0281656   -8.1871737  
N    6.0987855   -2.3727890   -8.0066333  
C    6.5609883   -0.1271141   -8.9304965  
C    6.0938242    1.2491600   -8.9431960  
O    6.6476898    2.1347263   -9.5814005  
C    4.8274796    1.6099751   -8.1029635  
O    4.4249824    2.7655048   -8.1056687  
C    4.1675967    0.5519208   -7.3420904  
H    3.4190718   -2.0852705   -6.1062079  
H    7.4371277   -0.3821716   -9.5103559  
H    5.1593847   -3.9483283   -6.9062743  
H    6.8484553   -2.8910097   -8.4267412  
C    2.3971438    2.0127888    3.1728260  
C    1.9431056    1.6308205    1.9564670  
C    0.8496017    0.7127664    2.2356185  
C    0.7794028    0.6545384    3.7115134  
N    1.6840587    1.4146091    4.2663826  
C   -0.1885723   -0.1578550    4.3957118  
C   -1.0476298   -0.8789867    3.6398520  
O   -2.0015663   -1.6796266    4.1448486  
C   -1.0022026   -0.8410666    2.1483229  
O   -1.8147390   -1.5232959    1.5241687  
C    0.0000000    0.0000000    1.4700000  
H    2.3054237    1.9346118    0.9892483  
H   -0.2170646   -0.1815267    5.4753125  
H   -2.4487139   -2.0549881    3.3649027  
H    3.2048689    2.6911772    3.3971983  
