60

C   -3.3040222    0.0260821   -1.5420461  
C   -2.5844514    0.0209719   -0.3695876  
C   -1.2039617    0.0095477   -0.7283601  
C   -1.1422038    0.0084534   -2.1454382  
N   -2.4348053    0.0166962   -2.6077486  
C    0.0655129   -0.0013994   -2.8497918  
C    1.2321389   -0.0100031   -2.1101387  
O    2.4392062   -0.0194570   -2.7472495  
C    1.1910842   -0.0094442   -0.6955253  
O    2.4370783   -0.0190933   -0.1032838  
C    0.0000000    0.0000000    0.0000000  
H   -3.0030586    0.0238794    0.6222555  
H   -2.7053174    0.0285623   -3.5745283  
H    0.1193428   -0.0024310   -3.9297466  
H    3.1132037   -0.0246221   -2.0551756  
H    2.3199585   -0.0179895    0.8516431  
C   -6.7368683    0.0542468    1.2348599  
C   -5.4908391    0.0442340    0.6950580  
C   -5.6535658    0.0445977   -0.7396389  
C   -7.1069579    0.0557522   -0.9932493  
N   -7.7074696    0.0607907    0.2445919  
C   -7.6721571    0.0597720   -2.2270394  
C   -6.7901660    0.0524099   -3.3822762  
O   -7.2021785    0.0551897   -4.5348989  
C   -5.2475743    0.0403079   -3.1371835  
O   -4.4950970    0.0337275   -4.1020646  
C   -4.7575741    0.0372131   -1.7610503  
H   -4.5635470    0.0371935    1.2397535  
H   -8.7407573    0.0681098   -2.3911547  
H   -7.0277390    0.0571791    2.2727790  
C   -9.8440752    0.7675784    1.4169779  
C   -9.1587276    0.0743652    0.4781841  
C  -10.1734852   -0.6625925   -0.2591495  
C  -11.4497817   -0.2862866    0.3858667  
N  -11.2630019    0.5518916    1.3690046  
C  -12.7111294   -0.8115899   -0.0592681  
C  -12.6980896   -1.6733379   -1.1016474  
O  -13.8005072   -2.2401558   -1.6207170  
C  -11.4264002   -2.0722408   -1.7738413  
O  -11.4895270   -2.8611330   -2.7166482  
C  -10.1454489   -1.5196908   -1.2986816  
H  -13.6284376   -0.5194857    0.4307630  
H  -13.4725889   -2.8008321   -2.3468467  
H   -9.2466642   -1.8334990   -1.8124334  
H   -9.4521812    1.4370897    2.1660755  
C    0.8400945    0.7047457    2.2710304  
C    0.0000000    0.0000000    1.4700000  
C   -0.8844236   -0.7423113    2.3369512  
C   -0.4878984   -0.4098547    3.7186280  
N    0.5629682    0.4714286    3.6095011  
C   -1.0836927   -0.9095027    4.8308716  
C   -2.1891196   -1.8367527    4.6554461  
O   -2.7906899   -2.3413415    5.5944904  
C   -2.6257283   -2.2031529    3.2011665  
O   -3.5549479   -2.9829990    3.0410059  
C   -1.9068976   -1.5999348    2.0816745  
H   -0.7774656   -0.6525820    5.8354244  
H   -2.2155208   -1.8586617    1.0779135  
H    1.6384792    1.3747609    1.9961646  
H    1.0518368    0.8833920    4.3830260  
