58

C   -3.9842539    0.7274599   -1.9451209  
C   -5.3215327    0.5112356   -2.0400278  
C   -5.5219228   -0.4153214   -3.1291425  
C   -4.1821622   -0.7234085   -3.6647869  
N   -3.2941077    0.0012869   -2.9038234  
C   -3.9439561   -1.5635947   -4.7035602  
C   -5.0831561   -2.2072390   -5.3363959  
O   -4.9726043   -2.9803461   -6.2789380  
C   -6.5111636   -1.8953301   -4.7856585  
O   -7.4779449   -2.4310782   -5.3106038  
C   -6.6412928   -0.9726601   -3.6606705  
H   -2.9533236   -1.7760304   -5.0809562  
H   -7.6334625   -0.7621531   -3.2851578  
H   -3.4448692    1.3563720   -1.2556112  
C    0.0000000    0.0000000    0.0000000  
C    1.0541686   -0.0001723   -0.8560392  
C    0.5103131   -0.0000457   -2.1935955  
C   -0.9576376    0.0002457   -2.0455728  
N   -1.2018463   -0.0001391   -0.6915967  
C   -1.8348316    0.0008313   -3.0810606  
C   -1.2972858    0.0009730   -4.4314603  
O   -2.0050684    0.0014259   -5.4301316  
C    0.2542618    0.0004177   -4.6117574  
O    0.7184662    0.0002248   -5.7439123  
C    1.0974548    0.0000868   -3.4189132  
H    2.0940753   -0.0005485   -0.5817987  
H    2.1707274   -0.0000914   -3.5523672  
H   -2.1128195    0.0014912   -0.2706788  
C   -5.8350867    4.5710654   -0.3815714  
C   -5.3732519    3.4727433   -1.0330868  
C   -6.3190049    2.4094645   -0.7884954  
C   -7.3772872    2.9824767    0.0650184  
N   -7.0245254    4.2955075    0.2757284  
C   -8.4568069    2.2953547    0.5169094  
C   -8.5848153    0.8981442    0.1374992  
O   -9.5207187    0.1942431    0.4937419  
C   -7.4756212    0.2705896   -0.7656448  
O   -7.5724838   -0.9049262   -1.0912832  
C   -6.3595340    1.1120644   -1.1900524  
H   -4.4727267    3.4140670   -1.6180871  
H   -9.2218195    2.7346117    1.1419841  
H   -5.4064725    5.5585404   -0.3261371  
H   -7.5511673    4.9529450    0.8211385  
C    1.0672568    0.0000697    2.3021913  
C    0.0000000    0.0000000    1.4700000  
C   -1.1601224    0.0000736    2.3478473  
C   -0.5938729    0.0000769    3.7138435  
N    0.7113367    0.0001554    3.6934124  
C   -1.4286986    0.0001879    4.8835240  
C   -2.7683114    0.0006799    4.6970523  
O   -3.6653903    0.0008304    5.6976972  
C   -3.3702025    0.0010610    3.3310774  
O   -4.5974910    0.0013779    3.2362962  
C   -2.4926826    0.0008943    2.1470656  
H   -0.9878360   -0.0000190    5.8697035  
H   -4.5324246    0.0012261    5.2533954  
H   -2.9677772    0.0012974    1.1752040  
H    2.1134392    0.0000545    2.0405121  
