64

C   -1.0600880    0.3578720   -0.8003809  
C    0.0000000    0.0000000    0.0000000  
C    1.0723465   -0.3638283   -0.8673532  
C    0.6039544   -0.2064601   -2.1969283  
N   -0.6949886    0.2311254   -2.1202243  
C    1.3982713   -0.4760683   -3.3154816  
C    2.6890373   -0.9121986   -3.0876864  
O    3.5076868   -1.1896025   -4.1440359  
C    3.1744724   -1.0757325   -1.7684340  
O    4.4800566   -1.5173848   -1.7073138  
C    2.3913294   -0.8102044   -0.6644828  
H    1.0471682   -0.3582738   -4.3313815  
H    4.3508854   -1.4746720   -3.7685146  
H    4.7297315   -1.6013374   -0.7819926  
H    2.7906098   -0.9449513    0.3339647  
H   -2.0482056    0.6921376   -0.5342067  
C   -3.6619622    3.4892605   -2.8760568  
C   -2.7122822    2.6722983   -2.3075956  
C   -2.4221189    1.6479635   -3.2568813  
C   -3.2317754    1.8939913   -4.3952368  
N   -3.9736962    3.0181772   -4.1299509  
C   -3.2069868    1.0793735   -5.5312701  
C   -2.3490069   -0.0031571   -5.5180174  
O   -2.2847068   -0.8310567   -6.6012813  
C   -1.5335498   -0.2653645   -4.3914763  
O   -0.7335736   -1.3805686   -4.5318412  
C   -1.5576823    0.5376962   -3.2702998  
H   -2.2824358    2.7984258   -1.3286589  
H   -4.6322440    3.4407172   -4.7590424  
H   -3.8216741    1.2614028   -6.4020326  
H   -1.6337897   -1.5117954   -6.3864163  
H   -0.2155420   -1.4863912   -3.7280697  
C   -4.0862493    5.2363039   -1.1017243  
C   -4.8854870    6.3435556   -0.9353525  
C   -5.6494513    6.4890701   -2.1310881  
C   -5.2705465    5.4324777   -2.9982499  
N   -4.3183509    4.6917492   -2.3430693  
C   -5.8239837    5.2633054   -4.2709935  
C   -6.7775101    6.1772321   -4.6755955  
O   -7.3506265    6.0586758   -5.9086804  
C   -7.1684717    7.2384312   -3.8248176  
O   -8.1282990    8.0647138   -4.3719302  
C   -6.6227178    7.4060934   -2.5692029  
H   -4.9135308    6.9700276   -0.0602869  
H   -5.5393812    4.4602062   -4.9367524  
H   -7.9793513    6.7877519   -5.9887913  
H   -8.3358844    8.7540166   -3.7336725  
H   -6.9419257    8.2286928   -1.9399853  
H   -3.3679553    4.7927468   -0.4336901  
C    0.8400945    0.7047457    2.2710304  
C    0.0000000    0.0000000    1.4700000  
C   -0.8844236   -0.7423113    2.3369512  
C   -0.4878984   -0.4098547    3.7186280  
N    0.5629682    0.4714286    3.6095011  
C   -1.0836927   -0.9095027    4.8308716  
C   -2.1891196   -1.8367527    4.6554461  
O   -2.7906899   -2.3413415    5.5944904  
C   -2.6257283   -2.2031529    3.2011665  
O   -3.5549479   -2.9829990    3.0410059  
C   -1.9068976   -1.5999348    2.0816745  
H   -0.7774656   -0.6525820    5.8354244  
H   -2.2155208   -1.8586617    1.0779135  
H    1.6384792    1.3747609    1.9961646  
H    1.0518368    0.8833920    4.3830260  
