58

C   -1.6707550   -0.0052790   -3.2725979  
C   -3.0286655   -0.0094080   -3.2608764  
C   -3.4615599   -0.0093523   -4.6383517  
C   -2.2357511   -0.0048492   -5.4594259  
N   -1.1849511   -0.0021449   -4.5713372  
C   -2.2192680   -0.0038565   -6.8164197  
C   -3.4938976   -0.0072377   -7.5148776  
O   -3.5845446   -0.0066037   -8.7355676  
C   -4.8047042   -0.0117772   -6.6654252  
O   -5.8837673   -0.0143429   -7.2423793  
C   -4.6947328   -0.0127374   -5.2087997  
H   -3.6555270   -0.0119943   -2.3870056  
H   -5.6070385   -0.0160932   -4.6279299  
H   -0.2146101   -0.0004232   -4.8272340  
C   -1.0965420   -0.0044105   -0.8010306  
C    0.0000000    0.0000000    0.0000000  
C    1.1546486    0.0043540   -0.8669506  
C    0.6371989    0.0021318   -2.2486277  
N   -0.7342778   -0.0035965   -2.1395014  
C    1.4147648    0.0053794   -3.3608710  
C    2.8575838    0.0112439   -3.1854449  
O    3.6427509    0.0144491   -4.1244887  
C    3.4275582    0.0134337   -1.7311654  
O    4.6406489    0.0180569   -1.5710035  
C    2.4891675    0.0098124   -0.6116734  
H    1.0150397    0.0037948   -4.3654240  
H    2.8918892    0.0115652    0.3920878  
H   -2.1388102   -0.0084040   -0.5261654  
C    0.1482944   -0.7010028   -7.3347252  
C   -0.9815340    0.0004885   -7.6094491  
C   -0.7309576    0.7444286   -8.8213075  
C    0.6473401    0.4164744   -9.2330497  
N    1.1250653   -0.4640221   -8.2899728  
C    1.2609016    0.9187810  -10.3343831  
C    0.5140099    1.8443455  -11.1698579  
O    0.9786068    2.3510749  -12.1826152  
C   -0.9471474    2.2059864  -10.7526746  
O   -1.5856759    2.9843783  -11.4481222  
C   -1.5001197    1.6002182   -9.5439075  
H    2.2727178    0.6651528  -10.6186541  
H   -2.5125680    1.8556524   -9.2620801  
H    0.3496146   -1.3709876   -6.5146763  
H    2.0413619   -0.8731830   -8.2959352  
C    2.3971438    2.0127888    3.1728260  
C    1.9431056    1.6308205    1.9564670  
C    0.8496017    0.7127664    2.2356185  
C    0.7794028    0.6545384    3.7115134  
N    1.6840587    1.4146091    4.2663826  
C   -0.1885723   -0.1578550    4.3957118  
C   -1.0476298   -0.8789867    3.6398520  
O   -2.0015663   -1.6796266    4.1448486  
C   -1.0022026   -0.8410666    2.1483229  
O   -1.8147390   -1.5232959    1.5241687  
C    0.0000000    0.0000000    1.4700000  
H    2.3054237    1.9346118    0.9892483  
H   -0.2170646   -0.1815267    5.4753125  
H   -2.4487139   -2.0549881    3.3649027  
H    3.2048689    2.6911772    3.3971983  
