58

C    2.0905308   -3.0594463   -9.0037205  
C    1.7615142   -1.8478837   -8.4860921  
C    1.7561248   -0.9088730   -9.5829354  
C    2.1114915   -1.6782110  -10.7906699  
N    2.3018548   -2.9747349  -10.3715306  
C    2.2128372   -1.1499734  -12.0366236  
C    1.9549032    0.2711749  -12.1989288  
O    2.0206379    0.8408363  -13.2803483  
C    1.5771921    1.1053346  -10.9334973  
O    1.3581015    2.3027570  -11.0577527  
C    1.4989859    0.4239125   -9.6437691  
H    2.4747188   -1.7319435  -12.9093428  
H    1.2366481    1.0085758   -8.7725225  
H    2.1966108   -4.0070267   -8.5010005  
H    2.5533673   -3.7417203  -10.9677874  
C    2.1451926   -2.0951771   -5.9900948  
C    1.6340471   -1.6323753   -4.8202147  
C    0.5538823   -0.7357923   -5.1581773  
C    0.4770632   -0.7140558   -6.6314107  
N    1.4686355   -1.5584201   -7.0749457  
C   -0.4180300    0.0158494   -7.3439773  
C   -1.3690899    0.8348540   -6.6110028  
O   -2.2145431    1.5279312   -7.1615954  
C   -1.3057475    0.8272853   -5.0503184  
O   -2.1011642    1.5130918   -4.4224310  
C   -0.2963293   -0.0005341   -4.3948471  
H    1.9749143   -1.8895633   -3.8331594  
H   -0.4575588    0.0175261   -8.4244138  
H    2.9593495   -2.7830349   -6.1509984  
C    3.1301146   -0.0010313   -1.7028256  
C    2.5367765   -0.0002766   -0.4864669  
C    1.1089901    0.0001027   -0.7656184  
C    1.0177865   -0.0004150   -2.2415133  
N    2.1993571   -0.0011612   -2.7963824  
C   -0.2459219   -0.0002879   -2.9257116  
C   -1.3675326   -0.0000606   -2.1698520  
O   -2.6129318    0.0000865   -2.6748483  
C   -1.3083588    0.0000910   -0.6783229  
O   -2.3693264    0.0004206   -0.0541685  
C    0.0000000    0.0000000    0.0000000  
H    3.0096016   -0.0001007    0.4807518  
H   -3.1967444    0.0002093   -1.8949026  
H    4.1849275   -0.0015114   -1.9271979  
C    2.5128556    2.1077716    2.9199648  
C    1.9592212    1.6432552    4.0696553  
C    0.8915788    0.7479214    3.6910360  
C    0.8684491    0.7287414    2.2159470  
N    1.8754542    1.5738793    1.8102719  
C    0.0000000    0.0000000    1.4700000  
C   -0.9772830   -0.8200135    2.1664417  
O   -1.8021297   -1.5120829    1.5842315  
C   -0.9711318   -0.8147624    3.7284083  
O   -1.7894187   -1.5009653    4.3257297  
C    0.0140216    0.0115358    4.4216297  
H    2.2638494    1.8988021    5.0689105  
H    0.0117648    0.0094386    5.5031631  
H    3.3327358    2.7953732    2.7900019  
H    2.1123206    1.7707734    0.8551938  
