58

C    9.8335368    0.7195455   -0.6610249  
C   11.1738740    0.5014813   -0.6563595  
C   11.4458839   -0.4252782    0.4169354  
C   10.1448174   -0.7314788    1.0416412  
N    9.2085264   -0.0056090    0.3420965  
C    9.9759567   -1.5712647    2.0942332  
C   11.1543053   -2.2164389    2.6490143  
O   11.1064193   -2.9893289    3.5969855  
C   12.5424070   -1.9065395    2.0033062  
O   13.5416098   -2.4435865    2.4620359  
C   12.5977432   -0.9841260    0.8719603  
H   11.8902801    0.9399598   -1.3280084  
H    9.0126990   -1.7823072    2.5375220  
H   13.5626591   -0.7750145    0.4304473  
H    9.2498052    1.3491552   -1.3127443  
C    5.6706431   -0.0000128   -2.2998307  
C    6.9366747   -0.0017195   -1.8086715  
C    6.8296106   -0.0022717   -0.3687505  
C    5.3870842   -0.0007650   -0.0590649  
N    4.7390840    0.0009613   -1.2727298  
C    4.8700564   -0.0011572    1.1956807  
C    5.7961368   -0.0029737    2.3159068  
O    5.4290435   -0.0033984    3.4836152  
C    7.3281312   -0.0043376    2.0112791  
O    8.1174245   -0.0055641    2.9463061  
C    7.7645008   -0.0040378    0.6172084  
H    7.8422116   -0.0023200   -2.3888570  
H    3.8085782   -0.0001604    1.4010419  
H    5.3397979    0.0008321   -3.3257109  
C    3.2798077    0.0005856   -1.4499661  
C    2.5571132    0.0005565   -2.5996564  
C    1.1637425    0.0001547   -2.2210366  
C    1.1336959   -0.0000200   -0.7459475  
N    2.4483509   -0.0001429   -0.3402730  
C    0.0000000    0.0000000    0.0000000  
C   -1.2757370   -0.0000187   -0.6964411  
O   -2.3524597   -0.0000640   -0.1142306  
C   -1.2676502   -0.0000874   -2.2584078  
O   -2.3355774   -0.0004102   -2.8557287  
C    0.0181551    0.0001758   -2.9516297  
H    2.9547342    0.0006074   -3.5989118  
H    0.0150776    0.0003317   -4.0331632  
H    2.7563626    0.0012823    0.6148051  
C    2.5128556    2.1077716    2.9199648  
C    1.9592212    1.6432552    4.0696553  
C    0.8915788    0.7479214    3.6910360  
C    0.8684491    0.7287414    2.2159470  
N    1.8754542    1.5738793    1.8102719  
C    0.0000000    0.0000000    1.4700000  
C   -0.9772830   -0.8200135    2.1664417  
O   -1.8021297   -1.5120829    1.5842315  
C   -0.9711318   -0.8147624    3.7284083  
O   -1.7894187   -1.5009653    4.3257297  
C    0.0140216    0.0115358    4.4216297  
H    2.2638494    1.8988021    5.0689105  
H    0.0117648    0.0094386    5.5031631  
H    3.3327358    2.7953732    2.7900019  
H    2.1123206    1.7707734    0.8551938  
