64

C    2.3027755   -2.1230396   -5.9144744  
C    1.6515184   -1.6244168   -7.0188779  
C    0.6310524   -0.7498916   -6.5409088  
C    0.7085809   -0.7546403   -5.1246134  
N    1.7328874   -1.6001003   -4.7773237  
C   -0.1496415   -0.0015615   -4.3176961  
C   -1.1033075    0.7706086   -4.9520874  
O   -1.9667115    1.5256559   -4.2121874  
C   -1.1966333    0.7882862   -6.3641049  
O   -2.1980387    1.6065087   -6.8447736  
C   -0.3504838    0.0453975   -7.1607693  
H    2.0305490   -1.7962856   -3.8387663  
H   -2.5411491    1.9798214   -4.8422822  
H   -2.1929071    1.5610733   -7.8057700  
H   -0.4460584    0.0789894   -8.2397570  
H    3.1277800   -2.8114387   -5.8478920  
C    2.3102529   -3.1946221   -8.8915795  
C    1.9672103   -1.9497154   -8.4172413  
C    1.9819171   -1.0606155   -9.5325371  
C    2.3437282   -1.8262599  -10.6704334  
N    2.5377723   -3.1172094  -10.2456812  
C    2.4569588   -1.2729768  -11.9494348  
C    2.1999711    0.0777659  -12.0822079  
O    2.2955519    0.6691159  -13.3086588  
C    1.8379811    0.8584964  -10.9587124  
O    1.6148449    2.1875391  -11.2540075  
C    1.7263487    0.3133901   -9.6966017  
H    2.7925278   -3.8897018  -10.8341841  
H    2.7324513   -1.8510771  -12.8207012  
H    2.0791285    1.6017458  -13.1797147  
H    1.3755262    2.6436275  -10.4414114  
H    1.4474218    0.9364965   -8.8549268  
H    2.4120297   -4.1313581   -8.3708819  
C    3.3003543    0.0005276   -1.4738987  
C    2.5232814    0.0003497   -2.6090747  
C    1.1623200   -0.0001320   -2.1820103  
C    1.1711883    0.0000582   -0.7636140  
N    2.4852300   -0.0014919   -0.3662360  
C    0.0000000    0.0000000    0.0000000  
C   -1.2020384    0.0000519   -0.6806477  
O   -2.3759249    0.0003493    0.0157743  
C   -1.2314656   -0.0005115   -2.0955510  
O   -2.5054392   -0.0008039   -2.6250180  
C   -0.0764516   -0.0007274   -2.8495195  
H    2.8919955   -0.0005620   -3.6205304  
H    2.8036267    0.0088183    0.5858662  
H   -3.0835638    0.0000347   -0.6418818  
H   -2.4360047   -0.0011529   -3.5845921  
H    4.3715549    0.0004895   -1.3667136  
C    0.8681109    0.7263879    2.2709268  
C    0.6127770    0.5096195    3.5869401  
C   -0.4920590   -0.4175482    3.6542670  
C   -0.8620974   -0.7254003    2.2596025  
N    0.0000000    0.0000000    1.4700000  
C   -1.8641242   -1.5660088    1.8976294  
C   -2.6293522   -2.2103885    2.9520183  
O   -3.5512764   -2.9839180    2.7283916  
C   -2.2549728   -1.8987399    4.4361073  
O   -2.8923672   -2.4351063    5.3323774  
C   -1.1543735   -0.9755647    4.7012123  
H    1.1382914    0.9492124    4.4159191  
H   -2.1192137   -1.7782617    0.8686553  
H   -0.9013378   -0.7652422    5.7314848  
H    1.6172880    1.3558399    1.8188057  
