58

C    3.9135206   -0.7081242   -4.5250692  
C    2.8699641   -0.0020530   -4.0185824  
C    2.2916399    0.7390436   -5.1145536  
C    3.0895145    0.4044299   -6.3096355  
N    4.0568590   -0.4768157   -5.8847345  
C    2.8606213    0.9024535   -7.5511208  
C    1.7547618    1.8301066   -7.7216198  
O    1.4676781    2.3333360   -8.7998803  
C    0.8966360    2.1987798   -6.4696194  
O   -0.0368095    2.9789835   -6.6008450  
C    1.2404686    1.5971817   -5.1836520  
H    3.4577921    0.6439621   -8.4145320  
H    0.6412574    1.8574784   -4.3217267  
H    4.5900518   -1.3778175   -4.0193959  
C    5.7284576   -4.5350986   -6.0241490  
C    6.6123595   -4.3791603   -7.0432054  
C    6.5039714   -3.0099915   -7.4886996  
C    5.4771275   -2.3764969   -6.6395438  
N    5.0462819   -3.3543210   -5.7728708  
C    5.0833961   -1.0820961   -6.7454068  
C    5.7128254   -0.2579253   -7.7637854  
O    5.4269988    0.9194244   -7.9382893  
C    6.8026301   -0.9081350   -8.6744783  
O    7.3393159   -0.2241979   -9.5355579  
C    7.1426797   -2.3132095   -8.4647551  
H    7.2655985   -5.1368524   -7.4379137  
H    7.8983967   -2.7558157   -9.0993544  
H    5.5178681   -5.4133314   -5.4357202  
H    4.3457851   -3.2289027   -5.0653249  
C    3.2573670   -0.0002921   -1.5109382  
C    2.5379468   -0.0001711   -0.3591962  
C    1.1435043    0.0000330   -0.7338498  
C    1.1092608   -0.0000085   -2.2088474  
N    2.4227562    0.0001906   -2.6182610  
C   -0.0265533   -0.0002525   -2.9515663  
C   -1.3003033   -0.0002641   -2.2514979  
O   -2.3786785   -0.0004132   -2.8306425  
C   -1.2877724    0.0000310   -0.6895608  
O   -2.3539956    0.0003306   -0.0892035  
C    0.0000000    0.0000000    0.0000000  
H    2.9384091   -0.0000370    0.6389240  
H   -0.0296290   -0.0004088   -4.0327231  
H    4.3270394   -0.0004767   -1.6439445  
C    2.4951002    2.0940188    2.9809380  
C    1.9440701    1.6314916    1.8291961  
C    0.8759964    0.7350050    2.2038498  
C    0.8497377    0.7130254    3.6788474  
N    1.8560616    1.5571714    4.0882609  
C   -0.0205033   -0.0168748    4.4215661  
C   -0.9962600   -0.8356168    3.7214979  
O   -1.8224391   -1.5286685    4.3006425  
C   -0.9864710   -0.8277881    2.1595606  
O   -1.8030528   -1.5133726    1.5592035  
C    0.0000000    0.0000000    1.4700000  
H    2.2509283    1.8888011    0.8310761  
H   -0.0229599   -0.0187323    5.5027230  
H    3.3143982    2.7817323    3.1139444  
H    2.0889452    1.7545833    5.0442112  
