64

C    2.3027750   -2.1230394   -5.9144743  
C    1.6515182   -1.6244167   -7.0188784  
C    0.6310522   -0.7498916   -6.5409088  
C    0.7085809   -0.7546405   -5.1246134  
N    1.7328874   -1.6001003   -4.7773242  
C   -0.1496415   -0.0015615   -4.3176961  
C   -1.1033074    0.7706085   -4.9520869  
O   -1.9667112    1.5256558   -4.2121874  
C   -1.1966333    0.7882861   -6.3641049  
O   -2.1980387    1.6065087   -6.8447736  
C   -0.3504839    0.0453976   -7.1607688  
H    1.8827173   -1.8626514   -8.0429797  
H    2.0305491   -1.7962858   -3.8387665  
H   -2.5411493    1.9798215   -4.8422822  
H   -2.1929078    1.5610739   -7.8057695  
H   -0.4460588    0.0789897   -8.2397570  
C    4.6483831   -4.2166036   -9.0247795  
C    5.4972587   -4.8927483   -8.1793776  
C    5.1332131   -4.5324137   -6.8481264  
C    4.0463569   -3.6261330   -6.9446923  
N    3.7786240   -3.4547265   -8.2801914  
C    3.4292971   -3.0630302   -5.8235581  
C    3.9181245   -3.4215754   -4.5823203  
O    3.3522547   -2.9015387   -3.4543277  
C    5.0019826   -4.3240238   -4.4654729  
O    5.3732154   -4.5810408   -3.1618346  
C    5.6113863   -4.8797165   -5.5710770  
H    6.2830097   -5.5623626   -8.4846753  
H    3.0510455   -2.8741303   -8.6563803  
H    3.8371675   -3.2766622   -2.7077308  
H    6.1106923   -5.1988048   -3.1717647  
H    6.4397906   -5.5679339   -5.4503251  
H    4.5954503   -4.2164169  -10.1000264  
C    3.3003543    0.0005276   -1.4738987  
C    2.5232814    0.0003497   -2.6090747  
C    1.1623200   -0.0001320   -2.1820103  
C    1.1711883    0.0000582   -0.7636140  
N    2.4852300   -0.0014919   -0.3662360  
C    0.0000000    0.0000000    0.0000000  
C   -1.2020384    0.0000519   -0.6806477  
O   -2.3759249    0.0003493    0.0157743  
C   -1.2314656   -0.0005115   -2.0955510  
O   -2.5054392   -0.0008039   -2.6250180  
C   -0.0764516   -0.0007274   -2.8495195  
H    2.8919955   -0.0005620   -3.6205304  
H    2.8036267    0.0088183    0.5858662  
H   -3.0835638    0.0000347   -0.6418818  
H   -2.4360047   -0.0011529   -3.5845921  
H    4.3715549    0.0004895   -1.3667136  
C    0.8400945    0.7047457    2.2710304  
C    0.0000000    0.0000000    1.4700000  
C   -0.8844236   -0.7423113    2.3369512  
C   -0.4878984   -0.4098547    3.7186280  
N    0.5629682    0.4714286    3.6095011  
C   -1.0836927   -0.9095027    4.8308716  
C   -2.1891196   -1.8367527    4.6554461  
O   -2.7906899   -2.3413415    5.5944904  
C   -2.6257283   -2.2031529    3.2011665  
O   -3.5549479   -2.9829990    3.0410059  
C   -1.9068976   -1.5999348    2.0816745  
H   -0.7774656   -0.6525820    5.8354244  
H   -2.2155208   -1.8586617    1.0779135  
H    1.6384792    1.3747609    1.9961646  
H    1.0518368    0.8833920    4.3830260  
