64

C   -3.3040214    0.0264882   -1.5420423  
C   -2.5844501    0.0212895   -0.3695849  
C   -1.2039619    0.0096957   -0.7283587  
C   -1.1422058    0.0085939   -2.1454373  
N   -2.4348070    0.0169954   -2.6077462  
C    0.0655084   -0.0014075   -2.8497918  
C    1.2321345   -0.0101545   -2.1101399  
O    2.4392004   -0.0197567   -2.7472523  
C    1.1910818   -0.0095906   -0.6955266  
O    2.4370746   -0.0193929   -0.1032865  
C    0.0000000    0.0000000    0.0000000  
H   -3.0030554    0.0242485    0.6222587  
H   -2.7053185    0.0288948   -3.5745256  
H    0.1193383   -0.0024456   -3.9297471  
H    3.1131983   -0.0250046   -2.0551791  
H    2.3199563   -0.0182746    0.8516405  
C   -5.7082278    0.0289584   -0.7673025  
C   -6.9603017    0.0273313   -1.3371933  
C   -6.7740977    0.0338077   -2.7513664  
C   -5.3753896    0.0389661   -2.9869807  
N   -4.7575722    0.0377978   -1.7610452  
C   -4.8249743    0.0456850   -4.2721993  
C   -5.7025327    0.0469176   -5.3390020  
O   -5.2187679    0.0530348   -6.6153040  
C   -7.1013436    0.0422116   -5.1242398  
O   -7.8423769    0.0445930   -6.2879439  
C   -7.6450452    0.0358557   -3.8566137  
H   -3.7598515    0.0497842   -4.4584755  
H   -5.9885022    0.0531314   -7.1990611  
H   -8.7756364    0.0410812   -6.0542398  
H   -8.7205425    0.0325406   -3.7232980  
H   -5.4180959    0.0259586    0.2694103  
C   -8.3113703    2.1344915    2.3674187  
C   -7.5698004    1.6779916    1.3024543  
C   -8.4064323    0.7909984    0.5622584  
C   -9.6576150    0.7455215    1.2288929  
N   -9.5651097    1.5711034    2.3218131  
C  -10.7279239   -0.0318414    0.7761964  
C  -10.5316945   -0.7766325   -0.3705196  
O  -11.5436193   -1.5530197   -0.8565700  
C   -9.2904168   -0.7447286   -1.0495109  
O   -9.2520174   -1.5412988   -2.1752751  
C   -8.2340049    0.0217216   -0.6033340  
H   -6.5507963    1.9498946    1.0863686  
H  -10.3028408    1.7483926    2.9793104  
H  -11.6839809   -0.0709490    1.2798107  
H  -11.2007903   -1.9824488   -1.6511282  
H   -8.3800444   -1.4624152   -2.5740784  
H   -8.0447062    2.8162820    3.1567293  
C    0.8681109    0.7263879    2.2709268  
C    0.6127770    0.5096195    3.5869401  
C   -0.4920590   -0.4175482    3.6542670  
C   -0.8620974   -0.7254003    2.2596025  
N    0.0000000    0.0000000    1.4700000  
C   -1.8641242   -1.5660088    1.8976294  
C   -2.6293522   -2.2103885    2.9520183  
O   -3.5512764   -2.9839180    2.7283916  
C   -2.2549728   -1.8987399    4.4361073  
O   -2.8923672   -2.4351063    5.3323774  
C   -1.1543735   -0.9755647    4.7012123  
H    1.1382914    0.9492124    4.4159191  
H   -2.1192137   -1.7782617    0.8686553  
H   -0.9013378   -0.7652422    5.7314848  
H    1.6172880    1.3558399    1.8188057  
