58

C    1.0965508    0.0001356   -0.8010304  
C    0.0000000    0.0000000    0.0000000  
C   -1.1546573    0.0001468   -0.8669500  
C   -0.6372028    0.0003516   -2.2486272  
N    0.7342859    0.0007336   -2.1395009  
C   -1.4147758    0.0001350   -3.3608706  
C   -2.8576066   -0.0001052   -3.1854445  
O   -3.6427802   -0.0002499   -4.1244889  
C   -3.4275856   -0.0000729   -1.7311647  
O   -4.6406840    0.0000328   -1.5710034  
C   -2.4891870   -0.0001095   -0.6116733  
H   -1.0150469    0.0001612   -4.3654236  
H   -2.8919124   -0.0002920    0.3920876  
H    2.1388268    0.0000663   -0.5261649  
C    4.4892964   -2.1441338   -2.6751670  
C    4.8760691   -1.7381812   -3.9069090  
C    3.8307824   -0.8270018   -4.3469401  
C    2.8653290   -0.7987569   -3.2272592  
N    3.2460484   -1.5688474   -2.2444047  
C    1.6707625   -0.0012345   -3.2725975  
C    1.4508800    0.7349192   -4.3857302  
O    0.3779831    1.5243966   -4.5636595  
C    2.4065700    0.7278580   -5.5323630  
O    2.1425146    1.4222294   -6.5138639  
C    3.6247965   -0.0985003   -5.4617881  
H    5.7614086   -2.0219348   -4.4498031  
H    0.5018282    1.9156217   -5.4472642  
H    4.2917507   -0.0759649   -6.3131961  
C    6.3505369   -3.7211529   -1.9766576  
C    5.1801884   -3.0737424   -1.7699618  
C    4.7458199   -3.4970817   -0.4476126  
C    5.8012428   -4.4252203    0.0119803  
N    6.7445936   -4.5604588   -0.8800900  
C    5.7415473   -5.0700229    1.2948487  
C    4.6761189   -4.7995977    2.0829270  
O    4.4915470   -5.3304048    3.3036715  
C    3.5948753   -3.8671307    1.6475215  
O    2.6544605   -3.6675788    2.4162992  
C    3.6789779   -3.2181559    0.3270353  
H    6.5268110   -5.7438924    1.6049623  
H    3.6499150   -4.9506709    3.6144931  
H    2.8755487   -2.5493031    0.0488860  
H    6.9913439   -3.6744863   -2.8427763  
C    2.4951002    2.0940188    2.9809380  
C    1.9440701    1.6314916    1.8291961  
C    0.8759964    0.7350050    2.2038498  
C    0.8497377    0.7130254    3.6788474  
N    1.8560616    1.5571714    4.0882609  
C   -0.0205033   -0.0168748    4.4215661  
C   -0.9962600   -0.8356168    3.7214979  
O   -1.8224391   -1.5286685    4.3006425  
C   -0.9864710   -0.8277881    2.1595606  
O   -1.8030528   -1.5133726    1.5592035  
C    0.0000000    0.0000000    1.4700000  
H    2.2509283    1.8888011    0.8310761  
H   -0.0229599   -0.0187323    5.5027230  
H    3.3143982    2.7817323    3.1139444  
H    2.0889452    1.7545833    5.0442112  
