58

C    1.1319248    0.0015676   -0.8009264  
C    0.7969916    0.0034960   -2.1169399  
C   -0.6453338    0.0035697   -2.1842669  
C   -1.1266832    0.0015408   -0.7896028  
N    0.0000000    0.0000000    0.0000000  
C   -2.4346133    0.0013914   -0.4276295  
C   -3.4350114    0.0031336   -1.4820180  
O   -4.6384612    0.0030875   -1.2583916  
C   -2.9478959    0.0050442   -2.9661077  
O   -3.7809376    0.0062135   -3.8623778  
C   -1.5113822    0.0053056   -3.2312124  
H    1.4821237    0.0045436   -2.9459189  
H   -2.7664564    0.0000174    0.6013440  
H    2.1104316    0.0009435   -0.3488055  
C   -0.0314511   -0.6768997   -5.1763403  
C   -1.0641735    0.0073884   -4.6315337  
C   -1.6445842    0.7536296   -5.7373126  
C   -0.8153932    0.3919060   -6.9070059  
N    0.1317520   -0.4464152   -6.5843234  
C   -1.0694267    0.9296198   -8.2152172  
C   -2.1049955    1.7893047   -8.3489091  
O   -2.4559516    2.3667292   -9.5105682  
C   -2.9604499    2.1736234   -7.1875921  
O   -3.8859683    2.9614356   -7.3824977  
C   -2.6795558    1.6085129   -5.8557990  
H   -3.2246978    2.9226232   -9.2888397  
H   -3.3225050    1.9119420   -5.0404604  
H    0.6531476   -1.3491381   -4.6840054  
C    0.2810285   -0.6761226   -9.6424465  
C   -0.2227558    0.5464488   -9.3541763  
C    0.2561341    1.4107544  -10.4219500  
C    1.0559129    0.5211359  -11.2911551  
N    1.0740761   -0.7034065  -10.8393200  
C    1.7103332    1.0028493  -12.4763853  
C    1.5717442    2.3136204  -12.7797117  
O    2.1273432    2.8980449  -13.8547919  
C    0.7708444    3.2367360  -11.9226362  
O    0.6877898    4.4178051  -12.2593852  
C    0.1091958    2.7185411  -10.7120086  
H    2.2886404    0.3304259  -13.0930839  
H    1.8511915    3.8307487  -13.8004189  
H   -0.4618117    3.4194467  -10.1179447  
H    0.1543651   -1.5936900   -9.0901780  
C    0.8681109    0.7263879    2.2709268  
C    0.6127770    0.5096195    3.5869401  
C   -0.4920590   -0.4175482    3.6542670  
C   -0.8620974   -0.7254003    2.2596025  
N    0.0000000    0.0000000    1.4700000  
C   -1.8641242   -1.5660088    1.8976294  
C   -2.6293522   -2.2103885    2.9520183  
O   -3.5512764   -2.9839180    2.7283916  
C   -2.2549728   -1.8987399    4.4361073  
O   -2.8923672   -2.4351063    5.3323774  
C   -1.1543735   -0.9755647    4.7012123  
H    1.1382914    0.9492124    4.4159191  
H   -2.1192137   -1.7782617    0.8686553  
H   -0.9013378   -0.7652422    5.7314848  
H    1.6172880    1.3558399    1.8188057  
