62

C    3.3041272    0.0001176   -1.5420426  
C    2.5845370   -0.0004780   -0.3695849  
C    1.2040006   -0.0000008   -0.7283588  
C    1.1422377    0.0006038   -2.1454369  
N    2.4348637    0.0026109   -2.6077460  
C   -0.0655181    0.0008799   -2.8497914  
C   -1.2321767    0.0002325   -2.1101399  
O   -2.4392818    0.0001148   -2.7472518  
C   -1.1911205   -0.0000008   -0.6955263  
O   -2.4371530   -0.0002319   -0.1032860  
C    0.0000000    0.0000000    0.0000000  
H    3.0031532   -0.0000662    0.6222586  
H    2.7054628   -0.0071099   -3.5745256  
H   -0.1193548    0.0014845   -3.9297467  
H   -3.1132990   -0.0000647   -2.0551782  
H   -2.3200288   -0.0004070    0.8516411  
C    6.7068649   -0.0034180    1.2828898  
C    7.7136022   -0.0021477    0.3453691  
C    7.0885453   -0.0007422   -0.9367781  
C    5.6873002   -0.0009464   -0.7166934  
N    5.4901250   -0.0045364    0.6418817  
C    4.7577218    0.0005127   -1.7610454  
C    5.2516915    0.0025159   -3.0510719  
O    4.3881533    0.0043527   -4.1081018  
C    6.6464203    0.0023762   -3.2909665  
O    6.9801796    0.0040999   -4.6296017  
C    7.5640508    0.0006640   -2.2611712  
H    8.7687020   -0.0033297    0.5592783  
H    4.5960834    0.0050495    1.0985860  
H    4.9330452    0.0052558   -4.9058215  
H    7.9393887    0.0039068   -4.7039027  
H    8.6263221    0.0004194   -2.4757839  
C   10.1086082   -0.0042430    4.0979509  
C    9.3327372   -0.0033646    2.9834572  
C    7.9586781   -0.0056091    3.4270713  
C    7.9979159   -0.0078543    4.9019425  
N    9.3301669   -0.0072946    5.2454524  
C    6.9004906   -0.0099398    5.7002890  
C    5.5934648   -0.0102017    5.0645076  
O    4.5452629   -0.0120720    5.6966230  
C    5.5282128   -0.0081005    3.5038847  
O    4.4334215   -0.0086071    2.9573569  
C    6.7800550   -0.0056608    2.7510650  
H    9.6830070   -0.0015540    1.9666380  
H    6.9512481   -0.0114364    6.7802579  
H   11.1835757   -0.0031347    4.1775363  
H    9.6826747   -0.0068999    6.1850181  
C    0.8681109    0.7263879    2.2709268  
C    0.6127770    0.5096195    3.5869401  
C   -0.4920590   -0.4175482    3.6542670  
C   -0.8620974   -0.7254003    2.2596025  
N    0.0000000    0.0000000    1.4700000  
C   -1.8641242   -1.5660088    1.8976294  
C   -2.6293522   -2.2103885    2.9520183  
O   -3.5512764   -2.9839180    2.7283916  
C   -2.2549728   -1.8987399    4.4361073  
O   -2.8923672   -2.4351063    5.3323774  
C   -1.1543735   -0.9755647    4.7012123  
H    1.1382914    0.9492124    4.4159191  
H   -2.1192137   -1.7782617    0.8686553  
H   -0.9013378   -0.7652422    5.7314848  
H    1.6172880    1.3558399    1.8188057  
