60

C    3.3003537    0.0005280   -1.4739005  
C    2.5232797    0.0003504   -2.6090757  
C    1.1623187   -0.0001314   -2.1820106  
C    1.1711877    0.0000587   -0.7636145  
N    2.4852297   -0.0014918   -0.3662365  
C    0.0000000    0.0000000    0.0000000  
C   -1.2020391    0.0000523   -0.6806467  
O   -2.3759253    0.0003494    0.0157759  
C   -1.2314671   -0.0005108   -2.0955501  
O   -2.5054405   -0.0008032   -2.6250164  
C   -0.0764533   -0.0007266   -2.8495190  
H    2.8919932   -0.0005611   -3.6205313  
H    2.8036265    0.0088180    0.5858650  
H   -3.0835645    0.0000350   -0.6418796  
H   -2.4360066   -0.0011520   -3.5845904  
H    4.3715539    0.0004899   -1.3667151  
C    2.2697402   -2.0933920   -5.9499317  
C    1.7761623   -1.6308840   -4.7724167  
C    0.6896433   -0.7359130   -5.0938795  
C    0.5899503   -0.7148020   -6.5657511  
N    1.5756926   -1.5579525   -7.0243352  
C   -0.3170997    0.0136154   -7.2645881  
C   -1.2578099    0.8315640   -6.5172193  
O   -2.1126625    1.5232792   -7.0548608  
C   -1.1702549    0.8246330   -4.9577028  
O   -1.9567862    1.5095619   -4.3177794  
C   -0.1496439   -0.0015603   -4.3176956  
H    2.1326561   -1.8872528   -3.7906831  
H   -0.3733858    0.0148564   -8.3442826  
H    1.7609369   -1.7556224   -7.9905952  
C    3.3778086   -3.0300013   -6.1862512  
C    4.1593570   -3.6450301   -5.2683726  
C    5.0863063   -4.4529040   -6.0459356  
C    4.7117136   -4.1989392   -7.4536881  
N    3.7108869   -3.3655733   -7.5422104  
C    5.4021153   -4.8223288   -8.5490496  
C    6.4206934   -5.6609936   -8.2516026  
O    7.1514858   -6.3107983   -9.1734148  
C    6.8228398   -5.9373765   -6.8409106  
O    7.7592243   -6.7117731   -6.6441503  
C    6.0990713   -5.2857034   -5.7348351  
H    4.1126675   -3.5608055   -4.1960840  
H    5.1069822   -4.6187109   -9.5680422  
H    7.7967528   -6.8282292   -8.6585864  
H    6.4211780   -5.5121042   -4.7272540  
C    0.0000000    0.0000000    1.4700000  
C    1.0541688    0.0001722    2.3260392  
C    0.5103138    0.0000454    3.6635956  
C   -0.9576371   -0.0002459    3.5155732  
N   -1.2018458    0.0001392    2.1615969  
C   -1.8348311   -0.0008317    4.5510609  
C   -1.2972847   -0.0009736    5.9014604  
O   -2.0050672   -0.0014265    6.9001319  
C    0.2542623   -0.0004184    6.0817573  
O    0.7184670   -0.0002256    7.2139121  
C    1.0974552   -0.0000873    4.8889129  
H    2.0940752    0.0005483    2.0517982  
H   -2.9081052   -0.0011668    4.4207061  
H    2.1707277    0.0000911    5.0223670  
H   -2.1128194   -0.0014912    1.7406791  
