58

C    3.5254931    0.7312349   -8.0231856  
C    3.3401677    0.5155371   -9.3510425  
C    4.3640803   -0.4104734   -9.7740583  
C    5.1668581   -0.7188130   -8.5751992  
N    4.6070604    0.0052291   -7.5479313  
C    6.2327545   -1.5586332   -8.5587045  
C    6.6149479   -2.2015893   -9.8049275  
O    7.5601357   -2.9743259   -9.8932423  
C    5.7790450   -1.8894019  -11.0869617  
O    6.0915438   -2.4245713  -12.1420431  
C    4.6512778   -0.9671747  -10.9797695  
H    2.5737746    0.9551111   -9.9642553  
H    6.8080757   -1.7712641   -7.6683654  
H    4.0774808   -0.7564716  -11.8720048  
H    2.9630752    1.3596513   -7.3518666  
C    2.4521485    0.0014838   -3.7217479  
C    3.5087829    0.0013018   -2.8687536  
C    4.7039153    0.0022077   -3.6789965  
C    4.2537130    0.0029670   -5.0840257  
N    2.8785571    0.0020815   -5.0411852  
C    5.0840330    0.0043213   -6.1574650  
C    6.5167217    0.0048560   -5.9126433  
O    7.3462788    0.0060000   -6.8127180  
C    7.0158850    0.0038165   -4.4325618  
O    8.2198463    0.0039481   -4.2140696  
C    6.0245775    0.0026607   -3.3596402  
H    3.4569042    0.0004294   -1.7945464  
H    6.3784142    0.0021512   -2.3376213  
H    2.2773147    0.0038590   -5.8446475  
C    0.0000000    0.0000000    0.0000000  
C    1.0662924   -0.0000102   -0.8334267  
C    0.4961874    0.0000064   -2.1718888  
C   -0.9663853   -0.0000849   -1.9540250  
N   -1.2632772   -0.0000084   -0.6828660  
C   -1.8985357   -0.0000515   -3.0477261  
C   -1.3925767    0.0004566   -4.3020548  
O   -2.1456375    0.0005411   -5.4151316  
C    0.0786242    0.0009324   -4.5545000  
O    0.4683770    0.0012590   -5.7221099  
C    1.0143173    0.0008443   -3.4159029  
H    2.1107200    0.0000632   -0.5721862  
H   -2.9622180   -0.0003269   -2.8593382  
H   -1.5042262    0.0009694   -6.1484423  
C    1.1319247   -0.0015655    2.2709268  
C    0.7969915   -0.0034943    3.5869401  
C   -0.6453339   -0.0035710    3.6542670  
C   -1.1266833   -0.0015433    2.2596025  
N    0.0000000    0.0000000    1.4700000  
C   -2.4346130   -0.0013964    1.8976294  
C   -3.4350110   -0.0031408    2.9520183  
O   -4.6384611   -0.0030974    2.7283916  
C   -2.9478959   -0.0050506    4.4361073  
O   -3.7809380   -0.0062218    5.3323774  
C   -1.5113823   -0.0053090    4.7012123  
H    1.4821238   -0.0045407    4.4159191  
H   -2.7664565   -0.0000232    0.8686553  
H   -1.1823530   -0.0068408    5.7314848  
H    2.1104316   -0.0009391    1.8188057  
