62

C    3.3003549    0.0005277   -1.4738979  
C    2.5232818    0.0003498   -2.6090742  
C    1.1623206   -0.0001318   -2.1820097  
C    1.1711888    0.0000584   -0.7636136  
N    2.4852303   -0.0014919   -0.3662352  
C    0.0000000    0.0000000    0.0000000  
C   -1.2020383    0.0000520   -0.6806483  
O   -2.3759247    0.0003494    0.0157743  
C   -1.2314650   -0.0005110   -2.0955506  
O   -2.5054387   -0.0008035   -2.6250181  
C   -0.0764514   -0.0007271   -2.8495192  
H    2.8036265    0.0088182    0.5858672  
H   -3.0835638    0.0000350   -0.6418812  
H   -2.4360039   -0.0011527   -3.5845922  
H   -0.1304089   -0.0013419   -3.9319085  
H    4.3715552    0.0004895   -1.3667127  
C    5.9339396   -2.1239631   -4.5697795  
C    5.0139152   -1.6613192   -3.6576490  
C    4.1430867   -0.7747004   -4.3577672  
C    4.5843189   -0.7357738   -5.7052559  
N    5.6745648   -1.5647288   -5.7991413  
C    3.9561309    0.0394408   -6.6846489  
C    2.8624156    0.7887789   -6.2967603  
O    2.2114282    1.5633306   -7.2128926  
C    2.4073422    0.7634327   -4.9569532  
O    1.3072166    1.5639368   -4.7283482  
C    3.0267440   -0.0008949   -3.9901693  
H    4.9758715   -1.9289914   -2.6155851  
H    4.2876080    0.0735629   -7.7133177  
H    1.4889949    1.9966213   -6.7400143  
H    1.0643865    1.4893958   -3.8004040  
H    6.7555157   -2.8075032   -4.4403779  
C    7.4435420   -5.2493403   -7.4697065  
C    6.7973194   -4.3460888   -6.6882922  
C    6.8952275   -3.0680520   -7.3530260  
C    7.6568986   -3.3024570   -8.5946788  
N    7.9599009   -4.6444555   -8.6055882  
C    7.9629569   -2.3408738   -9.5020876  
C    7.5122972   -0.9845004   -9.2380968  
O    7.7376702   -0.0486805   -9.9942369  
C    6.7043060   -0.7133263   -7.9291200  
O    6.3199005    0.4247186   -7.6959942  
C    6.4360484   -1.8312721   -7.0279611  
H    6.3080596   -4.5516133   -5.7528784  
H    8.5226683   -2.5339720  -10.4067133  
H    7.5861879   -6.3059518   -7.3112322  
H    8.4748856   -5.1127514   -9.3284559  
C    2.5128556    2.1077716    2.9199648  
C    1.9592212    1.6432552    4.0696553  
C    0.8915788    0.7479214    3.6910360  
C    0.8684491    0.7287414    2.2159470  
N    1.8754542    1.5738793    1.8102719  
C    0.0000000    0.0000000    1.4700000  
C   -0.9772830   -0.8200135    2.1664417  
O   -1.8021297   -1.5120829    1.5842315  
C   -0.9711318   -0.8147624    3.7284083  
O   -1.7894187   -1.5009653    4.3257297  
C    0.0140216    0.0115358    4.4216297  
H    2.2638494    1.8988021    5.0689105  
H    0.0117648    0.0094386    5.5031631  
H    3.3327358    2.7953732    2.7900019  
H    2.1123206    1.7707734    0.8551938  
