60

C    1.1243407    0.0100080   -0.7919011  
C    0.7474070    0.0234653   -2.1148553  
C   -0.6787391    0.0234400   -2.1414701  
C   -1.1201749    0.0098439   -0.7935549  
N    0.0000000    0.0000000    0.0000000  
C   -2.4730817    0.0063367   -0.4408239  
C   -3.3971963    0.0170513   -1.4675052  
O   -4.7313521    0.0145605   -1.1793463  
C   -2.9763659    0.0303100   -2.8186317  
O   -4.0166484    0.0394568   -3.7247616  
C   -1.6418574    0.0335038   -3.1673481  
H    1.4178702    0.0311175   -2.9571215  
H   -2.8160163   -0.0041503    0.5845965  
H   -5.1938822    0.0230150   -2.0274371  
H   -3.6464692    0.0481798   -4.6127337  
H    2.1062463    0.0053113   -0.3505413  
C    1.5731598   -2.0886860   -5.2038823  
C    1.4268801   -1.6686673   -6.4820708  
C    0.2928463   -0.7579271   -6.4501491  
C   -0.1353074   -0.7453027   -5.0348366  
N    0.6115276   -1.5234345   -4.2994877  
C   -1.2456348    0.0471564   -4.5828768  
C   -1.8983162    0.7933926   -5.5029159  
O   -2.9512310    1.5796901   -5.2215856  
C   -1.4900237    0.8021756   -6.9386669  
O   -2.1296692    1.5051133   -7.7209413  
C   -0.3478286   -0.0192615   -7.3774783  
H   -3.1965795    1.9802972   -6.0750906  
H   -0.0836670    0.0148416   -8.4259468  
H    2.3059288   -2.7749403   -4.8100834  
C    2.2310677   -2.0431341   -7.6542296  
C    3.2933951   -2.8856454   -7.7297946  
C    3.7186924   -2.9041884   -9.1095102  
C    2.8105655   -1.9968907   -9.8367700  
N    1.9319773   -1.5076458   -8.8978280  
C    2.8830265   -1.7407197  -11.1674951  
C    3.9248310   -2.4029635  -11.9347060  
O    4.0725488   -2.2378468  -13.1385402  
C    4.8975652   -3.3681927  -11.1850886  
O    5.7784328   -3.9316614  -11.8205688  
C    4.7200140   -3.5639474   -9.7484232  
H    3.7292202   -3.4319390   -6.9123394  
H    2.2070303   -1.0716299  -11.6815546  
H    5.3978026   -4.2337064   -9.2368084  
H    1.1892969   -0.8596673   -9.0864988  
C    0.0000000    0.0000000    1.4700000  
C    1.0541688    0.0001722    2.3260392  
C    0.5103138    0.0000454    3.6635956  
C   -0.9576371   -0.0002459    3.5155732  
N   -1.2018458    0.0001392    2.1615969  
C   -1.8348311   -0.0008317    4.5510609  
C   -1.2972847   -0.0009736    5.9014604  
O   -2.0050672   -0.0014265    6.9001319  
C    0.2542623   -0.0004184    6.0817573  
O    0.7184670   -0.0002256    7.2139121  
C    1.0974552   -0.0000873    4.8889129  
H    2.0940752    0.0005483    2.0517982  
H   -2.9081052   -0.0011668    4.4207061  
H    2.1707277    0.0000911    5.0223670  
H   -2.1128194   -0.0014912    1.7406791  
