58

C   -3.2573655    0.0019060   -1.5109399  
C   -2.5379463    0.0014285   -0.3591975  
C   -1.1435032    0.0005335   -0.7338505  
C   -1.1092589    0.0005578   -2.2088482  
N   -2.4227539    0.0010095   -2.6182621  
C    0.0265553    0.0002391   -2.9515663  
C    1.3003051   -0.0003804   -2.2514967  
O    2.3786804   -0.0007656   -2.8306408  
C    1.2877732   -0.0006693   -0.6895599  
O    2.3539964   -0.0014971   -0.0892019  
C    0.0000000    0.0000000    0.0000000  
H   -2.9384086    0.0014928    0.6389220  
H    0.0296317    0.0003937   -4.0327229  
H   -2.7280459    0.0026924   -3.5742130  
C   -4.7161314    0.0028805   -1.6923284  
C   -5.6747623    0.0037083   -0.7370247  
C   -6.9326473    0.0044371   -1.4679303  
C   -6.5359767    0.0040204   -2.8924430  
N   -5.2378980    0.0030273   -3.0302125  
C   -7.5062980    0.0044802   -3.9524252  
C   -8.8134725    0.0049293   -3.6051092  
O   -9.8251206    0.0053953   -4.4897612  
C   -9.2455256    0.0049866   -2.1763015  
O  -10.4523053    0.0055310   -1.9336028  
C   -8.2310892    0.0045527   -1.1072636  
H   -5.5443939    0.0037215    0.3316569  
H   -7.1880980    0.0043660   -4.9847324  
H  -10.6319731    0.0056127   -3.9437379  
C   -8.7120160    0.0044736    0.2818402  
C   -7.9959224    0.0043528    1.4356536  
C   -8.9474445    0.0042813    2.5216742  
C  -10.2861846    0.0043417    1.9015411  
N  -10.0739863    0.0048569    0.5421804  
C  -11.4538772    0.0039055    2.5930605  
C  -11.3877111    0.0035650    4.0450097  
O  -12.3832690    0.0032240    4.7571638  
C   -9.9805335    0.0037472    4.7229906  
O   -9.9122720    0.0037703    5.9447111  
C   -8.7934907    0.0039451    3.8716500  
H   -6.9235223    0.0045002    1.5167210  
H  -12.4254402    0.0038287    2.1187463  
H   -7.8229427    0.0038650    4.3488932  
H  -10.7971201    0.0034625   -0.1536090  
C    2.4951002    2.0940188    2.9809380  
C    1.9440701    1.6314916    1.8291961  
C    0.8759964    0.7350050    2.2038498  
C    0.8497377    0.7130254    3.6788474  
N    1.8560616    1.5571714    4.0882609  
C   -0.0205033   -0.0168748    4.4215661  
C   -0.9962600   -0.8356168    3.7214979  
O   -1.8224391   -1.5286685    4.3006425  
C   -0.9864710   -0.8277881    2.1595606  
O   -1.8030528   -1.5133726    1.5592035  
C    0.0000000    0.0000000    1.4700000  
H    2.2509283    1.8888011    0.8310761  
H   -0.0229599   -0.0187323    5.5027230  
H    3.3143982    2.7817323    3.1139444  
H    2.0889452    1.7545833    5.0442112  
