62

C    3.3041270    0.0001178   -1.5420432  
C    2.5845372   -0.0004779   -0.3695853  
C    1.2040007   -0.0000006   -0.7283591  
C    1.1422373    0.0006039   -2.1454374  
N    2.4348636    0.0026110   -2.6077466  
C   -0.0655186    0.0008800   -2.8497915  
C   -1.2321770    0.0002326   -2.1101397  
O   -2.4392818    0.0001149   -2.7472515  
C   -1.1911209   -0.0000006   -0.6955262  
O   -2.4371522   -0.0002319   -0.1032858  
C    0.0000000    0.0000000    0.0000000  
H    3.0031535   -0.0000661    0.6222580  
H    2.7054625   -0.0071097   -3.5745263  
H   -3.1132993   -0.0000646   -2.0551781  
H   -2.3200286   -0.0004070    0.8516413  
C    6.7370859   -0.0008254    1.2348660  
C    5.4910171   -0.0006932    0.6950625  
C    5.6537425    0.0002335   -0.7396342  
C    7.1071773    0.0006038   -0.9932431  
N    7.7077095    0.0003272    0.2445987  
C    7.6723918    0.0010659   -2.2270332  
C    6.7903710    0.0014341   -3.3822708  
O    7.2023938    0.0019214   -4.5348932  
C    5.2477322    0.0013038   -3.1371792  
O    4.4952266    0.0019173   -4.1020607  
C    4.7577214    0.0005130   -1.7610465  
H    4.5636978   -0.0010059    1.2397576  
H    8.7410255    0.0012018   -2.3911475  
H    7.0279700   -0.0014511    2.2727843  
H    8.6984747   -0.0010834    0.4040643  
C   -0.1387086    0.0017020   -4.3179679  
C    0.8715313    0.0021968   -5.2254317  
C    0.2617552    0.0029744   -6.5342509  
C   -1.1970052    0.0029207   -6.3133239  
N   -1.3734978    0.0017348   -4.9488685  
C   -2.1246674    0.0039288   -7.3038522  
C   -1.6550229    0.0049219   -8.6793405  
O   -2.4116503    0.0058068   -9.6415332  
C   -0.1143768    0.0047447   -8.9366640  
O    0.2928832    0.0052679  -10.0905265  
C    0.7871608    0.0038972   -7.7872811  
H    1.9238024    0.0018531   -5.0033070  
H   -3.1901200    0.0039993   -7.1202221  
H    1.8524579    0.0039851   -7.9740072  
H   -2.2623846    0.0029671   -4.4831157  
C    0.8676693    0.7151171    2.2619005  
C    0.5875920    0.4624972    3.5848544  
C   -0.5048400   -0.4542819    3.6114698  
C   -0.8517165   -0.7276451    2.2635546  
N    0.0000000    0.0000000    1.4700000  
C   -1.8902865   -1.5946756    1.9108239  
C   -2.5912627   -2.1969500    2.9375057  
O   -3.6148162   -3.0527051    2.6493466  
C   -2.2603868   -1.9365747    4.2886322  
O   -3.0513550   -2.6123276    5.1947621  
C   -1.2361111   -1.0811317    4.6373480  
H    1.1060808    0.8876438    4.4271209  
H   -2.1597133   -1.8070987    0.8854031  
H   -3.9636755   -3.3565188    3.4974381  
H   -2.7621927   -2.3810384    6.0827341  
H   -1.0058879   -0.9010589    5.6809233  
H    1.6167816    1.3499334    1.8205408  
