62

C    3.3003552    0.0005277   -1.4738975  
C    2.5232823    0.0003499   -2.6090738  
C    1.1623209   -0.0001317   -2.1820098  
C    1.1711889    0.0000585   -0.7636139  
N    2.4852303   -0.0014919   -0.3662348  
C    0.0000000    0.0000000    0.0000000  
C   -1.2020380    0.0000521   -0.6806489  
O   -2.3759250    0.0003494    0.0157737  
C   -1.2314649   -0.0005110   -2.0955512  
O   -2.5054378   -0.0008035   -2.6250191  
C   -0.0764505   -0.0007270   -2.8495197  
H    2.8036265    0.0088180    0.5858674  
H   -3.0835637    0.0000348   -0.6418826  
H   -2.4360035   -0.0011524   -3.5845931  
H   -0.1304079   -0.0013417   -3.9319086  
H    4.3715557    0.0004894   -1.3667119  
C    5.9339406   -2.1239628   -4.5697786  
C    5.0139160   -1.6613190   -3.6576479  
C    4.1430878   -0.7747004   -4.3577668  
C    4.5843202   -0.7357737   -5.7052550  
N    5.6745662   -1.5647286   -5.7991402  
C    3.9561325    0.0394410   -6.6846482  
C    2.8624174    0.7887790   -6.2967603  
O    2.2114302    1.5633307   -7.2128923  
C    2.4073436    0.7634327   -4.9569529  
O    1.3072178    1.5639368   -4.7283487  
C    3.0267451   -0.0008949   -3.9901692  
H    4.9758723   -1.9289913   -2.6155839  
H    6.1946456   -1.7467726   -6.6384015  
H    1.4889968    1.9966214   -6.7400143  
H    1.0643876    1.4893958   -3.8004040  
H    6.7555171   -2.8075029   -4.4403766  
C    4.8457208   -0.9679304   -8.8186206  
C    4.4067695    0.0858293   -8.0831023  
C    4.4691716    1.2494522   -8.9357010  
C    4.9841238    0.7838878  -10.2375694  
N    5.1927483   -0.5691019  -10.1005134  
C    5.1878413    1.5841184  -11.3145258  
C    4.8795450    2.9983579  -11.1825598  
O    5.0288949    3.8006150  -12.0949076  
C    4.3333000    3.5133593   -9.8128166  
O    4.0704961    4.7020733   -9.6897165  
C    4.1554687    2.5545958   -8.7251576  
H    5.5662684    1.2224701  -12.2605243  
H    3.7766098    2.9191904   -7.7800336  
H    4.9450920   -2.0022673   -8.5319819  
H    5.5412946   -1.1740303  -10.8213624  
C    2.5128556    2.1077716    2.9199648  
C    1.9592212    1.6432552    4.0696553  
C    0.8915788    0.7479214    3.6910360  
C    0.8684491    0.7287414    2.2159470  
N    1.8754542    1.5738793    1.8102719  
C    0.0000000    0.0000000    1.4700000  
C   -0.9772830   -0.8200135    2.1664417  
O   -1.8021297   -1.5120829    1.5842315  
C   -0.9711318   -0.8147624    3.7284083  
O   -1.7894187   -1.5009653    4.3257297  
C    0.0140216    0.0115358    4.4216297  
H    2.2638494    1.8988021    5.0689105  
H    0.0117648    0.0094386    5.5031631  
H    3.3327358    2.7953732    2.7900019  
H    2.1123206    1.7707734    0.8551938  
