58

C    3.1663135    1.5683696   -2.8368662  
C    4.0340549    2.5265141   -3.2528699  
C    3.4067817    3.2111917   -4.3585734  
C    2.0930348    2.5688070   -4.5540255  
N    2.0088361    1.5807744   -3.6003002  
C    1.1943730    2.9299789   -5.5046392  
C    1.5445182    4.0242870   -6.3948208  
O    0.8029526    4.4238143   -7.2829427  
C    2.9307749    4.7188934   -6.2060910  
O    3.2367093    5.6411621   -6.9497877  
C    3.8144415    4.2410048   -5.1456158  
H    5.0030570    2.7302653   -2.8331860  
H    0.2360262    2.4457222   -5.6310407  
H    3.2751121    0.8541017   -2.0369444  
C    0.0000000    0.0000000    0.0000000  
C    0.8284978    0.6518160   -0.8560390  
C    0.4010449    0.3155685   -2.1935953  
C   -0.7526858   -0.5920571   -2.0455729  
N   -0.9443531   -0.7433910   -0.6915968  
C   -1.4423684   -1.1340978   -3.0810610  
C   -1.0200395   -0.8015403   -4.4314606  
O   -1.5765119   -1.2389125   -5.4301320  
C    0.1995470    0.1575780   -4.6117570  
O    0.5644488    0.4445143   -5.7439120  
C    0.8623528    0.6787908   -3.4189128  
H    1.6459137    1.2946506   -0.5817978  
H   -2.2859805   -1.7976010   -2.9507064  
H   -1.6612257   -1.3055013   -0.2706791  
C    6.3098518    4.2585242   -4.6862845  
C    7.3318759    5.1476642   -4.5915658  
C    6.7744812    6.4572382   -4.8347970  
C    5.3336110    6.2567263   -5.0807194  
N    5.1164876    4.9021234   -4.9768046  
C    4.4534992    7.2540000   -5.3500780  
C    4.9591434    8.6156992   -5.4014090  
O    4.2462488    9.5825339   -5.6365935  
C    6.4817090    8.8513023   -5.1443285  
O    6.9189965    9.9933906   -5.1852498  
C    7.3310072    7.6964264   -4.8636055  
H    8.3590458    4.9129137   -4.3760963  
H    3.4003772    7.0854164   -5.5273434  
H    8.3840470    7.8681063   -4.6865252  
H    6.3280975    3.1872233   -4.5685071  
C    0.0000000    0.0000000    1.4700000  
C    1.0662921    0.0000102    2.3034270  
C    0.4961870   -0.0000064    3.6418889  
C   -0.9663858    0.0000850    3.4240247  
N   -1.2632773    0.0000084    2.1528658  
C   -1.8985362    0.0000517    4.5177257  
C   -1.3925775   -0.0004564    5.7720543  
O   -2.1456383   -0.0005410    6.8851312  
C    0.0786232   -0.0009323    6.0245000  
O    0.4683759   -0.0012588    7.1921102  
C    1.0143166   -0.0008442    4.8859032  
H    2.1107198   -0.0000632    2.0421868  
H   -2.9622183    0.0003270    4.3293377  
H   -1.5042274   -0.0009692    7.6184419  
H    2.0724152   -0.0013148    5.1109744  
