60

C    1.1188642    0.0008222   -0.8003805  
C    0.0000000    0.0000000    0.0000000  
C   -1.1323866    0.0008897   -0.8673518  
C   -0.6382672    0.0019680   -2.1969272  
N    0.7324011    0.0038482   -2.1202236  
C   -1.4770927    0.0027318   -3.3154800  
C   -2.8395487    0.0020942   -3.0876842  
O   -3.7039213    0.0024423   -4.1440332  
C   -3.3517874    0.0013925   -1.7684315  
O   -4.7300499    0.0012360   -1.7073101  
C   -2.5248545    0.0009119   -0.6644807  
H    1.3576305   -0.0056165   -2.9057042  
H   -4.5940047    0.0021823   -3.7685113  
H   -4.9934604    0.0007255   -0.7819892  
H   -2.9462581    0.0005600    0.3339675  
H    2.1619887    0.0009357   -0.5342071  
C    0.1166591   -0.7214345   -5.1522985  
C    0.3273789   -0.5035452   -6.4760039  
C   -0.6880539    0.4234400   -6.9169461  
C   -1.5135300    0.7299635   -5.7331290  
N   -0.9736314    0.0040464   -4.6965756  
C   -2.5793583    1.5700283   -5.7355896  
C   -2.9375183    2.2151830   -6.9878006  
O   -3.8806713    2.9883097   -7.0928574  
C   -2.0773346    1.9049439   -8.2541498  
O   -2.3694906    2.4419718   -9.3141059  
C   -0.9520291    0.9822474   -8.1269828  
H    1.1052538   -0.9422812   -7.0751997  
H   -3.1715431    1.7813050   -4.8560506  
H    0.6660022   -1.3511263   -4.4714163  
C    0.3517131   -0.5121227   -9.6849034  
C   -0.1491658    0.6977102   -9.3250431  
C    0.2578335    1.6406313  -10.3399758  
C    1.0424854    0.8754726  -11.3277213  
N    1.0623375   -0.4226114  -10.8722291  
C    1.6049083    1.4081147  -12.4420272  
C    1.4256466    2.8299311  -12.6845928  
O    1.8930951    3.4034238  -13.6597335  
C    0.5985081    3.6597140  -11.6515832  
O    0.4411275    4.8576558  -11.8450438  
C    0.0411947    2.9737231  -10.4885394  
H    2.1766465    0.8291634  -13.1539544  
H   -0.5304149    3.5553736   -9.7781390  
H    0.2616717   -1.4615320   -9.1825055  
H    1.5205743   -1.1875602  -11.3325754  
C    0.0000000    0.0000000    1.4700000  
C    1.0541688    0.0001722    2.3260392  
C    0.5103138    0.0000454    3.6635956  
C   -0.9576371   -0.0002459    3.5155732  
N   -1.2018458    0.0001392    2.1615969  
C   -1.8348311   -0.0008317    4.5510609  
C   -1.2972847   -0.0009736    5.9014604  
O   -2.0050672   -0.0014265    6.9001319  
C    0.2542623   -0.0004184    6.0817573  
O    0.7184670   -0.0002256    7.2139121  
C    1.0974552   -0.0000873    4.8889129  
H    2.0940752    0.0005483    2.0517982  
H   -2.9081052   -0.0011668    4.4207061  
H    2.1707277    0.0000911    5.0223670  
H   -2.1128194   -0.0014912    1.7406791  
