58

C   -3.2798089    0.0016579   -1.4499641  
C   -2.5571155    0.0011927   -2.5996549  
C   -1.1637440    0.0006414   -2.2210358  
C   -1.1336964    0.0007955   -0.7459466  
N   -2.4483508    0.0018177   -0.3402713  
C    0.0000000    0.0000000    0.0000000  
C    1.2757365   -0.0008538   -0.6964419  
O    2.3524585   -0.0015451   -0.1142321  
C    1.2676485   -0.0007796   -2.2584084  
O    2.3355748   -0.0011872   -2.8557301  
C   -0.0181574   -0.0001633   -2.9516296  
H   -2.9547358    0.0014138   -3.5989097  
H   -0.0150804   -0.0003213   -4.0331626  
H   -2.7563631    0.0006030    0.6148069  
C   -6.4690095    0.0024495   -4.4192220  
C   -7.5790620    0.0026612   -3.6450370  
C   -7.0826152    0.0026685   -2.2775427  
C   -5.6103560    0.0023294   -2.4155185  
N   -5.2447516    0.0022804   -3.6686438  
C   -4.7390850    0.0022803   -1.2727270  
C   -5.3125310    0.0029464   -0.0477806  
O   -4.6211383    0.0029785    1.1046155  
C   -6.7952862    0.0036736    0.1242559  
O   -7.2479816    0.0041343    1.2689334  
C   -7.6676533    0.0036657   -1.0635576  
H   -5.3014924    0.0035545    1.8019464  
H   -8.7364289    0.0043198   -0.8963814  
H   -6.4103425    0.0023834   -5.4960378  
C   -8.9836123    0.0029683   -4.0787873  
C   -9.4653026    0.0030246   -5.3435215  
C  -10.9123909    0.0033783   -5.1937373  
C  -11.1357857    0.0033890   -3.7319991  
N  -10.0088275    0.0032300   -3.0732480  
C  -12.4558382    0.0037449   -3.1640677  
C  -13.5050280    0.0044639   -4.0176120  
O  -14.7907509    0.0048571   -3.6265140  
C  -13.3121288    0.0048441   -5.4977978  
O  -14.3127488    0.0053752   -6.2147219  
C  -11.9481336    0.0044237   -6.0558671  
H   -8.9075166    0.0029380   -6.2643639  
H  -12.5896978    0.0035375   -2.0921578  
H  -15.3021518    0.0053737   -4.4557435  
H  -11.8509723    0.0048346   -7.1332661  
C    2.5128556    2.1077716    2.9199648  
C    1.9592212    1.6432552    4.0696553  
C    0.8915788    0.7479214    3.6910360  
C    0.8684491    0.7287414    2.2159470  
N    1.8754542    1.5738793    1.8102719  
C    0.0000000    0.0000000    1.4700000  
C   -0.9772830   -0.8200135    2.1664417  
O   -1.8021297   -1.5120829    1.5842315  
C   -0.9711318   -0.8147624    3.7284083  
O   -1.7894187   -1.5009653    4.3257297  
C    0.0140216    0.0115358    4.4216297  
H    2.2638494    1.8988021    5.0689105  
H    0.0117648    0.0094386    5.5031631  
H    3.3327358    2.7953732    2.7900019  
H    2.1123206    1.7707734    0.8551938  
