58

C    1.4554336   -1.0577621   -9.4578209  
C    0.9539741    0.0203355   -8.8018333  
C    1.1207065    1.1588761   -9.6740493  
C    1.7650013    0.6520707  -10.9007615  
N    1.9412715   -0.6984213  -10.7058490  
C    2.0915584    1.4197440  -11.9711552  
C    1.7884196    2.8399598  -11.9109149  
O    2.0434950    3.6147988  -12.8235282  
C    1.1064241    3.3983834  -10.6213999  
O    0.8466855    4.5924975  -10.5590521  
C    0.8025224    2.4723056   -9.5333400  
H    2.5636603    1.0280984  -12.8614602  
H    0.3301198    2.8668756   -8.6440286  
H    1.5111352   -2.0845103   -9.1344401  
H    2.3568054   -1.3266258  -11.3689764  
C    2.0663728   -2.0930018   -5.1167673  
C    1.0931323   -1.6308353   -4.2901597  
C    0.2706810   -0.7345479   -5.0680273  
C    0.8486737   -0.7122925   -6.4253117  
N    1.9347265   -1.5561046   -6.3884397  
C    0.3570947    0.0175291   -7.4584692  
C   -0.8196660    0.8358892   -7.2175209  
O   -1.3377655    1.5288423   -8.0833674  
C   -1.4481800    0.8277637   -5.7875875  
O   -2.4388901    1.5130258   -5.5727158  
C   -0.8287665    0.0000939   -4.7555305  
H    0.9660022   -1.8882583   -3.2537306  
H    2.8688295   -2.7804818   -4.9038726  
H    2.5375336   -1.7532742   -7.1661248  
C    1.0672569   -0.0000698   -0.8321910  
C    0.0000000    0.0000000    0.0000000  
C   -1.1601223   -0.0000736   -0.8778472  
C   -0.5938729   -0.0000768   -2.2438435  
N    0.7113367   -0.0001553   -2.2234123  
C   -1.4286985   -0.0001877   -3.4135239  
C   -2.7683113   -0.0006798   -3.2270524  
O   -3.6653902   -0.0008302   -4.2276970  
C   -3.3702024   -0.0010610   -1.8610774  
O   -4.5974910   -0.0013779   -1.7662963  
C   -2.4926825   -0.0008943   -0.6770658  
H   -4.5324245   -0.0012258   -3.7833954  
H   -2.9677772   -0.0012974    0.2947961  
H    2.1134391   -0.0000547   -0.5705119  
C    0.8400945    0.7047457    2.2710304  
C    0.0000000    0.0000000    1.4700000  
C   -0.8844236   -0.7423113    2.3369512  
C   -0.4878984   -0.4098547    3.7186280  
N    0.5629682    0.4714286    3.6095011  
C   -1.0836927   -0.9095027    4.8308716  
C   -2.1891196   -1.8367527    4.6554461  
O   -2.7906899   -2.3413415    5.5944904  
C   -2.6257283   -2.2031529    3.2011665  
O   -3.5549479   -2.9829990    3.0410059  
C   -1.9068976   -1.5999348    2.0816745  
H   -0.7774656   -0.6525820    5.8354244  
H   -2.2155208   -1.8586617    1.0779135  
H    1.6384792    1.3747609    1.9961646  
H    1.0518368    0.8833920    4.3830260  
