58

C   -8.0669888   -0.5572301   -2.9965330  
C   -8.3496752    0.2755986   -1.9618545  
C   -9.7839924    0.2690670   -1.7959445  
C  -10.3175785   -0.6423925   -2.8261473  
N   -9.2257392   -1.1098619   -3.5205887  
C  -11.6346063   -0.9200469   -2.9994961  
C  -12.5903880   -0.2781862   -2.1123474  
O  -13.7979744   -0.4633948   -2.1880631  
C  -12.0476116    0.6910395   -1.0142579  
O  -12.8428176    1.2374816   -0.2617215  
C  -10.6062154    0.9107821   -0.9251466  
H   -7.6350005    0.8312480   -1.3812452  
H  -12.0050672   -1.5918063   -3.7613412  
H  -10.2384956    1.5831575   -0.1619840  
H   -9.2645092   -1.7548650   -4.2883884  
C   -3.9877627    0.7060338   -1.9730979  
C   -3.2941076    0.0012878   -2.9038237  
C   -4.2616237   -0.7404937   -3.6774571  
C   -5.5852979   -0.4077256   -3.1171519  
N   -5.3499626    0.4732136   -2.0868834  
C   -6.7614337   -0.9068529   -3.5746248  
C   -6.7208869   -1.8338311   -4.6933757  
O   -7.7257850   -2.3379508   -5.1774661  
C   -5.3299840   -2.2005531   -5.3022342  
O   -5.2832945   -2.9801745   -6.2441849  
C   -4.1317825   -1.5978942   -4.7234697  
H   -3.1726434   -1.8568414   -5.1509306  
H   -3.6184115    1.3757280   -1.2135067  
H   -6.0587599    0.8852726   -1.5082127  
C    0.0000000    0.0000000    0.0000000  
C    1.0541688   -0.0001723   -0.8560392  
C    0.5103136   -0.0000455   -2.1935956  
C   -0.9576373    0.0002461   -2.0455730  
N   -1.2018460   -0.0001389   -0.6915968  
C   -1.8348314    0.0008319   -3.0810607  
C   -1.2972851    0.0009739   -4.4314603  
O   -2.0050676    0.0014268   -5.4301316  
C    0.2542619    0.0004184   -4.6117572  
O    0.7184666    0.0002257   -5.7439122  
C    1.0974551    0.0000873   -3.4189129  
H    2.0940752   -0.0005484   -0.5817983  
H    2.1707276   -0.0000912   -3.5523673  
H   -2.1128194    0.0014915   -0.2706789  
C    1.0672568    0.0000697    2.3021913  
C    0.0000000    0.0000000    1.4700000  
C   -1.1601224    0.0000736    2.3478473  
C   -0.5938729    0.0000769    3.7138435  
N    0.7113367    0.0001554    3.6934124  
C   -1.4286986    0.0001879    4.8835240  
C   -2.7683114    0.0006799    4.6970523  
O   -3.6653903    0.0008304    5.6976972  
C   -3.3702025    0.0010610    3.3310774  
O   -4.5974910    0.0013779    3.2362962  
C   -2.4926826    0.0008943    2.1470656  
H   -0.9878360   -0.0000190    5.8697035  
H   -4.5324246    0.0012261    5.2533954  
H   -2.9677772    0.0012974    1.1752040  
H    2.1134392    0.0000545    2.0405121  
