62

C    2.3136490   -2.1180454   -5.9171367  
C    1.6624058   -1.6181603   -7.0209775  
C    0.6419643   -0.7441454   -6.5420236  
C    0.7194931   -0.7504920   -5.1257342  
N    1.7437763   -1.5963719   -4.7793976  
C   -0.1387076    0.0017013   -4.3179688  
C   -1.0923522    0.7746125   -4.9514892  
O   -1.9557343    1.5288496   -4.2107393  
C   -1.1856781    0.7938835   -6.3634862  
O   -2.1870605    1.6126752   -6.8432323  
C   -0.3395494    0.0518690   -7.1609868  
H    1.8935983   -1.8552478   -8.0453475  
H    2.0414326   -1.7936228   -3.8410620  
H   -2.5301596    1.9837411   -4.8403221  
H   -2.1819304    1.5683225   -7.8042792  
H   -0.4351235    0.0866792   -8.2399362  
C    3.3041274    0.0001172   -1.5420427  
C    2.5845373   -0.0004783   -0.3695849  
C    1.2040007   -0.0000010   -0.7283594  
C    1.1422375    0.0006035   -2.1454372  
N    2.4348642    0.0026105   -2.6077466  
C   -0.0655178    0.0008795   -2.8497920  
C   -1.2321766    0.0002324   -2.1101404  
O   -2.4392813    0.0001144   -2.7472526  
C   -1.1911206   -0.0000009   -0.6955271  
O   -2.4371529   -0.0002318   -0.1032865  
C    0.0000000    0.0000000    0.0000000  
H    3.0031533   -0.0000662    0.6222585  
H    2.7054633   -0.0071104   -3.5745263  
H   -3.1132989   -0.0000648   -2.0551791  
H   -2.3200283   -0.0004072    0.8516406  
H    4.3686628    0.0004068   -1.7024291  
C    4.0837780   -3.6393338   -6.8722956  
C    3.4401446   -3.0581696   -5.8272795  
C    4.0729601   -3.5403191   -4.6223269  
C    5.1457364   -4.4565656   -5.0541059  
N    5.0992272   -4.4730789   -6.4290437  
C    5.9770312   -5.1189595   -4.2103712  
C    5.8034471   -4.9160982   -2.7816477  
O    6.5017624   -5.4673031   -1.9409154  
C    4.6734505   -3.9503070   -2.3018978  
O    4.5176005   -3.7718807   -1.1014250  
C    3.8411447   -3.2931694   -3.3065318  
H    6.7577163   -5.7865002   -4.5477584  
H    3.0610854   -2.6258274   -2.9661117  
H    3.9015803   -3.5288581   -7.9289357  
H    5.7102756   -5.0068427   -7.0196050  
C    2.5128556    2.1077716    2.9199648  
C    1.9592212    1.6432552    4.0696553  
C    0.8915788    0.7479214    3.6910360  
C    0.8684491    0.7287414    2.2159470  
N    1.8754542    1.5738793    1.8102719  
C    0.0000000    0.0000000    1.4700000  
C   -0.9772830   -0.8200135    2.1664417  
O   -1.8021297   -1.5120829    1.5842315  
C   -0.9711318   -0.8147624    3.7284083  
O   -1.7894187   -1.5009653    4.3257297  
C    0.0140216    0.0115358    4.4216297  
H    2.2638494    1.8988021    5.0689105  
H    0.0117648    0.0094386    5.5031631  
H    3.3327358    2.7953732    2.7900019  
H    2.1123206    1.7707734    0.8551938  
