60

C    1.1188646    0.0008222   -0.8003804  
C    0.0000000    0.0000000    0.0000000  
C   -1.1323861    0.0008899   -0.8673531  
C   -0.6382658    0.0019679   -2.1969280  
N    0.7324023    0.0038481   -2.1202236  
C   -1.4770906    0.0027317   -3.3154813  
C   -2.8395469    0.0020945   -3.0876864  
O   -3.7039191    0.0024426   -4.1440354  
C   -3.3517867    0.0013931   -1.7684336  
O   -4.7300488    0.0012366   -1.7073134  
C   -2.5248543    0.0009122   -0.6644821  
H    1.3576321   -0.0056167   -2.9057040  
H   -4.5940021    0.0021828   -3.7685142  
H   -4.9934598    0.0007262   -0.7819928  
H   -2.9462578    0.0005605    0.3339647  
H    2.1619890    0.0009354   -0.5342068  
C    1.8836778   -2.1362885   -5.0810760  
C    1.8358591   -1.7275861   -6.3703606  
C    0.7030374   -0.8169590   -6.4333928  
C    0.1677643   -0.7920098   -5.0551894  
N    0.8558155   -1.5634006   -4.2579875  
C   -0.9736286    0.0040462   -4.6965764  
C   -1.5536716    0.7419465   -5.6704281  
O   -2.6247560    1.5303572   -5.4774861  
C   -1.0366284    0.7382179   -7.0707188  
O   -1.6142386    1.4340382   -7.9058361  
C    0.1355215   -0.0866895   -7.4135267  
H    2.4887449   -2.0092005   -7.1787599  
H   -2.8038808    1.9233564   -6.3507665  
H    2.5838930   -2.8188171   -4.6262937  
C    1.0531683   -1.1484342   -9.5275243  
C    1.4154650   -0.7879928  -10.7856571  
C    1.1888413    0.6335717  -10.8980467  
C    0.6610604    1.0749454   -9.5928924  
N    0.6025524   -0.0527795   -8.8069517  
C    0.3209527    2.3542527   -9.2938877  
C    0.4854948    3.3637900  -10.3265034  
O    0.2074077    4.5434447  -10.1550850  
C    1.0425681    2.9187825  -11.7162667  
O    1.1851258    3.7598077  -12.5935431  
C    1.3741208    1.5106665  -11.9190815  
H    1.7976596   -1.4432144  -11.5480390  
H   -0.0643196    2.6569842   -8.3301297  
H    1.7594695    1.2107632  -12.8841153  
H    1.0772490   -2.1223320   -9.0661867  
C    0.8400945    0.7047457    2.2710304  
C    0.0000000    0.0000000    1.4700000  
C   -0.8844236   -0.7423113    2.3369512  
C   -0.4878984   -0.4098547    3.7186280  
N    0.5629682    0.4714286    3.6095011  
C   -1.0836927   -0.9095027    4.8308716  
C   -2.1891196   -1.8367527    4.6554461  
O   -2.7906899   -2.3413415    5.5944904  
C   -2.6257283   -2.2031529    3.2011665  
O   -3.5549479   -2.9829990    3.0410059  
C   -1.9068976   -1.5999348    2.0816745  
H   -0.7774656   -0.6525820    5.8354244  
H   -2.2155208   -1.8586617    1.0779135  
H    1.6384792    1.3747609    1.9961646  
H    1.0518368    0.8833920    4.3830260  
