58

C    7.0505771   -2.0883276    2.0143682  
C    7.0859581   -1.6278385    0.7373512  
C    8.2156524   -0.7335167    0.6434674  
C    8.8400149   -0.7105865    1.9800438  
N    8.0859410   -1.5521707    2.7648990  
C    9.9385133    0.0178495    2.3031368  
C   10.5463219    0.8339001    1.2652704  
O   11.5379300    1.5254751    1.4569414  
C    9.9016430    0.8250237   -0.1574435  
O   10.4044020    1.5083457   -1.0392393  
C    8.7184379   -0.0010002   -0.3845224  
H    6.3989617   -1.8851357   -0.0490634  
H   10.3808022    0.0204419    3.2896879  
H    6.3551162   -2.7740927    2.4703839  
H    8.2619484   -1.7483998    3.7331775  
C    4.5679461   -0.0016854   -2.0086701  
C    5.6049853   -0.0016935   -1.1391130  
C    6.7955416   -0.0024722   -1.9752193  
C    6.2781458   -0.0029787   -3.3604575  
N    4.9730339   -0.0024401   -3.3863778  
C    7.1539718   -0.0037587   -4.4997622  
C    8.4861199   -0.0036316   -4.2658482  
O    9.4181587   -0.0043060   -5.2340138  
C    9.0391358   -0.0027531   -2.8793658  
O   10.2622858   -0.0028100   -2.7410729  
C    8.1201342   -0.0020069   -1.7272552  
H    5.5667631   -0.0011381   -0.0631881  
H    6.7483989   -0.0043224   -5.5009717  
H   10.2688728   -0.0039801   -4.7592100  
C    3.1301149   -0.0010311   -1.7028252  
C    2.5367768   -0.0002767   -0.4864665  
C    1.1089904    0.0001028   -0.7656183  
C    1.0177872   -0.0004148   -2.2415132  
N    2.1993578   -0.0011611   -2.7963820  
C   -0.2459209   -0.0002877   -2.9257118  
C   -1.3675319   -0.0000605   -2.1698524  
O   -2.6129313    0.0000867   -2.6748490  
C   -1.3083584    0.0000910   -0.6783232  
O   -2.3693261    0.0004206   -0.0541692  
C    0.0000000    0.0000000    0.0000000  
H    3.0096017   -0.0001007    0.4807525  
H   -0.2829630   -0.0004687   -4.0053125  
H   -3.1967441    0.0002094   -1.8949034  
C    0.0000000    0.0000000    1.4700000  
C    1.0662921    0.0000102    2.3034270  
C    0.4961870   -0.0000064    3.6418889  
C   -0.9663858    0.0000850    3.4240247  
N   -1.2632773    0.0000084    2.1528658  
C   -1.8985362    0.0000517    4.5177257  
C   -1.3925775   -0.0004564    5.7720543  
O   -2.1456383   -0.0005410    6.8851312  
C    0.0786232   -0.0009323    6.0245000  
O    0.4683759   -0.0012588    7.1921102  
C    1.0143166   -0.0008442    4.8859032  
H    2.1107198   -0.0000632    2.0421868  
H   -2.9622183    0.0003270    4.3293377  
H   -1.5042274   -0.0009692    7.6184419  
H    2.0724152   -0.0013148    5.1109744  
