58

C   -3.2573531    0.0097044   -1.5109374  
C   -2.5379358    0.0075046   -0.3591955  
C   -1.1434995    0.0032711   -0.7338496  
C   -1.1092566    0.0032135   -2.2088472  
N   -2.4227475    0.0068098   -2.6182604  
C    0.0265537    0.0001756   -2.9515662  
C    1.3002989   -0.0034934   -2.2514983  
O    2.3786687   -0.0064601   -2.8306427  
C    1.2877664   -0.0037522   -0.6895611  
O    2.3539852   -0.0071328   -0.0892040  
C    0.0000000    0.0000000    0.0000000  
H   -2.9383964    0.0085275    0.6389242  
H    0.0296297    0.0003230   -4.0327232  
H   -2.7280345    0.0092237   -3.5742108  
C   -5.6505901    0.0153853   -0.6678789  
C   -6.9152179    0.0173530   -1.1626391  
C   -6.8040582    0.0170401   -2.6022498  
C   -5.3606573    0.0146829   -2.9078290  
N   -4.7161123    0.0141711   -1.6923246  
C   -4.8400631    0.0133302   -4.1610986  
C   -5.7629530    0.0144842   -5.2839553  
O   -5.3925398    0.0134804   -6.4506148  
C   -7.2958057    0.0172329   -4.9836885  
O   -8.0824352    0.0185305   -5.9209580  
C   -7.7361396    0.0182189   -3.5908653  
H   -3.7780063    0.0114754   -4.3634381  
H   -8.7991382    0.0199183   -3.3914791  
H   -5.3226647    0.0149368    0.3589385  
C   -8.1552085    0.0196519   -0.3731337  
C   -8.3111328    0.0203449    0.9758518  
C   -9.7314959    0.0227319    1.2354657  
C  -10.3950387    0.0233482   -0.0822979  
N   -9.3840764    0.0218053   -1.0154874  
C  -11.7396268    0.0250625   -0.2661017  
C  -12.5900259    0.0266153    0.9126064  
O  -13.8125719    0.0282735    0.8519348  
C  -11.9088100    0.0262485    2.3182204  
O  -12.6145029    0.0278517    3.3178477  
C  -10.4497483    0.0240599    2.3888295  
H   -7.5212902    0.0194852    1.7057572  
H  -12.2061014    0.0253563   -1.2414530  
H   -9.9858890    0.0236141    3.3658446  
H   -9.5182860    0.0202235   -2.0099891  
C    2.4951002    2.0940188    2.9809380  
C    1.9440701    1.6314916    1.8291961  
C    0.8759964    0.7350050    2.2038498  
C    0.8497377    0.7130254    3.6788474  
N    1.8560616    1.5571714    4.0882609  
C   -0.0205033   -0.0168748    4.4215661  
C   -0.9962600   -0.8356168    3.7214979  
O   -1.8224391   -1.5286685    4.3006425  
C   -0.9864710   -0.8277881    2.1595606  
O   -1.8030528   -1.5133726    1.5592035  
C    0.0000000    0.0000000    1.4700000  
H    2.2509283    1.8888011    0.8310761  
H   -0.0229599   -0.0187323    5.5027230  
H    3.3143982    2.7817323    3.1139444  
H    2.0889452    1.7545833    5.0442112  
