58

C    3.2573669   -0.0002925   -1.5109380  
C    2.5379467   -0.0001713   -0.3591961  
C    1.1435042    0.0000333   -0.7338503  
C    1.1092608   -0.0000082   -2.2088473  
N    2.4227562    0.0001908   -2.6182610  
C   -0.0265531   -0.0002522   -2.9515663  
C   -1.3003036   -0.0002637   -2.2514982  
O   -2.3786784   -0.0004128   -2.8306429  
C   -1.2877725    0.0000313   -0.6895608  
O   -2.3539961    0.0003311   -0.0892037  
C    0.0000000    0.0000000    0.0000000  
H    2.9384087   -0.0000372    0.6389241  
H    4.3270394   -0.0004769   -1.6439441  
H    2.7280494   -0.0013410   -3.5742113  
C    2.3639620   -2.0106297   -6.1309155  
C    1.9129291   -1.6290292   -4.9133235  
C    0.8175376   -0.7123245   -5.1894926  
C    0.7430708   -0.6543936   -6.6651897  
N    1.6470534   -1.4134615   -7.2225231  
C   -0.2278186    0.1567425   -7.3467461  
C   -1.0855848    0.8769545   -6.5885470  
O   -2.0419119    1.6763796   -7.0909407  
C   -1.0358694    0.8393044   -5.0971476  
O   -1.8474430    1.5206514   -4.4707809  
C   -0.0307353   -0.0004644   -4.4215606  
H    2.2783608   -1.9322472   -3.9470967  
H   -0.2594103    0.1802240   -8.4262646  
H   -2.4872875    2.0513188   -6.3097785  
C    3.4652154   -2.9340769   -6.4397611  
C    4.2628967   -3.5996025   -5.5723738  
C    5.1729493   -4.3645036   -6.4109623  
C    4.7719382   -4.0329902   -7.7951133  
N    3.7714370   -3.1948683   -7.8183083  
C    5.4397885   -4.5959193   -8.9362411  
C    6.4620405   -5.4508549   -8.7051115  
O    7.1735502   -6.0497602   -9.6752182  
C    6.8906078   -5.8049463   -7.3197917  
O    7.8288886   -6.5900736   -7.1840544  
C    6.1896638   -5.2143270   -6.1657672  
H    4.2370048   -3.5744876   -4.4963745  
H    5.1255808   -4.3361709   -9.9365985  
H    7.8274467   -6.5954896   -9.2021944  
H    6.5305705   -5.4962264   -5.1785767  
C    2.4951002    2.0940188    2.9809380  
C    1.9440701    1.6314916    1.8291961  
C    0.8759964    0.7350050    2.2038498  
C    0.8497377    0.7130254    3.6788474  
N    1.8560616    1.5571714    4.0882609  
C   -0.0205033   -0.0168748    4.4215661  
C   -0.9962600   -0.8356168    3.7214979  
O   -1.8224391   -1.5286685    4.3006425  
C   -0.9864710   -0.8277881    2.1595606  
O   -1.8030528   -1.5133726    1.5592035  
C    0.0000000    0.0000000    1.4700000  
H    2.2509283    1.8888011    0.8310761  
H   -0.0229599   -0.0187323    5.5027230  
H    3.3143982    2.7817323    3.1139444  
H    2.0889452    1.7545833    5.0442112  
