62

C    0.0000000    0.0000000    0.0000000  
C    0.6155679    0.8533069   -0.8862344  
C    0.2881992    0.3984121   -2.1979131  
C   -0.5369210   -0.7455236   -2.0478680  
N   -0.6904474   -0.9610017   -0.7007909  
C   -1.0494532   -1.4564642   -3.1372084  
C   -0.7233348   -1.0041933   -4.4010421  
O   -1.1972076   -1.6609145   -5.4997572  
C    0.0988586    0.1350443   -4.5711962  
O    0.3330853    0.4592881   -5.8915550  
C    0.6050585    0.8367335   -3.4969893  
H    1.2264178    1.6988859   -0.6200569  
H   -1.2343848   -1.6976769   -0.2891820  
H   -1.6787489   -2.3291599   -3.0295506  
H   -0.8553962   -1.1874774   -6.2693582  
H    0.8958654    1.2391483   -5.9180049  
C    4.1886530    2.1433184   -1.3902898  
C    4.5077132    3.2813566   -2.0495687  
C    3.4849066    3.4202285   -3.0747911  
C    2.6053313    2.2467914   -2.8851147  
N    3.0128122    1.4946887   -1.8990668  
C    1.4559286    2.0152737   -3.7159930  
C    1.1967710    2.9153183   -4.6917443  
O    0.1585359    2.8244492   -5.5401848  
C    2.0654129    4.1098276   -4.9080088  
O    1.7696240    4.8874725   -5.8152009  
C    3.2386755    4.3251311   -4.0425471  
H    0.2394057    3.6064193   -6.1156280  
H    3.8425528    5.2025250   -4.2316049  
H    4.7037890    1.6915793   -0.5574994  
C    8.7276623    2.4973237   -0.9836402  
C    9.1388720    3.8084573   -0.9180505  
C    8.0033810    4.6166183   -1.2215909  
C    6.9187730    3.7356872   -1.4655415  
N    7.3934535    2.4564196   -1.3146431  
C    5.6371875    4.1871080   -1.7950041  
C    5.4469694    5.5527081   -1.8794461  
O    4.2153242    6.0476630   -2.1973820  
C    6.5167854    6.4476606   -1.6399236  
O    6.1678112    7.7767265   -1.7629903  
C    7.7814293    6.0030213   -1.3151203  
H   10.1350040    4.1414067   -0.6817056  
H    6.8483390    1.6194157   -1.4159150  
H    4.3008606    7.0099092   -2.2029296  
H    6.9463792    8.3133086   -1.5854672  
H    8.5812170    6.7124017   -1.1373598  
H    9.2808690    1.5880591   -0.8219029  
C    1.0965515   -0.0001358    2.2710304  
C    0.0000000    0.0000000    1.4700000  
C   -1.1546562   -0.0001469    2.3369512  
C   -0.6372014   -0.0003519    3.7186280  
N    0.7342871   -0.0007337    3.6095011  
C   -1.4147739   -0.0001353    4.8308716  
C   -2.8576048    0.0001048    4.6554461  
O   -3.6427778    0.0002493    5.5944904  
C   -3.4275839    0.0000726    3.2011665  
O   -4.6406829   -0.0000333    3.0410059  
C   -2.4891866    0.0001091    2.0816745  
H   -1.0150448   -0.0001615    5.8354244  
H   -2.8919121    0.0002919    1.0779135  
H    2.1388271   -0.0000662    1.9961646  
H    1.3735872    0.0006099    4.3830260  
