58

C    6.9437609   -1.8460483   -6.6468514  
C    8.0295022   -2.6597111   -6.7033639  
C    8.5381134   -2.5899021   -8.0529111  
C    7.6533583   -1.6621984   -8.7832292  
N    6.7073963   -1.2466930   -7.8747125  
C    7.8000349   -1.3286180  -10.0904831  
C    8.9027712   -1.9231240  -10.8274175  
O    9.1191194   -1.6860801  -12.0086465  
C    9.8520882   -2.9085383  -10.0740506  
O   10.7837617   -3.4154846  -10.6841757  
C    9.5926027   -3.1901609   -8.6643681  
H    8.4284498   -3.2424577   -5.8922783  
H    7.1399359   -0.6458919  -10.6072661  
H   10.2546549   -3.8733758   -8.1499472  
H    5.9615312   -0.6051415   -8.0725622  
C    6.1923727   -2.0934464   -4.2359234  
C    5.2191579   -1.6310079   -3.4094375  
C    4.3967568   -0.7348789   -4.1875409  
C    4.9747507   -0.7130129   -5.5448301  
N    6.0607564   -1.5568759   -5.5077365  
C    4.4832131    0.0165646   -6.5781804  
C    3.3064983    0.8350541   -6.3374474  
O    2.7884378    1.5278083   -7.2034761  
C    2.6779836    0.8273397   -4.9075121  
O    1.6873118    1.5127139   -4.6928207  
C    3.2973506   -0.0000934   -3.8752374  
H    5.0920135   -1.8881512   -2.3729405  
H    4.9222082    0.0183443   -7.5662029  
H    6.9947906   -2.7809152   -4.0228475  
C    3.3321174    0.0004714   -1.3379332  
C    2.6974186    0.0000115   -2.5332308  
C    1.2800441   -0.0002119   -2.2052838  
C    1.2395035    0.0000643   -0.7271293  
N    2.4394063    0.0005458   -0.2131034  
C    0.0000000    0.0000000    0.0000000  
C   -1.1468701    0.0000634   -0.7169542  
O   -2.3742201    0.0000072   -0.1695492  
C   -1.1388767    0.0001606   -2.2096354  
O   -2.2206229    0.0000903   -2.7970413  
C    0.1454526    0.0001815   -2.9324239  
H   -2.9844344    0.0001023   -0.9290168  
H    0.1083580    0.0003680   -4.0135594  
H    4.3940040    0.0007617   -1.1498630  
C    2.5528530    2.1414826    2.8079335  
C    2.0663498    1.7338582    4.0032312  
C    0.9804344    0.8229586    3.6752840  
C    0.9495562    0.7966882    2.1971295  
N    1.8690446    1.5676019    1.6831036  
C    0.0000000    0.0000000    1.4700000  
C   -0.8785127   -0.7372425    2.1869543  
O   -1.8187535   -1.5261249    1.6395491  
C   -0.8723269   -0.7321790    3.6796354  
O   -1.7010379   -1.4274584    4.2670412  
C    0.1115397    0.0933559    4.4024240  
H    2.4028853    2.0163452    4.9860947  
H   -2.2861435   -1.9184361    2.3990168  
H    0.0832434    0.0693689    5.4835595  
H    3.3664920    2.8238276    2.6198634  
