58

C    7.7789516   -1.1579545   -3.9968334  
C    9.0642495   -0.7989561   -4.2482430  
C    9.0622379    0.6222870   -4.5029969  
C    7.6603636    1.0650447   -4.3784755  
N    6.9331516   -0.0616543   -4.0709015  
C    7.2403253    2.3445055   -4.5465553  
C    8.2353259    3.3527604   -4.8720275  
O    7.9570329    4.5324413   -5.0429270  
C    9.7258579    2.9062755   -5.0090341  
O   10.5724248    3.7462122   -5.2830592  
C   10.0562671    1.4981300   -4.8045633  
H    9.9164634   -1.4549312   -4.2546942  
H    6.2071571    2.6482628   -4.4506119  
H   11.0906068    1.1971998   -4.9010242  
H    7.3784439   -2.1312065   -3.7638903  
C    4.1985330   -2.1423498   -1.2324142  
C    5.3247411   -1.7348288   -1.8626208  
C    4.8654772   -0.8236655   -2.8996154  
C    3.3948137   -0.7971457   -2.7478595  
N    2.9980296   -1.5681521   -1.7721028  
C    2.5562217   -0.0001543   -3.6003001  
C    3.1594332    0.7371395   -4.5604398  
O    2.5003399    1.5262938   -5.4258142  
C    4.6414695    0.7318289   -4.7384884  
O    5.1222596    1.4271711   -5.6332286  
C    5.4799816   -0.0940150   -3.8514687  
H    6.3415670   -2.0175427   -1.6499837  
H    3.1964050    1.9185699   -5.9832782  
H    4.1121693   -2.8248211   -0.4019036  
C    0.0000000    0.0000000    0.0000000  
C    1.0541688   -0.0001719   -0.8560391  
C    0.5103141   -0.0000449   -2.1935955  
C   -0.9576367    0.0002461   -2.0455733  
N   -1.2018459   -0.0001392   -0.6915970  
C   -1.8348306    0.0008319   -3.0810611  
C   -1.2972842    0.0009739   -4.4314605  
O   -2.0050664    0.0014267   -5.4301321  
C    0.2542628    0.0004190   -4.6117571  
O    0.7184677    0.0002263   -5.7439119  
C    1.0974556    0.0000880   -3.4189127  
H    2.0940752   -0.0005479   -0.5817978  
H   -2.9081050    0.0011669   -2.9507065  
H   -2.1128195    0.0014911   -0.2706793  
C    3.2798086   -0.0005857    2.9199648  
C    2.5571146   -0.0005566    4.0696553  
C    1.1637436   -0.0001548    3.6910360  
C    1.1336965    0.0000200    2.2159470  
N    2.4483514    0.0001428    1.8102719  
C    0.0000000    0.0000000    1.4700000  
C   -1.2757367    0.0000186    2.1664417  
O   -2.3524596    0.0000640    1.5842315  
C   -1.2676493    0.0000873    3.7284083  
O   -2.3355761    0.0004100    4.3257297  
C    0.0181563   -0.0001760    4.4216297  
H    2.9547357   -0.0006076    5.0689105  
H    0.0150794   -0.0003319    5.5031631  
H    4.3498549   -0.0008612    2.7900019  
H    2.7563627   -0.0012824    0.8551938  
