62

C    2.3021906   -2.1255950   -5.9826735  
C    1.8095068   -1.6629741   -4.7844620  
C    0.7354734   -0.7756720   -5.0906430  
C    0.6180409   -0.7363233   -6.5036494  
N    1.5855135   -1.5656964   -7.0142914  
C   -0.3411042    0.0395985   -7.1615057  
C   -1.1974964    0.7892231   -6.3786691  
O   -2.1530487    1.5644633   -6.9693777  
C   -1.0957952    0.7634642   -4.9673539  
O   -2.0200012    1.5643295   -4.3287603  
C   -0.1496416   -0.0015611   -4.3176956  
H    2.1795065   -1.9311006   -3.8096787  
H    1.7382194   -1.7475808   -7.9897805  
H   -2.6345083    1.9978454   -6.2526894  
H   -1.8829375    1.4894723   -3.3794379  
H    3.1090430   -2.8095403   -6.1830925  
C    3.3003542    0.0005277   -1.4738988  
C    2.5232812    0.0003500   -2.6090746  
C    1.1623199   -0.0001317   -2.1820102  
C    1.1711883    0.0000584   -0.7636139  
N    2.4852300   -0.0014919   -0.3662359  
C    0.0000000    0.0000000    0.0000000  
C   -1.2020384    0.0000521   -0.6806476  
O   -2.3759249    0.0003494    0.0157746  
C   -1.2314658   -0.0005112   -2.0955510  
O   -2.5054393   -0.0008037   -2.6250177  
C   -0.0764517   -0.0007271   -2.8495192  
H    2.8919953   -0.0005617   -3.6205301  
H    2.8036265    0.0088183    0.5858663  
H   -3.0835641    0.0000349   -0.6418814  
H   -2.4360049   -0.0011526   -3.5845918  
H    4.3715550    0.0004897   -1.3667140  
C   -0.3518757   -0.9671851   -9.4737071  
C   -0.4696858    0.0864276   -8.6251227  
C   -0.7430657    1.2504088   -9.4345956  
C   -0.7751256    0.7852146  -10.8343658  
N   -0.5303896   -0.5679248  -10.7895577  
C   -1.0057567    1.5858451  -11.9055824  
C   -1.2376783    3.0001549  -11.6637655  
O   -1.4543901    3.8027605  -12.5621877  
C   -1.2080280    3.5147687  -10.1892826  
O   -1.4016121    4.7035378   -9.9733820  
C   -0.9494758    2.5555896   -9.1183122  
H   -1.0251610    1.2244640  -12.9243743  
H   -0.9308076    2.9199175   -8.1001564  
H   -0.1494507   -2.0016933   -9.2485252  
H   -0.4899125   -1.1726749  -11.5893618  
C    0.0000000    0.0000000    1.4700000  
C    1.0662921    0.0000102    2.3034270  
C    0.4961870   -0.0000064    3.6418889  
C   -0.9663858    0.0000850    3.4240247  
N   -1.2632773    0.0000084    2.1528658  
C   -1.8985362    0.0000517    4.5177257  
C   -1.3925775   -0.0004564    5.7720543  
O   -2.1456383   -0.0005410    6.8851312  
C    0.0786232   -0.0009323    6.0245000  
O    0.4683759   -0.0012588    7.1921102  
C    1.0143166   -0.0008442    4.8859032  
H    2.1107198   -0.0000632    2.0421868  
H   -2.9622183    0.0003270    4.3293377  
H   -1.5042274   -0.0009692    7.6184419  
H    2.0724152   -0.0013148    5.1109744  
