60

C    0.0000000    0.0000000    0.0000000  
C    1.0521656   -0.0011982   -0.8862348  
C    0.4917205   -0.0011991   -2.1979135  
C   -0.9187439    0.0003223   -2.0478679  
N   -1.1833177   -0.0009317   -0.7007907  
C   -1.7951716    0.0010496   -3.1372083  
C   -1.2375857    0.0005328   -4.4010421  
O   -2.0474240    0.0015528   -5.4997570  
C    0.1673557   -0.0013572   -4.5711966  
O    0.5673492   -0.0020720   -5.8915554  
C    1.0325752   -0.0023487   -3.4969897  
H    2.0953050   -0.0030811   -0.6200571  
H   -2.0989779    0.0102537   -0.2891815  
H   -1.4634917    0.0006620   -6.2693585  
H    1.5290675   -0.0033264   -5.9180055  
H    2.1042124   -0.0039767   -3.6584465  
C   -4.5106950    2.0951617   -0.3556513  
C   -3.4200203    1.6321507   -1.0190705  
C   -3.9000872    0.7371740   -2.0454173  
C   -5.3703925    0.7166080   -1.9247105  
N   -5.6766992    1.5600469   -0.8817935  
C   -6.1968247   -0.0116513   -2.7173976  
C   -5.5982377   -0.8299925   -3.7588133  
O   -6.2574838   -1.5216045   -4.5239072  
C   -4.0430796   -0.8236411   -3.9045777  
O   -3.5277217   -1.5089037   -4.7775508  
C   -3.2578668    0.0024299   -2.9908493  
H   -2.3960405    1.8881902   -0.8128605  
H   -4.5607518    2.7821119    0.4734953  
H   -6.6045068    1.7581042   -0.5546943  
C   -8.4707559    1.0373950   -2.3076928  
C   -7.6598494   -0.0127929   -2.5743652  
C   -8.5523881   -1.1557192   -2.6909543  
C   -9.9027018   -0.5992497   -2.4594829  
N   -9.8611677    0.6858903   -2.2343615  
C  -11.0804075   -1.4221086   -2.4910914  
C  -10.9166347   -2.7408615   -2.7428915  
O  -11.9271220   -3.6248769   -2.8018221  
C   -9.5669589   -3.3323569   -2.9809418  
O   -9.4925991   -4.5406170   -3.2040977  
C   -8.3742912   -2.4674596   -2.9432417  
H  -12.0547238   -0.9888370   -2.3181954  
H  -11.4990549   -4.4781454   -2.9963576  
H   -7.4147995   -2.9344129   -3.1208950  
H   -8.1933183    2.0676676   -2.1510398  
C    0.0000000    0.0000000    1.4700000  
C    1.0541688    0.0001722    2.3260392  
C    0.5103138    0.0000454    3.6635956  
C   -0.9576371   -0.0002459    3.5155732  
N   -1.2018458    0.0001392    2.1615969  
C   -1.8348311   -0.0008317    4.5510609  
C   -1.2972847   -0.0009736    5.9014604  
O   -2.0050672   -0.0014265    6.9001319  
C    0.2542623   -0.0004184    6.0817573  
O    0.7184670   -0.0002256    7.2139121  
C    1.0974552   -0.0000873    4.8889129  
H    2.0940752    0.0005483    2.0517982  
H   -2.9081052   -0.0011668    4.4207061  
H    2.1707277    0.0000911    5.0223670  
H   -2.1128194   -0.0014912    1.7406791  
