58

C    8.1075239    0.0023996   -0.9893323  
C    8.3785843    0.0035113    0.3413066  
C    9.8159813    0.0044933    0.4781310  
C   10.3640479    0.0038873   -0.8916915  
N    9.2767666    0.0022190   -1.7347253  
C   11.6879163    0.0048956   -1.1901504  
C   12.6362866    0.0064718   -0.0887298  
O   13.8491221    0.0074047   -0.2540437  
C   12.0781477    0.0068853    1.3701343  
O   12.8669844    0.0079021    2.3055467  
C   10.6305185    0.0059797    1.5656354  
H    7.6542602    0.0034476    1.1362712  
H   12.0690099    0.0045557   -2.2019199  
H   10.2521721    0.0064789    2.5788372  
H    9.3251745    0.0030118   -2.7370740  
C    5.5868521   -0.0000800   -1.0681557  
C    6.8043816    0.0011457   -1.6695669  
C    6.5701481    0.0006875   -3.0943372  
C    5.1058543   -0.0008879   -3.2749811  
N    4.5679461   -0.0016854   -2.0086701  
C    4.4796776   -0.0013316   -4.4789774  
C    5.3028527   -0.0004066   -5.6768576  
O    4.8337321   -0.0007719   -6.8074446  
C    6.8558133    0.0010131   -5.5091793  
O    7.5591499    0.0014937   -6.5104683  
C    7.4139943    0.0016564   -4.1592590  
H    3.4041775   -0.0023629   -4.5894721  
H    8.4901794    0.0028448   -4.0517870  
H    5.3482112   -0.0001627   -0.0169946  
C    3.1301149   -0.0010311   -1.7028252  
C    2.5367768   -0.0002767   -0.4864665  
C    1.1089904    0.0001028   -0.7656183  
C    1.0177872   -0.0004148   -2.2415132  
N    2.1993578   -0.0011611   -2.7963820  
C   -0.2459209   -0.0002877   -2.9257118  
C   -1.3675319   -0.0000605   -2.1698524  
O   -2.6129313    0.0000867   -2.6748490  
C   -1.3083584    0.0000910   -0.6783232  
O   -2.3693261    0.0004206   -0.0541692  
C    0.0000000    0.0000000    0.0000000  
H    3.0096017   -0.0001007    0.4807525  
H   -0.2829630   -0.0004687   -4.0053125  
H   -3.1967441    0.0002094   -1.8949034  
C    0.8681109    0.7263879    2.2709268  
C    0.6127770    0.5096195    3.5869401  
C   -0.4920590   -0.4175482    3.6542670  
C   -0.8620974   -0.7254003    2.2596025  
N    0.0000000    0.0000000    1.4700000  
C   -1.8641242   -1.5660088    1.8976294  
C   -2.6293522   -2.2103885    2.9520183  
O   -3.5512764   -2.9839180    2.7283916  
C   -2.2549728   -1.8987399    4.4361073  
O   -2.8923672   -2.4351063    5.3323774  
C   -1.1543735   -0.9755647    4.7012123  
H    1.1382914    0.9492124    4.4159191  
H   -2.1192137   -1.7782617    0.8686553  
H   -0.9013378   -0.7652422    5.7314848  
H    1.6172880    1.3558399    1.8188057  
