62

C    0.0000000    0.0000000    0.0000000  
C    1.0521665   -0.0011901   -0.8862342  
C    0.4917217   -0.0011956   -2.1979130  
C   -0.9187428    0.0003148   -2.0478683  
N   -1.1833173   -0.0009411   -0.7007911  
C   -1.7951703    0.0010349   -3.1372088  
C   -1.2375840    0.0005224   -4.4010424  
O   -2.0474220    0.0015359   -5.4997576  
C    0.1673578   -0.0013566   -4.5711965  
O    0.5673521   -0.0020688   -5.8915549  
C    1.0325768   -0.0023412   -3.4969890  
H    2.0953059   -0.0030648   -0.6200563  
H   -2.0989774    0.0102371   -0.2891826  
H   -1.4634888    0.0006496   -6.2693593  
H    1.5290706   -0.0033152   -5.9180048  
C    4.3850067   -2.1302626   -1.4420384  
C    3.1441272   -1.6664980   -1.8129924  
C    3.3426798   -0.7794194   -2.9122052  
C    4.7370097   -0.7413797   -3.1697394  
N    5.3406655   -1.5712835   -2.2578860  
C    5.2968237    0.0339845   -4.1896446  
C    4.4333108    0.7843870   -4.9638663  
O    4.9266682    1.5591317   -5.9735109  
C    3.0391102    0.7599365   -4.7221539  
O    2.3124198    1.5614494   -5.5782152  
C    2.4861699   -0.0045381   -3.7159922  
H    2.2107766   -1.9337380   -1.3477689  
H    6.3263421   -1.7540855   -2.2030555  
H    6.3586901    0.0674338   -4.3909477  
H    4.1660102    1.9932088   -6.3812376  
H    1.3813911    1.4874682   -5.3473121  
H    4.6641251   -2.8144409   -0.6591256  
C   -4.5109219    2.0976849   -0.3577875  
C   -3.4201972    1.6341171   -1.0207349  
C   -3.9001660    0.7380414   -2.0461680  
C   -5.3704688    0.7174368   -1.9254395  
N   -5.6768680    1.5619056   -0.8833829  
C   -6.1968216   -0.0117213   -2.7173828  
C   -5.5981455   -0.8310587   -3.7579634  
O   -6.2573155   -1.5235232   -4.5223511  
C   -4.0429878   -0.8246850   -3.9037353  
O   -3.5275550   -1.5107812   -4.7760091  
C   -3.2578657    0.0024038   -2.9908504  
H   -2.3962452    1.8904794   -0.8147868  
H   -7.2728526   -0.0125719   -2.6121833  
H   -4.5610541    2.7854749    0.4706579  
H   -6.6046971    1.7601943   -0.5564857  
C    1.0965515   -0.0001358    2.2710304  
C    0.0000000    0.0000000    1.4700000  
C   -1.1546562   -0.0001469    2.3369512  
C   -0.6372014   -0.0003519    3.7186280  
N    0.7342871   -0.0007337    3.6095011  
C   -1.4147739   -0.0001353    4.8308716  
C   -2.8576048    0.0001048    4.6554461  
O   -3.6427778    0.0002493    5.5944904  
C   -3.4275839    0.0000726    3.2011665  
O   -4.6406829   -0.0000333    3.0410059  
C   -2.4891866    0.0001091    2.0816745  
H   -1.0150448   -0.0001615    5.8354244  
H   -2.8919121    0.0002919    1.0779135  
H    2.1388271   -0.0000662    1.9961646  
H    1.3735872    0.0006099    4.3830260  
