62

C   -0.7827203    0.7995047   -0.8003800  
C    0.0000000    0.0000000    0.0000000  
C    0.7909478   -0.8103704   -0.8673531  
C    0.4447665   -0.4577874   -2.1969280  
N   -0.5147312    0.5210375   -2.1202235  
C    1.0305932   -1.0581498   -3.3154812  
C    1.9834614   -2.0319715   -3.0876861  
O    2.5874445   -2.6503120   -4.1440360  
C    2.3420398   -2.3977745   -1.7684335  
O    3.3056135   -3.3832350   -1.7073135  
C    1.7643242   -1.8061142   -0.6644821  
H   -0.9450243    0.9747444   -2.9057037  
H    3.2098347   -3.2866121   -3.7685143  
H    3.4901135   -3.5712384   -0.7819926  
H    2.0591545   -2.1072065    0.3339649  
H   -1.5119882    1.5453449   -0.5342062  
C    0.1632777    2.8632330   -5.2802153  
C    0.4767025    1.8831054   -4.3672080  
C    0.4503414    0.6396849   -5.0656423  
C    0.1122732    0.9262441   -6.4130547  
N   -0.0570451    2.2852276   -6.5085136  
C   -0.0043888   -0.0661524   -7.3909747  
C    0.2246924   -1.3715785   -7.0016647  
O    0.1245261   -2.3797331   -7.9163248  
C    0.5627125   -1.6775386   -5.6619078  
O    0.7594660   -3.0235236   -5.4317841  
C    0.6777125   -0.6990522   -4.6965761  
H    0.6961373    2.0443704   -3.3256539  
H   -0.2915034    2.7832978   -7.3481187  
H   -0.2618750    0.1456949   -8.4195771  
H    0.3202405   -3.1986158   -7.4426251  
H    0.9837612   -3.1438559   -4.5039827  
C    0.2449292    5.0000173   -3.9142542  
C    0.0610751    6.3350650   -4.0813478  
C   -0.2793779    6.5427059   -5.4690840  
C   -0.2788221    5.2096312   -6.1013034  
N    0.0469075    4.3181420   -5.1052927  
C   -0.5538538    4.9792627   -7.4101172  
C   -0.8714038    6.1204518   -8.2523661  
O   -1.1332174    6.0167847   -9.4435873  
C   -0.8775852    7.5414817   -7.6039525  
O   -1.1431860    8.5098740   -8.3031910  
C   -0.5651234    7.6633935   -6.1822078  
H    0.1535904    7.0884412   -3.3194555  
H   -0.5481519    3.9934389   -7.8539960  
H   -0.5717357    8.6507611   -5.7408626  
H    0.5086327    4.4569367   -3.0212740  
C    2.5128556    2.1077716    2.9199648  
C    1.9592212    1.6432552    4.0696553  
C    0.8915788    0.7479214    3.6910360  
C    0.8684491    0.7287414    2.2159470  
N    1.8754542    1.5738793    1.8102719  
C    0.0000000    0.0000000    1.4700000  
C   -0.9772830   -0.8200135    2.1664417  
O   -1.8021297   -1.5120829    1.5842315  
C   -0.9711318   -0.8147624    3.7284083  
O   -1.7894187   -1.5009653    4.3257297  
C    0.0140216    0.0115358    4.4216297  
H    2.2638494    1.8988021    5.0689105  
H    0.0117648    0.0094386    5.5031631  
H    3.3327358    2.7953732    2.7900019  
H    2.1123206    1.7707734    0.8551938  
