58

C    2.4049833   -1.9809185   -7.6893901  
C    3.4746159   -2.8131796   -7.7748455  
C    3.9057515   -2.8044952   -9.1528456  
C    2.9930888   -1.8923905   -9.8683195  
N    2.1065714   -1.4266412   -8.9248928  
C    3.0689057   -1.6128058  -11.1941355  
C    4.1193690   -2.2531208  -11.9681276  
O    4.2706747   -2.0661300  -13.1683096  
C    5.0970267   -3.2229952  -11.2310156  
O    5.9851898   -3.7681488  -11.8722909  
C    4.9151814   -3.4448649   -9.7986881  
H    3.9116081   -3.3698071   -6.9650207  
H    2.3894730   -0.9406053  -11.6995344  
H    5.5964220   -4.1176772   -9.2957381  
H    1.3592889   -0.7816906   -9.1055995  
C    1.7704315   -2.0997830   -5.2515185  
C    1.5928585   -1.6333167   -6.5144327  
C    0.4607455   -0.7379008   -6.4771947  
C   -0.0100422   -0.7207977   -5.0790331  
N    0.8257127   -1.5670939   -4.3875226  
C   -1.0641734    0.0073898   -4.6315339  
C   -1.7831601    0.8289564   -5.5910245  
O   -2.7459476    1.5206786   -5.2862920  
C   -1.3021140    0.8259151   -7.0770897  
O   -1.8998118    1.5134384   -7.8939923  
C   -0.1528624    0.0000285   -7.4390071  
H    0.1740158    0.0036595   -8.4699583  
H    2.5118283   -2.7880435   -4.8793394  
H    0.7607705   -1.7654785   -3.4059559  
C    1.1319248    0.0015675   -0.8009270  
C    0.7969916    0.0034959   -2.1169404  
C   -0.6453336    0.0035703   -2.1842672  
C   -1.1266831    0.0015415   -0.7896027  
N    0.0000000    0.0000000    0.0000000  
C   -2.4346129    0.0013924   -0.4276297  
C   -3.4350110    0.0031352   -1.4820184  
O   -4.6384610    0.0030897   -1.2583919  
C   -2.9478958    0.0050460   -2.9661075  
O   -3.7809377    0.0062160   -3.8623775  
C   -1.5113821    0.0053068   -3.2312125  
H    1.4821240    0.0045436   -2.9459192  
H   -2.7664565    0.0000185    0.6013447  
H    2.1104318    0.0009428   -0.3488058  
C    0.8400945    0.7047457    2.2710304  
C    0.0000000    0.0000000    1.4700000  
C   -0.8844236   -0.7423113    2.3369512  
C   -0.4878984   -0.4098547    3.7186280  
N    0.5629682    0.4714286    3.6095011  
C   -1.0836927   -0.9095027    4.8308716  
C   -2.1891196   -1.8367527    4.6554461  
O   -2.7906899   -2.3413415    5.5944904  
C   -2.6257283   -2.2031529    3.2011665  
O   -3.5549479   -2.9829990    3.0410059  
C   -1.9068976   -1.5999348    2.0816745  
H   -0.7774656   -0.6525820    5.8354244  
H   -2.2155208   -1.8586617    1.0779135  
H    1.6384792    1.3747609    1.9961646  
H    1.0518368    0.8833920    4.3830260  
