58

C   -1.2650268    0.6885100   -8.9959857  
C   -0.3129480   -0.1234504   -9.5235661  
C   -0.4462631   -0.0508628  -10.9594608  
C   -1.5620346    0.8766162  -11.2270930  
N   -2.0153029    1.2893516   -9.9953921  
C   -2.0024586    1.2123726  -12.4660436  
C   -1.3330146    0.6206128  -13.6124297  
O   -1.6555756    0.8597480  -14.7687463  
C   -0.1490658   -0.3645148  -13.3524421  
O    0.4219999   -0.8691595  -14.3097721  
C    0.2347143   -0.6486349  -11.9719214  
H    0.4011152   -0.7068167   -8.9700224  
H   -2.8226137    1.8948887  -12.6404759  
H    1.0555921   -1.3316333  -11.8004672  
H   -2.7729756    1.9300879   -9.8456022  
C    0.5437027   -0.7271855   -5.2249461  
C    0.2434227   -0.5105994   -6.5314672  
C   -0.8629397    0.4167214   -6.5610285  
C   -1.1848923    0.7248622   -5.1545486  
N   -0.2963293   -0.0005341   -4.3948471  
C   -2.1737969    1.5656803   -4.7585730  
C   -2.9746388    2.2099974   -5.7862128  
O   -3.8882419    2.9837016   -5.5312376  
C   -2.6514148    1.8980444   -7.2822128  
O   -3.3190914    2.4343555   -8.1561913  
C   -1.5606854    0.9746610   -7.5847433  
H    0.7401387   -0.9504094   -7.3779032  
H   -2.3934219    1.7781436   -3.7214932  
H    1.3078531   -1.3566733   -4.7986720  
C    3.1301146   -0.0010313   -1.7028256  
C    2.5367765   -0.0002766   -0.4864669  
C    1.1089901    0.0001027   -0.7656184  
C    1.0177865   -0.0004150   -2.2415133  
N    2.1993571   -0.0011612   -2.7963824  
C   -0.2459219   -0.0002879   -2.9257116  
C   -1.3675326   -0.0000606   -2.1698520  
O   -2.6129318    0.0000865   -2.6748483  
C   -1.3083588    0.0000910   -0.6783229  
O   -2.3693264    0.0004206   -0.0541685  
C    0.0000000    0.0000000    0.0000000  
H    3.0096016   -0.0001007    0.4807518  
H   -3.1967444    0.0002093   -1.8949026  
H    4.1849275   -0.0015114   -1.9271979  
C    0.8400945    0.7047457    2.2710304  
C    0.0000000    0.0000000    1.4700000  
C   -0.8844236   -0.7423113    2.3369512  
C   -0.4878984   -0.4098547    3.7186280  
N    0.5629682    0.4714286    3.6095011  
C   -1.0836927   -0.9095027    4.8308716  
C   -2.1891196   -1.8367527    4.6554461  
O   -2.7906899   -2.3413415    5.5944904  
C   -2.6257283   -2.2031529    3.2011665  
O   -3.5549479   -2.9829990    3.0410059  
C   -1.9068976   -1.5999348    2.0816745  
H   -0.7774656   -0.6525820    5.8354244  
H   -2.2155208   -1.8586617    1.0779135  
H    1.6384792    1.3747609    1.9961646  
H    1.0518368    0.8833920    4.3830260  
