58

C    2.1349317   -0.0016726   -8.0806843  
C    3.1461798   -0.0010972   -7.1743448  
C    4.3814993   -0.0019491   -7.9218882  
C    4.0043396   -0.0030468   -9.3482613  
N    2.6288040   -0.0032199   -9.3763803  
C    4.8889025   -0.0036657  -10.3774613  
C    6.3070634   -0.0034472  -10.0590950  
O    7.1819250   -0.0040207  -10.9152007  
C    6.7292484   -0.0025423   -8.5552461  
O    7.9203417   -0.0026576   -8.2749666  
C    5.6839387   -0.0016495   -7.5348634  
H    3.0389836   -0.0003630   -6.1042414  
H    4.5912932   -0.0043388  -11.4168536  
H    5.9846092   -0.0008208   -6.4959602  
H    2.0697889   -0.0023419  -10.2097761  
C   -0.2963294   -0.0005341   -4.3948471  
C    0.7278651   -0.0010065   -5.2865309  
C    0.1384644   -0.0010228   -6.6046519  
C   -1.3235472   -0.0004882   -6.4063792  
N   -1.5211839   -0.0006101   -5.0448251  
C   -2.2357329    0.0000548   -7.4111788  
C   -1.7448089   -0.0001094   -8.7792165  
O   -2.4864201    0.0002816   -9.7530304  
C   -0.2003569   -0.0009258   -9.0126110  
O    0.2247525   -0.0013772  -10.1600176  
C    0.6832435   -0.0011826   -7.8493819  
H    1.7765638   -0.0014916   -5.0481103  
H   -3.3039063    0.0005715   -7.2440972  
H   -2.4171880    0.0012263   -4.5929174  
C    3.1301143   -0.0010313   -1.7028257  
C    2.5367765   -0.0002767   -0.4864669  
C    1.1089900    0.0001027   -0.7656184  
C    1.0177864   -0.0004150   -2.2415133  
N    2.1993571   -0.0011613   -2.7963824  
C   -0.2459220   -0.0002879   -2.9257116  
C   -1.3675327   -0.0000606   -2.1698519  
O   -2.6129319    0.0000866   -2.6748482  
C   -1.3083588    0.0000910   -0.6783229  
O   -2.3693264    0.0004206   -0.0541685  
C    0.0000000    0.0000000    0.0000000  
H    3.0096014   -0.0001008    0.4807517  
H   -3.1967445    0.0002093   -1.8949025  
H    4.1849272   -0.0015113   -1.9271980  
C    2.4951002    2.0940188    2.9809380  
C    1.9440701    1.6314916    1.8291961  
C    0.8759964    0.7350050    2.2038498  
C    0.8497377    0.7130254    3.6788474  
N    1.8560616    1.5571714    4.0882609  
C   -0.0205033   -0.0168748    4.4215661  
C   -0.9962600   -0.8356168    3.7214979  
O   -1.8224391   -1.5286685    4.3006425  
C   -0.9864710   -0.8277881    2.1595606  
O   -1.8030528   -1.5133726    1.5592035  
C    0.0000000    0.0000000    1.4700000  
H    2.2509283    1.8888011    0.8310761  
H   -0.0229599   -0.0187323    5.5027230  
H    3.3143982    2.7817323    3.1139444  
H    2.0889452    1.7545833    5.0442112  
