58

C    3.7203426    2.0868223   -6.3262624  
C    4.6638946    1.6253122   -5.4655691  
C    5.5139704    0.7294357   -6.2136414  
C    4.9845418    0.7067060   -7.5905867  
N    3.8973689    1.5498791   -7.5923953  
C    5.5129190   -0.0229253   -8.6055550  
C    6.6808643   -0.8405659   -8.3228842  
O    7.2297834   -1.5332964   -9.1697099  
C    7.2582119   -0.8319290   -6.8715398  
O    8.2410720   -1.5165841   -6.6215503  
C    6.6020619   -0.0045253   -5.8622221  
H    4.7539979    1.8829111   -4.4253105  
H    5.1092789   -0.0253455   -9.6085397  
H    2.9104297    2.7738483   -6.1420715  
H    3.3224350    1.7466161   -8.3910152  
C    4.5679461   -0.0016854   -2.0086701  
C    5.6049857   -0.0016933   -1.1391135  
C    6.7955419   -0.0024716   -1.9752200  
C    6.2781456   -0.0029782   -3.3604582  
N    4.9730338   -0.0024399   -3.3863782  
C    7.1539712   -0.0037579   -4.4997628  
C    8.4861197   -0.0036308   -4.2658492  
O    9.4181585   -0.0043053   -5.2340147  
C    9.0391356   -0.0027522   -2.8793671  
O   10.2622855   -0.0028086   -2.7410741  
C    8.1201339   -0.0020062   -1.7272562  
H    5.5667635   -0.0011380   -0.0631887  
H   10.2688725   -0.0039791   -4.7592114  
H    8.5604265   -0.0012651   -0.7391404  
C    3.1301149   -0.0010311   -1.7028252  
C    2.5367768   -0.0002767   -0.4864665  
C    1.1089904    0.0001028   -0.7656183  
C    1.0177872   -0.0004148   -2.2415132  
N    2.1993578   -0.0011611   -2.7963820  
C   -0.2459209   -0.0002877   -2.9257118  
C   -1.3675319   -0.0000605   -2.1698524  
O   -2.6129313    0.0000867   -2.6748490  
C   -1.3083584    0.0000910   -0.6783232  
O   -2.3693261    0.0004206   -0.0541692  
C    0.0000000    0.0000000    0.0000000  
H    3.0096017   -0.0001007    0.4807525  
H   -0.2829630   -0.0004687   -4.0053125  
H   -3.1967441    0.0002094   -1.8949034  
C    2.5128556    2.1077716    2.9199648  
C    1.9592212    1.6432552    4.0696553  
C    0.8915788    0.7479214    3.6910360  
C    0.8684491    0.7287414    2.2159470  
N    1.8754542    1.5738793    1.8102719  
C    0.0000000    0.0000000    1.4700000  
C   -0.9772830   -0.8200135    2.1664417  
O   -1.8021297   -1.5120829    1.5842315  
C   -0.9711318   -0.8147624    3.7284083  
O   -1.7894187   -1.5009653    4.3257297  
C    0.0140216    0.0115358    4.4216297  
H    2.2638494    1.8988021    5.0689105  
H    0.0117648    0.0094386    5.5031631  
H    3.3327358    2.7953732    2.7900019  
H    2.1123206    1.7707734    0.8551938  
