58

C    1.7704313   -2.0997830   -5.2515180  
C    1.5928586   -1.6333168   -6.5144326  
C    0.4607458   -0.7379010   -6.4771946  
C   -0.0100423   -0.7207976   -5.0790332  
N    0.8257127   -1.5670939   -4.3875226  
C   -1.0641734    0.0073898   -4.6315339  
C   -1.7831599    0.8289562   -5.5910244  
O   -2.7459474    1.5206786   -5.2862925  
C   -1.3021140    0.8259151   -7.0770897  
O   -1.8998115    1.5134381   -7.8939922  
C   -0.1528624    0.0000284   -7.4390070  
H    0.1740159    0.0036595   -8.4699583  
H    2.5118285   -2.7880438   -4.8793388  
H    0.7607705   -1.7654785   -3.4059559  
C    2.8928075   -3.2120292   -7.9901706  
C    2.4049835   -1.9809187   -7.6893901  
C    2.8365047   -1.0889679   -8.7396515  
C    3.6213193   -1.9072246   -9.6837440  
N    3.6178424   -3.1842563   -9.1718186  
C    4.2035863   -1.4315804  -10.8135374  
C    4.0470373   -0.0194584  -11.1200321  
O    4.5333647    0.5043763  -12.1137054  
C    3.2201454    0.8659128  -10.1340433  
O    3.0817810    2.0562504  -10.3814550  
C    2.6402884    0.2391473   -8.9488092  
H    4.7750551   -2.0488581  -11.4927295  
H    2.0690030    0.8590524   -8.2712575  
H    2.7838284   -4.1372092   -7.4479021  
H    4.0704040   -3.9747759   -9.5929048  
C    1.1319248    0.0015675   -0.8009270  
C    0.7969916    0.0034959   -2.1169404  
C   -0.6453336    0.0035703   -2.1842672  
C   -1.1266831    0.0015415   -0.7896027  
N    0.0000000    0.0000000    0.0000000  
C   -2.4346129    0.0013924   -0.4276297  
C   -3.4350110    0.0031352   -1.4820184  
O   -4.6384610    0.0030897   -1.2583919  
C   -2.9478958    0.0050460   -2.9661075  
O   -3.7809377    0.0062160   -3.8623775  
C   -1.5113821    0.0053068   -3.2312125  
H    1.4821240    0.0045436   -2.9459192  
H   -2.7664565    0.0000185    0.6013447  
H    2.1104318    0.0009428   -0.3488058  
C    2.5128556    2.1077716    2.9199648  
C    1.9592212    1.6432552    4.0696553  
C    0.8915788    0.7479214    3.6910360  
C    0.8684491    0.7287414    2.2159470  
N    1.8754542    1.5738793    1.8102719  
C    0.0000000    0.0000000    1.4700000  
C   -0.9772830   -0.8200135    2.1664417  
O   -1.8021297   -1.5120829    1.5842315  
C   -0.9711318   -0.8147624    3.7284083  
O   -1.7894187   -1.5009653    4.3257297  
C    0.0140216    0.0115358    4.4216297  
H    2.2638494    1.8988021    5.0689105  
H    0.0117648    0.0094386    5.5031631  
H    3.3327358    2.7953732    2.7900019  
H    2.1123206    1.7707734    0.8551938  
