58

C    6.9446511    0.0027520    2.6999613  
C    5.6606014    0.0028581    3.1418802  
C    5.7119975    0.0035812    4.5848612  
C    7.1414944    0.0039191    4.9500040  
N    7.8358658    0.0029889    3.7622590  
C    7.6096978    0.0050001    6.2237732  
C    6.6410599    0.0056640    7.3074138  
O    6.9628006    0.0065843    8.4884227  
C    5.1219673    0.0050695    6.9438719  
O    4.2971656    0.0053133    7.8477316  
C    4.7397406    0.0041802    5.5339944  
H    4.7781371    0.0022914    2.5271701  
H    8.6624572    0.0053600    6.4699588  
H    3.6859183    0.0039783    5.2907203  
H    8.8359896    0.0045114    3.6798137  
C    4.7795901    0.0008674   -1.0815733  
C    5.7862015    0.0008770   -1.9861793  
C    7.0047289    0.0013411   -1.1913897  
C    6.5351378    0.0016826    0.2107758  
N    5.2316818    0.0013264    0.2814338  
C    7.4495160    0.0021407    1.3193778  
C    8.7728604    0.0018635    1.0399218  
O    9.7375493    0.0022377    1.9755574  
C    9.2780075    0.0011450   -0.3647086  
O   10.4956959    0.0010506   -0.5448630  
C    8.3200391    0.0007289   -1.4846291  
H    5.7111080    0.0005126   -3.0601606  
H   10.5714816    0.0018716    1.4718616  
H    8.7261888    0.0000955   -2.4872616  
C    3.3321168    0.0004716   -1.3379341  
C    2.6974177    0.0000118   -2.5332316  
C    1.2800432   -0.0002116   -2.2052842  
C    1.2395033    0.0000644   -0.7271298  
N    2.4394059    0.0005460   -0.2131041  
C    0.0000000    0.0000000    0.0000000  
C   -1.1468704    0.0000635   -0.7169542  
O   -2.3742206    0.0000074   -0.1695488  
C   -1.1388774    0.0001608   -2.2096352  
O   -2.2206238    0.0000906   -2.7970409  
C    0.1454514    0.0001818   -2.9324241  
H    3.1367978   -0.0000649   -3.5160956  
H   -2.9844350    0.0001027   -0.9290164  
H    0.1083567    0.0003684   -4.0135594  
C    2.5128556    2.1077716    2.9199648  
C    1.9592212    1.6432552    4.0696553  
C    0.8915788    0.7479214    3.6910360  
C    0.8684491    0.7287414    2.2159470  
N    1.8754542    1.5738793    1.8102719  
C    0.0000000    0.0000000    1.4700000  
C   -0.9772830   -0.8200135    2.1664417  
O   -1.8021297   -1.5120829    1.5842315  
C   -0.9711318   -0.8147624    3.7284083  
O   -1.7894187   -1.5009653    4.3257297  
C    0.0140216    0.0115358    4.4216297  
H    2.2638494    1.8988021    5.0689105  
H    0.0117648    0.0094386    5.5031631  
H    3.3327358    2.7953732    2.7900019  
H    2.1123206    1.7707734    0.8551938  
