58

C    0.0123498   -0.0076597   -8.8432614  
C    0.8163759   -0.6826175   -9.7046850  
C    0.3928215   -0.3306656  -11.0394390  
C   -0.7319165    0.6114407  -10.8839040  
N   -0.9127504    0.7650682   -9.5286961  
C   -1.4092977    1.1770659  -11.9148871  
C   -1.0036649    0.8349682  -13.2680208  
O   -1.5510416    1.2916796  -14.2630543  
C    0.1848477   -0.1609285  -13.4562550  
O    0.5351022   -0.4566638  -14.5907692  
C    0.8370958   -0.7048630  -12.2677440  
H    1.6149083   -1.3509315   -9.4357699  
H   -2.2314486    1.8659229  -11.7790407  
H    1.6593304   -1.3935920  -12.4066901  
H   -1.6081814    1.3501420   -9.1031239  
C    2.5229108   -2.1069164   -5.8790356  
C    1.9659599   -1.6422912   -7.0270794  
C    0.8993074   -0.7471221   -6.6452951  
C    0.8803722   -0.7281568   -5.1701434  
N    1.8886143   -1.5732496   -4.7674566  
C    0.0139741    0.0003876   -4.4216236  
C   -0.9653704    0.8204006   -5.1151637  
O   -1.7886285    1.5123013   -4.5305094  
C   -0.9636624    0.8153753   -6.6771425  
O   -1.7837156    1.5015798   -7.2720341  
C    0.0195996   -0.0107216   -7.3732829  
H    2.2677702   -1.8976628   -8.0272341  
H    3.3432283   -2.7944525   -5.7515051  
H    2.1282171   -1.7702570   -3.8130849  
C    3.2798085    0.0005853   -1.4499648  
C    2.5571144    0.0005562   -2.5996554  
C    1.1637436    0.0001546   -2.2210360  
C    1.1336965   -0.0000201   -0.7459470  
N    2.4483513   -0.0001430   -0.3402717  
C    0.0000000    0.0000000    0.0000000  
C   -1.2757367   -0.0000188   -0.6964414  
O   -2.3524597   -0.0000640   -0.1142313  
C   -1.2676494   -0.0000875   -2.2584081  
O   -2.3355762   -0.0004102   -2.8557294  
C    0.0181562    0.0001757   -2.9516296  
H    2.9547357    0.0006072   -3.5989105  
H    4.3498550    0.0008609   -1.3200021  
H    2.7563627    0.0012824    0.6148063  
C    0.0000000    0.0000000    1.4700000  
C    1.0541688    0.0001722    2.3260392  
C    0.5103138    0.0000454    3.6635956  
C   -0.9576371   -0.0002459    3.5155732  
N   -1.2018458    0.0001392    2.1615969  
C   -1.8348311   -0.0008317    4.5510609  
C   -1.2972847   -0.0009736    5.9014604  
O   -2.0050672   -0.0014265    6.9001319  
C    0.2542623   -0.0004184    6.0817573  
O    0.7184670   -0.0002256    7.2139121  
C    1.0974552   -0.0000873    4.8889129  
H    2.0940752    0.0005483    2.0517982  
H   -2.9081052   -0.0011668    4.4207061  
H    2.1707277    0.0000911    5.0223670  
H   -2.1128194   -0.0014912    1.7406791  
