58

C   -4.7390836   -0.0007821   -1.2727314  
C   -5.7159776   -0.0014981   -2.2159985  
C   -6.9782049   -0.0014788   -1.5148437  
C   -6.6542737   -0.0006580   -0.0754484  
N   -5.2807307   -0.0006651    0.0037318  
C   -7.5764455   -0.0000010    0.9201933  
C   -8.9818051   -0.0003356    0.5493841  
O   -9.8878550    0.0001392    1.3724116  
C   -9.3478539   -0.0014556   -0.9691060  
O  -10.5277180   -0.0020525   -1.2934220  
C   -8.2653741   -0.0018121   -1.9499672  
H   -5.5691172   -0.0021666   -3.2813833  
H   -7.3176385    0.0007260    1.9699210  
H   -4.7530492    0.0013655    0.8573100  
C   -3.2798074   -0.0004616   -1.4499673  
C   -2.5571125   -0.0004597   -2.5996572  
C   -1.1637415   -0.0001106   -2.2210371  
C   -1.1336953    0.0000629   -0.7459477  
N   -2.4483509    0.0002354   -0.3402738  
C    0.0000000    0.0000000    0.0000000  
C    1.2757374   -0.0000294   -0.6964407  
O    2.3524604   -0.0000248   -0.1142297  
C    1.2676514    0.0000396   -2.2584074  
O    2.3355787    0.0003221   -2.8557280  
C   -0.0181534   -0.0001750   -2.9516298  
H   -2.9547331   -0.0004956   -3.5989125  
H   -0.0150763   -0.0003310   -4.0331629  
H   -2.7563630   -0.0011782    0.6148043  
C   -6.5660981   -2.0974501   -5.4452770  
C   -6.8218988   -1.6343048   -4.1946225  
C   -7.9490048   -0.7379966   -4.2999668  
C   -8.3316404   -0.7167952   -5.7247232  
N   -7.4543060   -1.5611756   -6.3651887  
C   -9.3559064    0.0127287   -6.2349966  
C  -10.1332013    0.8318581   -5.3199158  
O  -11.0751050    1.5246191   -5.6821327  
C   -9.7454960    0.8248539   -3.8068259  
O  -10.3924824    1.5107701   -3.0269616  
C   -8.6213196   -0.0025882   -3.3762218  
H   -6.2824590   -1.8910929   -3.3003748  
H   -9.6200810    0.0140155   -7.2833865  
H   -5.8033115   -2.7852489   -5.7723549  
H   -7.4598041   -1.7590965   -7.3489791  
C    0.0000000    0.0000000    1.4700000  
C    1.0662921    0.0000102    2.3034270  
C    0.4961870   -0.0000064    3.6418889  
C   -0.9663858    0.0000850    3.4240247  
N   -1.2632773    0.0000084    2.1528658  
C   -1.8985362    0.0000517    4.5177257  
C   -1.3925775   -0.0004564    5.7720543  
O   -2.1456383   -0.0005410    6.8851312  
C    0.0786232   -0.0009323    6.0245000  
O    0.4683759   -0.0012588    7.1921102  
C    1.0143166   -0.0008442    4.8859032  
H    2.1107198   -0.0000632    2.0421868  
H   -2.9622183    0.0003270    4.3293377  
H   -1.5042274   -0.0009692    7.6184419  
H    2.0724152   -0.0013148    5.1109744  
