58

C    0.5345430   -3.2363540  -10.3017666  
C    0.4024812   -2.5227375  -11.4495413  
C    0.1603210   -1.1515862  -11.0672616  
C    0.1621699   -1.1246798   -9.5921137  
N    0.3939178   -2.4198272   -9.1899001  
C   -0.0323591   -0.0097871   -8.8431965  
C   -0.2588755    1.2475391   -9.5362733  
O   -0.4443144    2.3066185   -8.9512406  
C   -0.2652322    1.2423674  -11.0982401  
O   -0.4552234    2.2948544  -11.6927446  
C   -0.0435678   -0.0223359  -11.7948330  
H    0.4671275   -2.9124296  -12.4498285  
H   -0.0492862   -0.0173383  -12.8763448  
H    0.7225537   -4.2900980  -10.1746206  
H    0.4538871   -2.7245571   -8.2356514  
C    2.4782021   -2.1081876   -5.8783640  
C    1.9212515   -1.6438940   -7.0265418  
C    0.8545985   -0.7486150   -6.6450159  
C    0.8356633   -0.7292245   -5.1698698  
N    1.8439053   -1.5742004   -4.7669395  
C   -0.0307352   -0.0004646   -4.4215603  
C   -1.0100801    0.8193482   -5.1153371  
O   -1.8333384    1.5114170   -4.5308821  
C   -1.0083720    0.8138722   -6.6773139  
O   -1.8284255    1.4999049   -7.2724035  
C   -0.0251095   -0.0124251   -7.3732162  
H    2.2230621   -1.8995540   -8.0266228  
H    3.2985200   -2.7956864   -5.7506354  
H    2.0835085   -1.7709326   -3.8125107  
C    3.2573670   -0.0002920   -1.5109380  
C    2.5379468   -0.0001709   -0.3591961  
C    1.1435043    0.0000332   -0.7338500  
C    1.1092609   -0.0000082   -2.2088477  
N    2.4227562    0.0001909   -2.6182613  
C   -0.0265532   -0.0002522   -2.9515663  
C   -1.3003035   -0.0002639   -2.2514981  
O   -2.3786784   -0.0004131   -2.8306429  
C   -1.2877725    0.0000312   -0.6895608  
O   -2.3539958    0.0003307   -0.0892036  
C    0.0000000    0.0000000    0.0000000  
H    2.9384091   -0.0000369    0.6389239  
H    4.3270394   -0.0004765   -1.6439446  
H    2.7280494   -0.0013406   -3.5742113  
C    0.0000000    0.0000000    1.4700000  
C    1.0662921    0.0000102    2.3034270  
C    0.4961870   -0.0000064    3.6418889  
C   -0.9663858    0.0000850    3.4240247  
N   -1.2632773    0.0000084    2.1528658  
C   -1.8985362    0.0000517    4.5177257  
C   -1.3925775   -0.0004564    5.7720543  
O   -2.1456383   -0.0005410    6.8851312  
C    0.0786232   -0.0009323    6.0245000  
O    0.4683759   -0.0012588    7.1921102  
C    1.0143166   -0.0008442    4.8859032  
H    2.1107198   -0.0000632    2.0421868  
H   -2.9622183    0.0003270    4.3293377  
H   -1.5042274   -0.0009692    7.6184419  
H    2.0724152   -0.0013148    5.1109744  
