58

C    3.6725646    0.5509951   -8.7250565  
C    4.7412260   -0.2827417   -8.8082489  
C    5.1726417   -0.2779626  -10.1861803  
C    4.2612021    0.6334582  -10.9040801  
N    3.3750527    1.1025805   -9.9619797  
C    4.3376111    0.9096861  -12.2305665  
C    5.3874654    0.2662215  -13.0027683  
O    5.5392292    0.4500754  -14.2033788  
C    6.3638275   -0.7029928  -12.2630751  
O    7.2514696   -1.2507775  -12.9028287  
C    6.1814387   -0.9211180  -10.8302436  
H    5.1773983   -0.8378902   -7.9969678  
H    3.6590748    1.5814447  -12.7377529  
H    6.8617814   -1.5934965  -10.3255007  
H    2.6285712    1.7479700  -10.1444246  
C    3.9135205   -0.7081243   -4.5250692  
C    2.8699641   -0.0020530   -4.0185824  
C    2.2916403    0.7390434   -5.1145539  
C    3.0895150    0.4044294   -6.3096353  
N    4.0568594   -0.4768162   -5.8847343  
C    2.8606219    0.9024529   -7.5511206  
C    1.7547625    1.8301060   -7.7216206  
O    1.4676787    2.3333354   -8.7998801  
C    0.8966369    2.1987791   -6.4696201  
O   -0.0368091    2.9789835   -6.6008463  
C    1.2404687    1.5971817   -5.1836524  
H    0.6412575    1.8574784   -4.3217272  
H    4.5900516   -1.3778176   -4.0193954  
H    4.7576403   -0.8900200   -6.4722854  
C    3.2573670   -0.0002921   -1.5109382  
C    2.5379468   -0.0001711   -0.3591962  
C    1.1435043    0.0000330   -0.7338498  
C    1.1092608   -0.0000085   -2.2088474  
N    2.4227562    0.0001906   -2.6182610  
C   -0.0265533   -0.0002525   -2.9515663  
C   -1.3003033   -0.0002641   -2.2514979  
O   -2.3786785   -0.0004132   -2.8306425  
C   -1.2877724    0.0000310   -0.6895608  
O   -2.3539956    0.0003306   -0.0892035  
C    0.0000000    0.0000000    0.0000000  
H    2.9384091   -0.0000370    0.6389240  
H   -0.0296290   -0.0004088   -4.0327231  
H    4.3270394   -0.0004767   -1.6439445  
C    2.5128556    2.1077716    2.9199648  
C    1.9592212    1.6432552    4.0696553  
C    0.8915788    0.7479214    3.6910360  
C    0.8684491    0.7287414    2.2159470  
N    1.8754542    1.5738793    1.8102719  
C    0.0000000    0.0000000    1.4700000  
C   -0.9772830   -0.8200135    2.1664417  
O   -1.8021297   -1.5120829    1.5842315  
C   -0.9711318   -0.8147624    3.7284083  
O   -1.7894187   -1.5009653    4.3257297  
C    0.0140216    0.0115358    4.4216297  
H    2.2638494    1.8988021    5.0689105  
H    0.0117648    0.0094386    5.5031631  
H    3.3327358    2.7953732    2.7900019  
H    2.1123206    1.7707734    0.8551938  
