58

C   -0.0307349   -0.0004645   -4.4215602  
C    1.0209944   -0.0006522   -5.2805950  
C    0.4733365   -0.0007743   -6.6165989  
C   -0.9941876   -0.0006123   -6.4644010  
N   -1.2345433   -0.0008269   -5.1097353  
C   -1.8743237   -0.0002661   -7.4973889  
C   -1.3406212   -0.0002641   -8.8493122  
O   -2.0512420   -0.0000281   -9.8459661  
C    0.2104067   -0.0006861   -9.0340219  
O    0.6713888   -0.0009948  -10.1674926  
C    1.0569896   -0.0007584   -7.8435814  
H    2.0616766   -0.0008820   -5.0093136  
H   -2.9472226   -0.0000223   -7.3639811  
H   -2.1443161    0.0007708   -4.6862279  
C    3.2573673   -0.0002919   -1.5109376  
C    2.5379466   -0.0001709   -0.3591957  
C    1.1435043    0.0000333   -0.7338496  
C    1.1092610   -0.0000081   -2.2088474  
N    2.4227563    0.0001910   -2.6182605  
C   -0.0265530   -0.0002522   -2.9515662  
C   -1.3003033   -0.0002639   -2.2514978  
O   -2.3786785   -0.0004131   -2.8306426  
C   -1.2877724    0.0000312   -0.6895606  
O   -2.3539955    0.0003307   -0.0892032  
C    0.0000000    0.0000000    0.0000000  
H    2.9384091   -0.0000367    0.6389241  
H    4.3270393   -0.0004764   -1.6439444  
H    2.7280496   -0.0013406   -3.5742111  
C    4.2705849   -2.1088592   -5.7194221  
C    5.3412436   -1.6444154   -6.4137252  
C    4.8309753   -0.7490115   -7.4250185  
C    3.3647650   -0.7297113   -7.2617834  
N    3.0893621   -1.5748534   -6.2116518  
C    2.5152338   -0.0008774   -8.0291182  
C    3.0828274    0.8191159   -9.0864653  
O    2.4012236    1.5112630   -9.8312139  
C    4.6330789    0.8137381   -9.2775078  
O    5.1224014    1.4999230  -10.1646238  
C    5.4450275   -0.0126526   -8.3877506  
H    6.3709346   -1.9000543   -6.2376617  
H    6.5176272   -0.0106429   -8.5264952  
H    4.2450845   -2.7964805   -4.8897132  
H    2.1718015   -1.7716790   -5.8561386  
C    0.0000000    0.0000000    1.4700000  
C    1.0662921    0.0000102    2.3034270  
C    0.4961870   -0.0000064    3.6418889  
C   -0.9663858    0.0000850    3.4240247  
N   -1.2632773    0.0000084    2.1528658  
C   -1.8985362    0.0000517    4.5177257  
C   -1.3925775   -0.0004564    5.7720543  
O   -2.1456383   -0.0005410    6.8851312  
C    0.0786232   -0.0009323    6.0245000  
O    0.4683759   -0.0012588    7.1921102  
C    1.0143166   -0.0008442    4.8859032  
H    2.1107198   -0.0000632    2.0421868  
H   -2.9622183    0.0003270    4.3293377  
H   -1.5042274   -0.0009692    7.6184419  
H    2.0724152   -0.0013148    5.1109744  
