58

C    5.2600264   -1.1470945   -7.1244260  
C    6.0222237   -0.7865417   -8.1889126  
C    5.8456871    0.6349182   -8.3709069  
C    4.9114864    1.0761093   -7.3176212  
N    4.5938588   -0.0516111   -6.5963382  
C    4.4904259    2.3552775   -7.1498699  
C    4.9905530    3.3648480   -8.0681162  
O    4.6706658    4.5443861   -7.9998315  
C    5.9806667    2.9200328   -9.1913347  
O    6.4081739    3.7610863   -9.9705171  
C    6.3615362    1.5120553   -9.2712777  
H    6.6377222   -1.4416240   -8.7793720  
H    3.8047966    2.6578763   -6.3706041  
H    7.0476626    1.2122849  -10.0517202  
H    5.1287659   -2.1209637   -6.6814377  
C    4.5533951   -2.1376040   -2.6578820  
C    4.9399045   -1.7283668   -3.8886195  
C    3.8940258   -0.8167856   -4.3264062  
C    2.9285541   -0.7919270   -3.2066609  
N    3.3097737   -1.5641892   -2.2257060  
C    1.7334695    0.0049281   -3.2500363  
C    1.5131091    0.7436790   -4.3613521  
O    0.4396992    1.5328950   -4.5373374  
C    2.4688038    0.7400642   -5.5079972  
O    2.2042974    1.4366798   -6.4877850  
C    3.6875675   -0.0856736   -5.4394565  
H    5.8254287   -2.0102063   -4.4322094  
H    0.5632906    1.9263769   -5.4199759  
H    5.0606861   -2.8208825   -1.9954926  
C    1.1319246    0.0015678   -0.8009268  
C    0.7969914    0.0034958   -2.1169401  
C   -0.6453340    0.0035696   -2.1842669  
C   -1.1266832    0.0015410   -0.7896025  
N    0.0000000    0.0000000    0.0000000  
C   -2.4346129    0.0013913   -0.4276292  
C   -3.4350111    0.0031335   -1.4820181  
O   -4.6384614    0.0030875   -1.2583914  
C   -2.9478961    0.0050442   -2.9661074  
O   -3.7809382    0.0062135   -3.8623773  
C   -1.5113825    0.0053055   -3.2312122  
H   -2.7664565    0.0000174    0.6013448  
H   -1.1823533    0.0068381   -4.2614848  
H    2.1104316    0.0009435   -0.3488059  
C    2.4951002    2.0940188    2.9809380  
C    1.9440701    1.6314916    1.8291961  
C    0.8759964    0.7350050    2.2038498  
C    0.8497377    0.7130254    3.6788474  
N    1.8560616    1.5571714    4.0882609  
C   -0.0205033   -0.0168748    4.4215661  
C   -0.9962600   -0.8356168    3.7214979  
O   -1.8224391   -1.5286685    4.3006425  
C   -0.9864710   -0.8277881    2.1595606  
O   -1.8030528   -1.5133726    1.5592035  
C    0.0000000    0.0000000    1.4700000  
H    2.2509283    1.8888011    0.8310761  
H   -0.0229599   -0.0187323    5.5027230  
H    3.3143982    2.7817323    3.1139444  
H    2.0889452    1.7545833    5.0442112  
