58

C    4.6584895    0.5321636   -8.4758816  
C    5.7195813   -0.3105253   -8.3862465  
C    6.3431995   -0.3421685   -9.6881441  
C    5.5527922    0.5576357  -10.5497697  
N    4.5460993    1.0554897   -9.7550367  
C    5.8204656    0.8009960  -11.8577576  
C    6.9631733    0.1318860  -12.4569627  
O    7.2865311    0.2854566  -13.6274987  
C    7.8141407   -0.8256001  -11.5631619  
O    8.7783771   -1.3947466  -12.0567002  
C    7.4269937   -1.0075761  -10.1664319  
H    6.0298969   -0.8487000   -7.5083605  
H    5.2280751    1.4647720  -12.4720750  
H    8.0215148   -1.6720431   -9.5542625  
H    3.8398642    1.7012607  -10.0571280  
C    4.3834955   -0.6859721   -4.3011939  
C    3.2973506   -0.0000934   -3.8752374  
C    2.8440570    0.7452246   -5.0395081  
C    3.7976373    0.3812809   -6.1094679  
N    4.7022574   -0.4574405   -5.6826204  
C    3.6909715    0.9175298   -7.4384318  
C    2.6775113    1.7779345   -7.6873018  
O    2.4582894    2.3541659   -8.8814289  
C    1.6987825    2.1644850   -6.6286091  
O    0.8014167    2.9528431   -6.9260084  
C    1.8294969    1.6008466   -5.2731937  
H    1.6702325    2.9110075   -8.7470884  
H    1.1002947    1.9058791   -4.5346480  
H    5.0085215   -1.3581664   -3.7350923  
C    3.3321174    0.0004714   -1.3379332  
C    2.6974186    0.0000115   -2.5332308  
C    1.2800441   -0.0002119   -2.2052838  
C    1.2395035    0.0000643   -0.7271293  
N    2.4394063    0.0005458   -0.2131034  
C    0.0000000    0.0000000    0.0000000  
C   -1.1468701    0.0000634   -0.7169542  
O   -2.3742201    0.0000072   -0.1695492  
C   -1.1388767    0.0001606   -2.2096354  
O   -2.2206229    0.0000903   -2.7970413  
C    0.1454526    0.0001815   -2.9324239  
H   -2.9844344    0.0001023   -0.9290168  
H    0.1083580    0.0003680   -4.0135594  
H    4.3940040    0.0007617   -1.1498630  
C    0.0000000    0.0000000    1.4700000  
C    1.0541688    0.0001722    2.3260392  
C    0.5103138    0.0000454    3.6635956  
C   -0.9576371   -0.0002459    3.5155732  
N   -1.2018458    0.0001392    2.1615969  
C   -1.8348311   -0.0008317    4.5510609  
C   -1.2972847   -0.0009736    5.9014604  
O   -2.0050672   -0.0014265    6.9001319  
C    0.2542623   -0.0004184    6.0817573  
O    0.7184670   -0.0002256    7.2139121  
C    1.0974552   -0.0000873    4.8889129  
H    2.0940752    0.0005483    2.0517982  
H   -2.9081052   -0.0011668    4.4207061  
H    2.1707277    0.0000911    5.0223670  
H   -2.1128194   -0.0014912    1.7406791  
