58

C    0.8001270   -0.7427381   -9.5854626  
C    1.6286791   -0.7718093  -10.6609770  
C    1.6725954    0.5690103  -11.1949325  
C    0.7954446    1.3874893  -10.3361612  
N    0.2970127    0.5329591   -9.3800051  
C    0.5693656    2.7142029  -10.5105849  
C    1.2341496    3.3804319  -11.6181663  
O    1.0949432    4.5725029  -11.8587708  
C    2.1673768    2.5330595  -12.5405827  
O    2.7322068    3.0829879  -13.4764277  
C    2.3325530    1.1106525  -12.2519187  
H    2.1494953   -1.6341579  -11.0374318  
H   -0.0777200    3.2961581   -9.8690887  
H    2.9805803    0.5310404  -12.8952171  
H    0.5145670   -1.5459711   -8.9257944  
C    0.1961175   -0.6857269   -5.1976468  
C   -0.8712826    0.0001710   -4.7267111  
C   -1.3726388    0.7456798   -5.8709829  
C   -0.4644983    0.3818146   -6.9797964  
N    0.4570580   -0.4570291   -6.5911259  
C   -0.6264066    0.9182525   -8.3030899  
C   -1.6492906    1.7787628   -8.5093994  
O   -1.9180360    2.3551729   -9.6932768  
C   -2.5830256    2.1652383   -7.4107923  
O   -3.4919438    2.9537009   -7.6704371  
C   -2.3959896    1.6014058   -6.0620765  
H   -2.6997675    2.9120521   -9.5261428  
H   -3.0937610    1.9063895   -5.2937467  
H    0.8441376   -1.3580427   -4.6581707  
C    1.0965514    0.0001359   -0.8010305  
C    0.0000000    0.0000000    0.0000000  
C   -1.1546563    0.0001470   -0.8669513  
C   -0.6372014    0.0003519   -2.2486282  
N    0.7342871    0.0007337   -2.1395014  
C   -1.4147739    0.0001352   -3.3608717  
C   -2.8576049   -0.0001048   -3.1854462  
O   -3.6427779   -0.0002494   -4.1244907  
C   -3.4275840   -0.0000725   -1.7311666  
O   -4.6406831    0.0000333   -1.5710060  
C   -2.4891867   -0.0001091   -0.6116744  
H   -2.8919122   -0.0002918    0.3920866  
H    2.1388272    0.0000663   -0.5261648  
H    1.3735872   -0.0006099   -2.9130262  
C    0.8681109    0.7263879    2.2709268  
C    0.6127770    0.5096195    3.5869401  
C   -0.4920590   -0.4175482    3.6542670  
C   -0.8620974   -0.7254003    2.2596025  
N    0.0000000    0.0000000    1.4700000  
C   -1.8641242   -1.5660088    1.8976294  
C   -2.6293522   -2.2103885    2.9520183  
O   -3.5512764   -2.9839180    2.7283916  
C   -2.2549728   -1.8987399    4.4361073  
O   -2.8923672   -2.4351063    5.3323774  
C   -1.1543735   -0.9755647    4.7012123  
H    1.1382914    0.9492124    4.4159191  
H   -2.1192137   -1.7782617    0.8686553  
H   -0.9013378   -0.7652422    5.7314848  
H    1.6172880    1.3558399    1.8188057  
