60

C   -0.2963294   -0.0005338   -4.3948469  
C    0.7278653   -0.0010062   -5.2865311  
C    0.1384642   -0.0010224   -6.6046519  
C   -1.3235475   -0.0004878   -6.4063798  
N   -1.5211839   -0.0006099   -5.0448253  
C   -2.2357330    0.0000552   -7.4111785  
C   -1.7448094   -0.0001090   -8.7792171  
O   -2.4864203    0.0002821   -9.7530307  
C   -0.2003572   -0.0009253   -9.0126111  
O    0.2247519   -0.0013767  -10.1600184  
C    0.6832433   -0.0011822   -7.8493823  
H    1.7765637   -0.0014912   -5.0481110  
H   -3.3039064    0.0005719   -7.2440971  
H    1.7513081   -0.0015427   -8.0195611  
H   -2.4171876    0.0012266   -4.5929172  
C    3.1301144   -0.0010311   -1.7028257  
C    2.5367765   -0.0002766   -0.4864669  
C    1.1089900    0.0001028   -0.7656184  
C    1.0177865   -0.0004148   -2.2415134  
N    2.1993573   -0.0011611   -2.7963824  
C   -0.2459219   -0.0002876   -2.9257117  
C   -1.3675328   -0.0000605   -2.1698521  
O   -2.6129318    0.0000868   -2.6748487  
C   -1.3083586    0.0000910   -0.6783230  
O   -2.3693261    0.0004206   -0.0541687  
C    0.0000000    0.0000000    0.0000000  
H    3.0096014   -0.0001008    0.4807517  
H   -3.1967444    0.0002095   -1.8949028  
C    5.5795930   -0.0015222   -1.1027766  
C    4.5679458   -0.0016854   -2.0086709  
C    5.1756893   -0.0023285   -3.3184350  
C    6.6347906   -0.0025573   -3.0997730  
N    6.8134011   -0.0016468   -1.7355930  
C    7.5609140   -0.0035411   -4.0917406  
C    7.0891347   -0.0042082   -5.4664981  
O    7.8442674   -0.0050455   -6.4298641  
C    5.5480909   -0.0037284   -5.7214296  
O    5.1390407   -0.0039759   -6.8746591  
C    4.6483390   -0.0029381   -4.5706486  
H    8.6266505   -0.0038220   -3.9097641  
H    3.5827532   -0.0028152   -4.7557206  
H    5.5275958   -0.0011045   -0.0261217  
H    7.7030099   -0.0031108   -1.2712205  
C    0.0000000    0.0000000    1.4700000  
C    1.0521667    0.0011902    2.3562342  
C    0.4917218    0.0011957    3.6679131  
C   -0.9187428   -0.0003148    3.5178682  
N   -1.1833171    0.0009411    2.1707914  
C   -1.7951701   -0.0010350    4.6072090  
C   -1.2375837   -0.0005224    5.8710424  
O   -2.0474215   -0.0015360    6.9697579  
C    0.1673580    0.0013566    6.0411963  
O    0.5673524    0.0020687    7.3615553  
C    1.0325770    0.0023412    4.9669890  
H    2.0953057    0.0030649    2.0900562  
H   -2.0989778   -0.0102372    1.7591824  
H   -2.8710934   -0.0020419    4.4995513  
H   -1.4634884   -0.0006497    7.7393593  
H    1.5290710    0.0033153    7.3880045  
H    2.1042148    0.0039609    5.1284455  
