64

C    1.6071931   -2.0691457   -5.4061230  
C    0.7600335   -1.6164453   -4.4213127  
C   -0.1612455   -0.7224869   -5.0431512  
C    0.1755311   -0.6690404   -6.4199773  
N    1.2548206   -1.4967870   -6.6059514  
C   -0.5252826    0.1165519   -7.3400286  
C   -1.5855717    0.8615308   -6.8615196  
O   -2.3042733    1.6457779   -7.7167607  
C   -1.9367274    0.8217439   -5.4911458  
O   -3.0155710    1.6195945   -5.1704046  
C   -1.2456329    0.0471727   -4.5828766  
H    0.8017174   -1.8952903   -3.3823224  
H    1.7089804   -1.6697413   -7.4844764  
H   -0.2735270    0.1617574   -8.3906377  
H   -2.9880783    2.0738677   -7.1853335  
H   -3.1866799    1.5350662   -4.2274410  
C    3.1792209   -3.6312963   -4.1834622  
C    2.7386332   -3.0041860   -5.3258640  
C    3.5848653   -3.4351493   -6.3901775  
C    4.5311794   -4.3324349   -5.8322400  
N    4.2577390   -4.4275368   -4.4902994  
C    5.5245101   -4.9544035   -6.5946288  
C    5.5630588   -4.6655361   -7.9449063  
O    6.5122727   -5.2455470   -8.7358509  
C    4.6277726   -3.7726075   -8.5200026  
O    4.7973915   -3.5877147   -9.8766109  
C    3.6477255   -3.1584489   -7.7684412  
H    4.7581267   -5.0006922   -3.8352531  
H    6.2487918   -5.6391265   -6.1753757  
H    6.3630612   -4.9125092   -9.6303263  
H    4.1262944   -2.9715961  -10.1858525  
H    2.9452896   -2.4789429   -8.2367716  
H    2.8103678   -3.5725019   -3.1737843  
C    1.1243410    0.0099923   -0.7919003  
C    0.7474076    0.0234544   -2.1148543  
C   -0.6787381    0.0234490   -2.1414700  
C   -1.1201745    0.0098592   -0.7935546  
N    0.0000000    0.0000000    0.0000000  
C   -2.4730816    0.0063709   -0.4408240  
C   -3.3971958    0.0170982   -1.4675058  
O   -4.7313517    0.0146259   -1.1793471  
C   -2.9763648    0.0303504   -2.8186324  
O   -4.0166480    0.0395118   -3.7247624  
C   -1.6418562    0.0335260   -3.1673481  
H    1.4178717    0.0310972   -2.9571209  
H   -2.8160166   -0.0041111    0.5845966  
H   -5.1938818    0.0230867   -2.0274384  
H   -3.6464675    0.0482293   -4.6127343  
H    2.1062467    0.0052819   -0.3505407  
C    0.8400945    0.7047457    2.2710304  
C    0.0000000    0.0000000    1.4700000  
C   -0.8844236   -0.7423113    2.3369512  
C   -0.4878984   -0.4098547    3.7186280  
N    0.5629682    0.4714286    3.6095011  
C   -1.0836927   -0.9095027    4.8308716  
C   -2.1891196   -1.8367527    4.6554461  
O   -2.7906899   -2.3413415    5.5944904  
C   -2.6257283   -2.2031529    3.2011665  
O   -3.5549479   -2.9829990    3.0410059  
C   -1.9068976   -1.5999348    2.0816745  
H   -0.7774656   -0.6525820    5.8354244  
H   -2.2155208   -1.8586617    1.0779135  
H    1.6384792    1.3747609    1.9961646  
H    1.0518368    0.8833920    4.3830260  
