58

C    1.2212294   -1.0932795   -9.5173949  
C    1.6523113   -0.7608379  -10.7614720  
C    1.4425983    0.6595700  -10.9141050  
C    0.8497788    1.1307791   -9.6478824  
N    0.7413083    0.0196743   -8.8437866  
C    0.5039003    2.4180589   -9.3929660  
C    0.7304276    3.4053050  -10.4353502  
O    0.4524903    4.5899615  -10.3025326  
C    1.3569496    2.9285539  -11.7844181  
O    1.5520401    3.7506265  -12.6695150  
C    1.6882297    1.5145062  -11.9411814  
H    2.0694177   -1.4338708  -11.4892518  
H    0.0704222    2.7427981   -8.4572569  
H    2.1218725    1.1925681  -12.8782162  
H    1.2135655   -2.0577253   -9.0360693  
C    2.0060354   -2.0933382   -5.2079950  
C    1.0681400   -1.6309435   -4.3416125  
C    0.2140994   -0.7346501   -5.0846522  
C    0.7350366   -0.7126398   -6.4648448  
N    1.8215800   -1.5565851   -6.4731480  
C    0.2009231    0.0171137   -7.4767177  
C   -0.9646761    0.8356538   -7.1870525  
O   -1.5183198    1.5285630   -8.0306496  
C   -1.5330619    0.8277889   -5.7321707  
O   -2.5138749    1.5132042   -5.4762943  
C   -0.8712826    0.0001710   -4.7267111  
H    0.9842756   -1.8882192   -3.3007524  
H    2.8165825   -2.7808931   -5.0286319  
H    2.3914344   -1.7539297   -7.2752498  
C    1.0965514    0.0001359   -0.8010305  
C    0.0000000    0.0000000    0.0000000  
C   -1.1546563    0.0001470   -0.8669513  
C   -0.6372014    0.0003519   -2.2486282  
N    0.7342871    0.0007337   -2.1395014  
C   -1.4147739    0.0001352   -3.3608717  
C   -2.8576049   -0.0001048   -3.1854462  
O   -3.6427779   -0.0002494   -4.1244907  
C   -3.4275840   -0.0000725   -1.7311666  
O   -4.6406831    0.0000333   -1.5710060  
C   -2.4891867   -0.0001091   -0.6116744  
H   -2.8919122   -0.0002918    0.3920866  
H    2.1388272    0.0000663   -0.5261648  
H    1.3735872   -0.0006099   -2.9130262  
C    0.0000000    0.0000000    1.4700000  
C    1.0662921    0.0000102    2.3034270  
C    0.4961870   -0.0000064    3.6418889  
C   -0.9663858    0.0000850    3.4240247  
N   -1.2632773    0.0000084    2.1528658  
C   -1.8985362    0.0000517    4.5177257  
C   -1.3925775   -0.0004564    5.7720543  
O   -2.1456383   -0.0005410    6.8851312  
C    0.0786232   -0.0009323    6.0245000  
O    0.4683759   -0.0012588    7.1921102  
C    1.0143166   -0.0008442    4.8859032  
H    2.1107198   -0.0000632    2.0421868  
H   -2.9622183    0.0003270    4.3293377  
H   -1.5042274   -0.0009692    7.6184419  
H    2.0724152   -0.0013148    5.1109744  
