60

C    3.3041273    0.0001179   -1.5420432  
C    2.5845372   -0.0004779   -0.3695859  
C    1.2040004   -0.0000007   -0.7283591  
C    1.1422373    0.0006038   -2.1454374  
N    2.4348638    0.0026111   -2.6077467  
C   -0.0655183    0.0008798   -2.8497918  
C   -1.2321770    0.0002324   -2.1101402  
O   -2.4392818    0.0001147   -2.7472522  
C   -1.1911210   -0.0000007   -0.6955265  
O   -2.4371525   -0.0002321   -0.1032862  
C    0.0000000    0.0000000    0.0000000  
H    3.0031535   -0.0000659    0.6222574  
H    2.7054626   -0.0071098   -3.5745264  
H   -3.1132989   -0.0000649   -2.0551791  
H   -2.3200282   -0.0004073    0.8516405  
H    4.3686619    0.0004073   -1.7024302  
C    2.1731802   -2.0070821   -6.1392841  
C    1.7797924   -1.6263721   -4.9015905  
C    0.6726054   -0.7095545   -5.1253815  
C    0.5289378   -0.6505907   -6.5959141  
N    1.4057894   -1.4091990   -7.1956092  
C   -0.4729119    0.1609527   -7.2305646  
C   -1.2941661    0.8805675   -6.4324225  
O   -2.2730577    1.6802751   -6.8888002  
C   -1.1744860    0.8418714   -4.9450289  
O   -1.9557862    1.5227170   -4.2807698  
C   -0.1387084    0.0017018   -4.3179687  
H    2.1901955   -1.9302430   -3.9537997  
H   -2.6812840    2.0546312   -6.0873254  
H    2.9695750   -2.6843163   -6.4040155  
C   -0.5848235    0.1939375   -8.6959271  
C    0.1659839   -0.4714273   -9.6043092  
C   -0.3712579   -0.0756421  -10.8970680  
C   -1.4716092    0.8576829  -10.5734705  
N   -1.6015044    1.0196833   -9.2847217  
C   -2.2666788    1.4802516  -11.5958978  
C   -1.9754753    1.1841991  -12.8830996  
O   -2.6352272    1.6923507  -13.9378748  
C   -0.8709217    0.2464098  -13.2418101  
O   -0.6619723    0.0228218  -14.4341059  
C   -0.0697636   -0.3794812  -12.1748834  
H    0.9834858   -1.1472642   -9.4198890  
H   -3.0647833    2.1581969  -11.3307012  
H   -2.2009730    1.2976494  -14.7155553  
H    0.7214094   -1.0528715  -12.4762473  
C    0.8681109    0.7263879    2.2709268  
C    0.6127770    0.5096195    3.5869401  
C   -0.4920590   -0.4175482    3.6542670  
C   -0.8620974   -0.7254003    2.2596025  
N    0.0000000    0.0000000    1.4700000  
C   -1.8641242   -1.5660088    1.8976294  
C   -2.6293522   -2.2103885    2.9520183  
O   -3.5512764   -2.9839180    2.7283916  
C   -2.2549728   -1.8987399    4.4361073  
O   -2.8923672   -2.4351063    5.3323774  
C   -1.1543735   -0.9755647    4.7012123  
H    1.1382914    0.9492124    4.4159191  
H   -2.1192137   -1.7782617    0.8686553  
H   -0.9013378   -0.7652422    5.7314848  
H    1.6172880    1.3558399    1.8188057  
