62

C   -3.3003526   -0.0035222   -1.4738992  
C   -2.5232794   -0.0026393   -2.6090750  
C   -1.1623190   -0.0009229   -2.1820104  
C   -1.1711884   -0.0011211   -0.7636141  
N   -2.4852306   -0.0007631   -0.3662362  
C    0.0000000    0.0000000    0.0000000  
C    1.2020373    0.0010386   -0.6806474  
O    2.3759243    0.0018063    0.0157751  
C    1.2314657    0.0016283   -2.0955506  
O    2.5054375    0.0030767   -2.6250173  
C    0.0764515    0.0007963   -2.8495192  
H   -2.8919940   -0.0020623   -3.6205304  
H   -2.8036173   -0.0113619    0.5858658  
H    3.0835634    0.0027629   -0.6418813  
H    2.4360039    0.0033627   -3.5845915  
H    0.1304089    0.0014601   -3.9319085  
C   -4.7630475   -0.0047973   -1.3275412  
C   -5.7197888   -0.0067901   -2.2912411  
C   -6.9965511   -0.0072674   -1.6169173  
C   -6.7031120   -0.0053463   -0.1709988  
N   -5.3315492   -0.0043072   -0.0628096  
C   -7.6461186   -0.0047617    0.8049324  
C   -9.0433272   -0.0063409    0.4045073  
O   -9.9665684   -0.0060304    1.2082034  
C   -9.3772040   -0.0086392   -1.1213781  
O  -10.5499505   -0.0102888   -1.4705544  
C   -8.2742368   -0.0087980   -2.0791442  
H   -5.5504459   -0.0079919   -3.3532840  
H   -8.5138854   -0.0101898   -3.1337961  
H   -4.8220255   -0.0013802    0.8017275  
C   -4.5362709    2.1215872    3.1214748  
C   -4.8684758    1.6235903    4.3600653  
C   -5.9788643    0.7480790    4.1726707  
C   -6.2824735    0.7516088    2.7871257  
N   -5.3888019    1.5973221    2.1782432  
C   -7.3244743   -0.0026599    2.2393105  
C   -8.0734382   -0.7747887    3.1059404  
O   -9.1025297   -1.5309691    2.6240938  
C   -7.7861860   -0.7912599    4.4915926  
O   -8.6221815   -1.6096045    5.2228711  
C   -6.7585496   -0.0471971    5.0327587  
H   -4.3723056    1.8628642    5.2850282  
H   -5.3528116    1.7928351    1.1941391  
H   -9.4874366   -1.9848890    3.3850592  
H   -8.3605721   -1.5633103    6.1475447  
H   -6.5624095   -0.0798804    6.0980941  
H   -3.7595574    2.8103800    2.8364487  
C    0.8681109    0.7263879    2.2709268  
C    0.6127770    0.5096195    3.5869401  
C   -0.4920590   -0.4175482    3.6542670  
C   -0.8620974   -0.7254003    2.2596025  
N    0.0000000    0.0000000    1.4700000  
C   -1.8641242   -1.5660088    1.8976294  
C   -2.6293522   -2.2103885    2.9520183  
O   -3.5512764   -2.9839180    2.7283916  
C   -2.2549728   -1.8987399    4.4361073  
O   -2.8923672   -2.4351063    5.3323774  
C   -1.1543735   -0.9755647    4.7012123  
H    1.1382914    0.9492124    4.4159191  
H   -2.1192137   -1.7782617    0.8686553  
H   -0.9013378   -0.7652422    5.7314848  
H    1.6172880    1.3558399    1.8188057  
