58

C   -3.1006031    0.0045270   -3.9654945  
C   -4.3965723    0.0056728   -4.3711273  
C   -4.3857772    0.0060526   -5.8149829  
C   -2.9671149    0.0049974   -6.2201826  
N   -2.2396157    0.0045017   -5.0524351  
C   -2.5349194    0.0045925   -7.5066163  
C   -3.5336489    0.0054652   -8.5625876  
O   -3.2452488    0.0052508   -9.7521777  
C   -5.0419157    0.0068413   -8.1564672  
O   -5.8918103    0.0078910   -9.0367741  
C   -5.3843416    0.0068865   -6.7363983  
H   -5.2613997    0.0063751   -3.7318427  
H   -6.4309049    0.0076377   -6.4635839  
H   -1.2375701    0.0022108   -4.9981503  
C   -3.2798055    0.0048657   -1.4499646  
C   -2.5571122    0.0036935   -2.5996551  
C   -1.1637424    0.0017793   -2.2210357  
C   -1.1336951    0.0019042   -0.7459471  
N   -2.4483478    0.0042124   -0.3402715  
C    0.0000000    0.0000000    0.0000000  
C    1.2757349   -0.0021020   -0.6964420  
O    2.3524563   -0.0038463   -0.1142321  
C    1.2676476   -0.0020200   -2.2584083  
O    2.3355731   -0.0034723   -2.8557303  
C   -0.0181567   -0.0001461   -2.9516296  
H   -0.0150802   -0.0003072   -4.0331630  
H   -4.3498504    0.0063689   -1.3200016  
H   -2.7563611    0.0032992    0.6148065  
C   -0.1253532   -0.7022343   -7.2733980  
C   -1.1135162    0.0033606   -7.8814646  
C   -0.5001108    0.7451324   -8.9577285  
C    0.9367151    0.4114340   -8.9266348  
N    1.0984038   -0.4699802   -7.8826735  
C    1.8606941    0.9102759   -9.7863585  
C    1.4099870    1.8379068  -10.8105163  
O    2.1650241    2.3418361  -11.6316590  
C   -0.1072335    2.2056184  -10.8618545  
O   -0.4983752    2.9857954  -11.7195220  
C   -1.0069367    1.6031863   -9.8813135  
H    2.9099030    0.6524486   -9.7464119  
H   -2.0559890    1.8628196   -9.9237776  
H   -0.1881243   -1.3721880   -6.4313105  
H    1.9706617   -0.8826953   -7.6072104  
C    0.0000000    0.0000000    1.4700000  
C    1.0662921    0.0000102    2.3034270  
C    0.4961870   -0.0000064    3.6418889  
C   -0.9663858    0.0000850    3.4240247  
N   -1.2632773    0.0000084    2.1528658  
C   -1.8985362    0.0000517    4.5177257  
C   -1.3925775   -0.0004564    5.7720543  
O   -2.1456383   -0.0005410    6.8851312  
C    0.0786232   -0.0009323    6.0245000  
O    0.4683759   -0.0012588    7.1921102  
C    1.0143166   -0.0008442    4.8859032  
H    2.1107198   -0.0000632    2.0421868  
H   -2.9622183    0.0003270    4.3293377  
H   -1.5042274   -0.0009692    7.6184419  
H    2.0724152   -0.0013148    5.1109744  
