58

C   -0.1924316    0.7357060   -7.1714981  
C   -1.2115728    0.5199820   -8.0426401  
C   -0.7252800   -0.4053992   -9.0386446  
C    0.6707126   -0.7133411   -8.6737241  
N    0.9325841    0.0103074   -7.5332652  
C    1.4798385   -1.5525347   -9.3685441  
C    0.9398022   -2.1951878  -10.5550906  
O    1.5890485   -2.9673627  -11.2482918  
C   -0.5361397   -1.8834130  -10.9603030  
O   -1.0016404   -2.4183321  -11.9575133  
C   -1.3095929   -0.9618561  -10.1318371  
H   -2.1920386    0.9591431   -7.9932575  
H    2.5009540   -1.7648821   -9.0836898  
H   -2.3308250   -0.7514350  -10.4191212  
H   -0.1685138    1.3637495   -6.2957818  
C    1.7334697    0.0049246   -3.2500361  
C    3.0863258    0.0047397   -3.2131620  
C    3.4995612    0.0065860   -4.6080574  
C    2.2333967    0.0076344   -5.3718706  
N    1.1947440    0.0067484   -4.5811811  
C    2.2116350    0.0095936   -6.8087451  
C    3.4007174    0.0108547   -7.4532722  
O    3.5293445    0.0127183   -8.7909914  
C    4.6955633    0.0102163   -6.7106184  
O    5.7398279    0.0113190   -7.3623322  
C    4.6914544    0.0081552   -5.2368803  
H    3.7249597    0.0035935   -2.3464319  
H    4.4909158    0.0132670   -8.9476201  
H    5.6504362    0.0078670   -4.7362960  
C    1.1319247    0.0015655   -0.8009267  
C    0.7969916    0.0034943   -2.1169401  
C   -0.6453337    0.0035710   -2.1842668  
C   -1.1266832    0.0015433   -0.7896026  
N    0.0000000    0.0000000    0.0000000  
C   -2.4346130    0.0013964   -0.4276294  
C   -3.4350109    0.0031408   -1.4820183  
O   -4.6384610    0.0030973   -1.2583915  
C   -2.9478956    0.0050505   -2.9661075  
O   -3.7809378    0.0062218   -3.8623775  
C   -1.5113821    0.0053090   -3.2312122  
H   -2.7664565    0.0000232    0.6013446  
H   -1.1823527    0.0068407   -4.2614846  
H    2.1104317    0.0009391   -0.3488056  
C    2.5528530    2.1414826    2.8079335  
C    2.0663498    1.7338582    4.0032312  
C    0.9804344    0.8229586    3.6752840  
C    0.9495562    0.7966882    2.1971295  
N    1.8690446    1.5676019    1.6831036  
C    0.0000000    0.0000000    1.4700000  
C   -0.8785127   -0.7372425    2.1869543  
O   -1.8187535   -1.5261249    1.6395491  
C   -0.8723269   -0.7321790    3.6796354  
O   -1.7010379   -1.4274584    4.2670412  
C    0.1115397    0.0933559    4.4024240  
H    2.4028853    2.0163452    4.9860947  
H   -2.2861435   -1.9184361    2.3990168  
H    0.0832434    0.0693689    5.4835595  
H    3.3664920    2.8238276    2.6198634  
