62

C    1.1243409    0.0100070   -0.7919007  
C    0.7474068    0.0234643   -2.1148546  
C   -0.6787389    0.0234403   -2.1414699  
C   -1.1201744    0.0098447   -0.7935549  
N    0.0000000    0.0000000    0.0000000  
C   -2.4730818    0.0063386   -0.4408239  
C   -3.3971962    0.0170538   -1.4675059  
O   -4.7313518    0.0145642   -1.1793467  
C   -2.9763658    0.0303120   -2.8186320  
O   -4.0166485    0.0394598   -3.7247620  
C   -1.6418572    0.0335049   -3.1673484  
H   -2.8160158   -0.0041479    0.5845963  
H   -5.1938823    0.0230192   -2.0274378  
H   -3.6464686    0.0481820   -4.6127340  
H   -1.3497480    0.0435693   -4.2109233  
H    2.1062464    0.0053094   -0.3505411  
C    4.6004726   -1.9778649   -3.1213376  
C    3.4874117   -1.6024409   -2.4492285  
C    2.8049893   -0.6773435   -3.3408530  
C    3.6691788   -0.6083010   -4.5387649  
N    4.7231353   -1.3686135   -4.4159196  
C    3.3373083    0.2134339   -5.6700036  
C    2.1938855    0.9331678   -5.6075337  
O    1.7614046    1.7418104   -6.5899279  
C    1.3005623    0.8844367   -4.4126448  
O    0.2755919    1.5659892   -4.4245744  
C    1.6628942    0.0339122   -3.2649305  
H    3.1687607   -1.9147832   -1.4694426  
H    0.9255291    2.1136975   -6.2550170  
H    5.3726996   -2.6583955   -2.7995969  
C    4.8748500   -0.8224994   -7.3931679  
C    4.2218964    0.2562677   -6.8432767  
C    4.5717985    1.3972410   -7.6245244  
C    5.4481028    0.9493924   -8.6460181  
N    5.6125008   -0.4028122   -8.4753337  
C    5.9938486    1.8084679   -9.6046318  
C    5.6484416    3.1439206   -9.5308901  
O    6.1525330    4.0262807  -10.4421241  
C    4.7758806    3.6099838   -8.5188425  
O    4.5287378    4.9659462   -8.5790934  
C    4.2373300    2.7630976   -7.5726547  
H    6.1731243   -0.9974605   -9.0584943  
H    6.6624258    1.4734056  -10.3856173  
H    5.7905815    4.8921436  -10.2129119  
H    3.9313355    5.1983911   -7.8616790  
H    3.5719464    3.1490823   -6.8092672  
H    4.8738837   -1.8578519   -7.0982038  
C    2.5128556    2.1077716    2.9199648  
C    1.9592212    1.6432552    4.0696553  
C    0.8915788    0.7479214    3.6910360  
C    0.8684491    0.7287414    2.2159470  
N    1.8754542    1.5738793    1.8102719  
C    0.0000000    0.0000000    1.4700000  
C   -0.9772830   -0.8200135    2.1664417  
O   -1.8021297   -1.5120829    1.5842315  
C   -0.9711318   -0.8147624    3.7284083  
O   -1.7894187   -1.5009653    4.3257297  
C    0.0140216    0.0115358    4.4216297  
H    2.2638494    1.8988021    5.0689105  
H    0.0117648    0.0094386    5.5031631  
H    3.3327358    2.7953732    2.7900019  
H    2.1123206    1.7707734    0.8551938  
