58

C    1.5875151   -2.3479945   -7.3087232  
C    1.1497551   -1.0636062   -7.3615220  
C    1.8837606   -0.4118601   -8.4204355  
C    2.7915184   -1.4291315   -8.9842852  
N    2.5631391   -2.5803098   -8.2662858  
C    3.6546990   -1.2068131  -10.0076111  
C    3.6923434    0.1232000  -10.5925757  
O    4.4354378    0.4231273  -11.5178615  
C    2.7398771    1.2160840  -10.0110118  
O    2.7628969    2.3396006  -10.4952027  
C    1.8535802    0.8564225   -8.9069400  
H    4.3119873   -1.9669597  -10.4064330  
H    1.1970676    1.6188158   -8.5101137  
H    1.2796336   -3.1443022   -6.6507015  
H    3.0314583   -3.4550843   -8.4162690  
C   -0.0202922   -0.6967077   -5.1400949  
C   -1.0641734    0.0073898   -4.6315339  
C   -1.6428385    0.7514419   -5.7253201  
C   -0.8448103    0.4207134   -6.9213807  
N    0.1229396   -0.4613332   -6.4990735  
C   -1.0739330    0.9222826   -8.1613949  
C   -2.1802191    1.8499246   -8.3291657  
O   -2.4675344    2.3561924   -9.4059405  
C   -3.0385139    2.2145169   -7.0760867  
O   -3.9723191    2.9946743   -7.2050172  
C   -2.6944049    1.6092961   -5.7918944  
H   -0.4766435    0.6666081   -9.0255628  
H   -3.2937360    1.8667795   -4.9292078  
H    0.6565473   -1.3675748   -4.6363937  
C    1.1319248    0.0015675   -0.8009270  
C    0.7969916    0.0034959   -2.1169404  
C   -0.6453336    0.0035703   -2.1842672  
C   -1.1266831    0.0015415   -0.7896027  
N    0.0000000    0.0000000    0.0000000  
C   -2.4346129    0.0013924   -0.4276297  
C   -3.4350110    0.0031352   -1.4820184  
O   -4.6384610    0.0030897   -1.2583919  
C   -2.9478958    0.0050460   -2.9661075  
O   -3.7809377    0.0062160   -3.8623775  
C   -1.5113821    0.0053068   -3.2312125  
H    1.4821240    0.0045436   -2.9459192  
H   -2.7664565    0.0000185    0.6013447  
H    2.1104318    0.0009428   -0.3488058  
C    0.8175213    0.6860729    2.3021913  
C    0.0000000    0.0000000    1.4700000  
C   -0.8887526   -0.7456559    2.3478473  
C   -0.4549825   -0.3816753    3.7138435  
N    0.5448156    0.4573574    3.6934124  
C   -1.0945674   -0.9182058    4.8835240  
C   -2.1210866   -1.7789155    4.6970523  
O   -2.8083856   -2.3554314    5.6976972  
C   -2.5824069   -2.1655116    3.3310774  
O   -3.5227682   -2.9541547    3.2362962  
C   -1.9100805   -1.6015804    2.1470656  
H   -0.7567140   -0.6349833    5.8697035  
H   -3.4728268   -2.9124471    5.2533954  
H   -2.2742832   -1.9066565    1.1752040  
H    1.6189533    1.3585343    2.0405121  
