62

C   -3.3003348   -0.0115608   -1.4738976  
C   -2.5232667   -0.0087851   -2.6090741  
C   -1.1623149   -0.0037539   -2.1820099  
C   -1.1711822   -0.0039737   -0.7636137  
N   -2.4852215   -0.0068163   -0.3662350  
C    0.0000000    0.0000000    0.0000000  
C    1.2020312    0.0039664   -0.6806485  
O    2.3759132    0.0075934    0.0157737  
C    1.2314556    0.0046279   -2.0955514  
O    2.5054213    0.0091793   -2.6250188  
C    0.0764476    0.0009826   -2.8495196  
H   -2.8919825   -0.0091063   -3.6205293  
H   -2.8035816   -0.0181906    0.5858671  
H    3.0835468    0.0102736   -0.6418832  
H    2.4359867    0.0092962   -3.5845929  
H    0.1304030    0.0017779   -3.9319085  
C   -5.6708211   -0.0191139   -2.3611549  
C   -4.7630227   -0.0163985   -1.3275387  
C   -5.5133219   -0.0174486   -0.1144229  
C   -6.8854821   -0.0211453   -0.4737102  
N   -6.9456323   -0.0201197   -1.8452050  
C   -7.9149589   -0.0233851    0.4723142  
C   -7.5526461   -0.0221726    1.8053203  
O   -8.5176837   -0.0246029    2.7705718  
C   -6.1889539   -0.0181188    2.1836650  
O   -5.9909145   -0.0169609    3.5489936  
C   -5.1728235   -0.0156340    1.2509277  
H   -8.9626801   -0.0260606    0.2049664  
H   -8.0554100   -0.0229080    3.6188439  
H   -5.0439692   -0.0142134    3.7189671  
H   -4.1373856   -0.0123599    1.5708279  
H   -5.5098267   -0.0189672   -3.4255981  
C   -8.0150730   -2.1619638   -5.5265276  
C   -9.2863852   -1.7123621   -5.6868346  
C   -9.5564630   -0.8133308   -4.5897310  
C   -8.3294770   -0.7757275   -3.7712679  
N   -7.4336494   -1.6148141   -4.3928112  
C   -8.1810835   -0.0385019   -2.6415855  
C   -9.3049045    0.7718532   -2.2023974  
O   -9.2700961    1.4704017   -1.1978486  
C  -10.6142584    0.7470759   -3.0537401  
O  -11.5671604    1.4250144   -2.6936868  
C  -10.6540366   -0.0869339   -4.2523630  
H   -9.9583479   -1.9801085   -6.4826948  
H  -11.5642497   -0.0983633   -4.8364054  
H   -7.4540807   -2.8471437   -6.1411056  
H   -6.5004631   -1.7995351   -4.0732980  
C    2.5128556    2.1077716    2.9199648  
C    1.9592212    1.6432552    4.0696553  
C    0.8915788    0.7479214    3.6910360  
C    0.8684491    0.7287414    2.2159470  
N    1.8754542    1.5738793    1.8102719  
C    0.0000000    0.0000000    1.4700000  
C   -0.9772830   -0.8200135    2.1664417  
O   -1.8021297   -1.5120829    1.5842315  
C   -0.9711318   -0.8147624    3.7284083  
O   -1.7894187   -1.5009653    4.3257297  
C    0.0140216    0.0115358    4.4216297  
H    2.2638494    1.8988021    5.0689105  
H    0.0117648    0.0094386    5.5031631  
H    3.3327358    2.7953732    2.7900019  
H    2.1123206    1.7707734    0.8551938  
