58

C   -3.9833917    0.7253521   -1.7965125  
C   -5.3237300    0.5083675   -1.8185364  
C   -5.5825467   -0.4183013   -2.8951674  
C   -4.2737348   -0.7256251   -3.5029138  
N   -3.3460098   -0.0004261   -2.7913644  
C   -4.0919156   -1.5656732   -4.5531348  
C   -5.2634899   -2.2099644   -5.1230805  
O   -5.2039381   -2.9830065   -6.0702668  
C   -6.6595986   -1.8988689   -4.4954634  
O   -7.6532012   -2.4351658   -4.9670550  
C   -6.7288581   -0.9762755   -3.3650313  
H   -6.0484330    0.9475035   -1.1562833  
H   -3.1231601   -1.7775446   -4.9838707  
H   -7.6992492   -0.7663338   -2.9360927  
H   -3.4076529    1.3545694   -1.1373465  
C    0.0000000    0.0000000    0.0000000  
C    1.0662918   -0.0000103   -0.8334272  
C    0.4961866    0.0000066   -2.1718888  
C   -0.9663862   -0.0000848   -1.9540246  
N   -1.2632777   -0.0000084   -0.6828658  
C   -1.8985367   -0.0000514   -3.0477256  
C   -1.3925783    0.0004569   -4.3020543  
O   -2.1456389    0.0005417   -5.4151310  
C    0.0786225    0.0009329   -4.5544999  
O    0.4683752    0.0012595   -5.7221105  
C    1.0143159    0.0008446   -3.4159033  
H    2.1107193    0.0000632   -0.5721869  
H   -1.5042282    0.0009699   -6.1484418  
C    4.3939396   -2.1065674   -1.5664987  
C    5.4031200   -1.6413500   -2.3470130  
C    4.8103411   -0.7457939   -3.3121184  
C    3.3627131   -0.7272474   -3.0278289  
N    3.1757271   -1.5729267   -1.9588331  
C    2.4521470    0.0014842   -3.7217487  
C    2.9297292    0.8221550   -4.8221804  
O    2.1884013    1.5142701   -5.5075349  
C    4.4587960    0.8175813   -5.1411459  
O    4.8725544    1.5043408   -6.0654977  
C    5.3421059   -0.0087724   -4.3221493  
H    6.4439778   -1.8965724   -2.2570680  
H    6.3995012   -0.0062037   -4.5493776  
H    4.4376443   -2.7945227   -0.7378267  
H    2.2909007   -1.7703223   -1.5285262  
C    3.1301144    0.0010313    3.1728260  
C    2.5367765    0.0002768    1.9564670  
C    1.1089900   -0.0001027    2.2356185  
C    1.0177864    0.0004150    3.7115134  
N    2.1993570    0.0011613    4.2663826  
C   -0.2459220    0.0002880    4.3957118  
C   -1.3675327    0.0000606    3.6398520  
O   -2.6129319   -0.0000866    4.1448486  
C   -1.3083589   -0.0000910    2.1483229  
O   -2.3693264   -0.0004206    1.5241687  
C    0.0000000    0.0000000    1.4700000  
H    3.0096015    0.0001008    0.9892483  
H   -0.2829642    0.0004689    5.4753125  
H   -3.1967446   -0.0002093    3.3649027  
H    4.1849273    0.0015113    3.3971983  
