58

C    7.1349051   -3.3967930   -1.2305253  
C    8.4765312   -3.4265574   -1.0226083  
C    8.9662667   -2.0859590   -1.2412182  
C    7.7915535   -1.2668541   -1.5960550  
N    6.7131196   -2.1208477   -1.5722852  
C    7.8361479    0.0598679   -1.8780550  
C    9.1273255    0.7254462   -1.8290218  
O    9.2716989    1.9174707   -2.0667933  
C   10.3848097   -0.1225954   -1.4557096  
O   11.4772807    0.4267818   -1.4115425  
C   10.2107171   -1.5449465   -1.1720523  
H    9.0568981   -4.2892264   -0.7476712  
H    6.9625535    0.6422884   -2.1359861  
H   11.0863462   -2.1250242   -0.9141643  
H    6.4188633   -4.1996755   -1.1630461  
C    4.1985330   -2.1423500   -1.2324143  
C    5.3247411   -1.7348288   -1.8626208  
C    4.8654772   -0.8236655   -2.8996155  
C    3.3948132   -0.7971456   -2.7478595  
N    2.9980296   -1.5681521   -1.7721028  
C    2.5562217   -0.0001543   -3.6003001  
C    3.1594329    0.7371398   -4.5604401  
O    2.5003399    1.5262936   -5.4258144  
C    4.6414691    0.7318289   -4.7384883  
O    5.1222591    1.4271709   -5.6332287  
C    5.4799811   -0.0940152   -3.8514688  
H    3.1964045    1.9185700   -5.9832786  
H    6.5493677   -0.0702008   -4.0129491  
H    4.1121693   -2.8248211   -0.4019036  
C    0.0000000    0.0000000    0.0000000  
C    1.0541688   -0.0001719   -0.8560391  
C    0.5103141   -0.0000449   -2.1935955  
C   -0.9576367    0.0002461   -2.0455733  
N   -1.2018459   -0.0001392   -0.6915970  
C   -1.8348306    0.0008319   -3.0810611  
C   -1.2972842    0.0009739   -4.4314605  
O   -2.0050664    0.0014267   -5.4301321  
C    0.2542628    0.0004190   -4.6117571  
O    0.7184677    0.0002263   -5.7439119  
C    1.0974556    0.0000880   -3.4189127  
H    2.0940752   -0.0005479   -0.5817978  
H   -2.9081050    0.0011669   -2.9507065  
H   -2.1128195    0.0014911   -0.2706793  
C    3.3321173   -0.0004715    2.8079335  
C    2.6974184   -0.0000116    4.0032312  
C    1.2800439    0.0002118    3.6752840  
C    1.2395035   -0.0000644    2.1971295  
N    2.4394063   -0.0005460    1.6831036  
C    0.0000000    0.0000000    1.4700000  
C   -1.1468701   -0.0000635    2.1869543  
O   -2.3742202   -0.0000073    1.6395491  
C   -1.1388768   -0.0001607    3.6796354  
O   -2.2206231   -0.0000905    4.2670412  
C    0.1454524   -0.0001816    4.4024240  
H    3.1367986    0.0000651    4.9860947  
H   -2.9844344   -0.0001026    2.3990168  
H    0.1083576   -0.0003682    5.4835595  
H    4.3940039   -0.0007619    2.6198634  
