58

C    5.9718890   -2.1066115   -4.3836097  
C    5.8824616   -1.6421430   -5.6565381  
C    4.7503164   -0.7470249   -5.6994995  
C    4.1834492   -0.7279190   -4.3374836  
N    4.9692735   -1.5728898   -3.5882214  
C    3.1006054    0.0006263   -3.9654951  
C    2.4499043    0.8204921   -4.9739316  
O    1.4681175    1.5123811   -4.7379561  
C    3.0331141    0.8153160   -6.4229464  
O    2.4935217    1.5013959   -7.2804986  
C    4.2049175   -0.0107669   -6.7027952  
H    6.5349995   -1.8975862   -6.4723546  
H    4.6026868   -0.0086188   -7.7085283  
H    4.8362803   -1.7697856   -2.6132382  
C    9.4200380   -4.2614734   -6.1050252  
C    8.3317022   -3.4709373   -5.9188720  
C    7.9487871   -3.6013268   -4.5327948  
C    8.9101628   -4.5393313   -3.9223070  
N    9.7754758   -4.9029931   -4.9282260  
C    8.8882894   -4.9242797   -2.6211374  
C    7.8483559   -4.3784901   -1.7648741  
O    7.7440841   -4.6636666   -0.5790818  
C    6.8194276   -3.3835403   -2.3903228  
O    5.9392390   -2.9177600   -1.6792831  
C    6.9454237   -3.0441299   -3.8055184  
H    7.8517880   -2.8656915   -6.6671850  
H    9.6030071   -5.6134470   -2.1931926  
H    9.9922068   -4.4295494   -7.0029470  
H   10.5476161   -5.5352940   -4.8231418  
C    3.2798083    0.0005857   -1.4499652  
C    2.5571142    0.0005565   -2.5996556  
C    1.1637432    0.0001548   -2.2210361  
C    1.1336964   -0.0000200   -0.7459473  
N    2.4483512   -0.0001428   -0.3402723  
C    0.0000000    0.0000000    0.0000000  
C   -1.2757368   -0.0000186   -0.6964415  
O   -2.3524598   -0.0000639   -0.1142311  
C   -1.2676497   -0.0000872   -2.2584083  
O   -2.3355766   -0.0004101   -2.8557295  
C    0.0181558    0.0001758   -2.9516296  
H    0.0150788    0.0003319   -4.0331631  
H    4.3498547    0.0008612   -1.3200026  
H    2.7563626    0.0012823    0.6148059  
C    0.8400945    0.7047457    2.2710304  
C    0.0000000    0.0000000    1.4700000  
C   -0.8844236   -0.7423113    2.3369512  
C   -0.4878984   -0.4098547    3.7186280  
N    0.5629682    0.4714286    3.6095011  
C   -1.0836927   -0.9095027    4.8308716  
C   -2.1891196   -1.8367527    4.6554461  
O   -2.7906899   -2.3413415    5.5944904  
C   -2.6257283   -2.2031529    3.2011665  
O   -3.5549479   -2.9829990    3.0410059  
C   -1.9068976   -1.5999348    2.0816745  
H   -0.7774656   -0.6525820    5.8354244  
H   -2.2155208   -1.8586617    1.0779135  
H    1.6384792    1.3747609    1.9961646  
H    1.0518368    0.8833920    4.3830260  
