60

C    0.3821150    3.2819571   -1.5420439  
C    0.2994622    2.5671295   -0.3695860  
C    0.1392835    1.1959169   -0.7283591  
C    0.1315378    1.1346380   -2.1454375  
N    0.2790790    2.4188181   -2.6077471  
C   -0.0084536   -0.0649774   -2.8497918  
C   -0.1427734   -1.2238780   -2.1101399  
O   -0.2822983   -2.4228917   -2.7472514  
C   -0.1377922   -1.1831242   -0.6955258  
O   -0.2817073   -2.4208175   -0.1032850  
C    0.0000000    0.0000000    0.0000000  
H    0.3474803    2.9829831    0.6222579  
H   -0.0152821   -0.1183828   -3.9297468  
H   -0.3600924   -3.0924044   -2.0551776  
H   -0.2679838   -2.3044988    0.8516418  
H    0.5049762    4.3393785   -1.7024304  
C    2.6568012    5.3371762   -4.9939710  
C    2.1806098    4.6204336   -3.9494130  
C    1.1665189    3.7494312   -4.5234113  
C    1.1616017    4.0821274   -5.9642001  
N    2.0331786    5.0121391   -6.2460176  
C    0.2820259    3.4276083   -6.8931986  
C   -0.5543358    2.4833641   -6.4051043  
O   -1.4280894    1.7932114   -7.1576238  
C   -0.5728012    2.1250284   -4.9561682  
O   -1.3603168    1.2561348   -4.5819176  
C    0.3390501    2.8107133   -4.0232756  
H    2.4805382    4.6758744   -2.9169185  
H    0.2995978    3.6907636   -7.9407439  
H   -1.8791982    1.1986814   -6.5313746  
C    4.3942970    6.7958524   -3.8574259  
C    5.2922224    7.7634703   -4.1760490  
C    5.1824766    7.9878436   -5.5981767  
C    4.1395113    7.0650299   -6.0854441  
N    3.7021616    6.3705973   -4.9811897  
C    3.7393147    6.9709532   -7.3787723  
C    4.3786192    7.8361776   -8.3561220  
O    4.0881470    7.8266111   -9.5451703  
C    5.4858883    8.8210670   -7.8624093  
O    6.0314306    9.5541943   -8.6761465  
C    5.8311686    8.8313436   -6.4430684  
H    5.9558567    8.2629094   -3.4928471  
H    2.9722815    6.2873355   -7.7152783  
H    6.5987082    9.5163313   -6.1093012  
H    4.1801156    6.3574968   -2.8962493  
C    2.4951002    2.0940188    2.9809380  
C    1.9440701    1.6314916    1.8291961  
C    0.8759964    0.7350050    2.2038498  
C    0.8497377    0.7130254    3.6788474  
N    1.8560616    1.5571714    4.0882609  
C   -0.0205033   -0.0168748    4.4215661  
C   -0.9962600   -0.8356168    3.7214979  
O   -1.8224391   -1.5286685    4.3006425  
C   -0.9864710   -0.8277881    2.1595606  
O   -1.8030528   -1.5133726    1.5592035  
C    0.0000000    0.0000000    1.4700000  
H    2.2509283    1.8888011    0.8310761  
H   -0.0229599   -0.0187323    5.5027230  
H    3.3143982    2.7817323    3.1139444  
H    2.0889452    1.7545833    5.0442112  
