60

C    3.3041271    0.0001182   -1.5420438  
C    2.5845370   -0.0004777   -0.3695864  
C    1.2040005   -0.0000007   -0.7283596  
C    1.1422371    0.0006041   -2.1454376  
N    2.4348638    0.0026114   -2.6077469  
C   -0.0655184    0.0008800   -2.8497924  
C   -1.2321771    0.0002325   -2.1101402  
O   -2.4392820    0.0001148   -2.7472520  
C   -1.1911210   -0.0000007   -0.6955267  
O   -2.4371524   -0.0002321   -0.1032863  
C    0.0000000    0.0000000    0.0000000  
H    3.0031536   -0.0000658    0.6222571  
H    2.7054626   -0.0071095   -3.5745271  
H   -3.1132993   -0.0000649   -2.0551787  
H   -2.3200279   -0.0004073    0.8516405  
H    4.3686618    0.0004077   -1.7024306  
C    2.3446861   -2.1385757   -5.7825625  
C    1.7992117   -1.7303699   -6.9519234  
C    0.7308343   -0.8198480   -6.5697993  
C    0.7735865   -0.7944096   -5.0919260  
N    1.7176437   -1.5654464   -4.6247560  
C   -0.1387088    0.0017021   -4.3179689  
C   -1.0519394    0.7391884   -4.9898751  
O   -1.9638781    1.5275964   -4.3958877  
C   -1.1200801    0.7349607   -6.4810154  
O   -1.9771145    1.4304203   -7.0260370  
C   -0.1732966   -0.0899940   -7.2523616  
H   -2.4685609    1.9202486   -5.1309196  
H   -0.2553905   -0.0654074   -8.3307339  
H    3.1667825   -2.8208802   -5.6356234  
C    2.5569786   -3.3579066   -8.7230587  
C    2.1913895   -2.1152463   -8.3153624  
C    2.2630258   -1.2545038   -9.4724388  
C    2.7034475   -2.1036602  -10.5957174  
N    2.8645016   -3.3669638  -10.0751262  
C    2.8923637   -1.6624334  -11.8651008  
C    2.6456562   -0.2573927  -12.1435463  
O    2.7873821    0.2363563  -13.2545945  
C    2.1788225    0.6603006  -10.9689361  
O    1.9683110    1.8450073  -11.1912320  
C    2.0099884    0.0694195   -9.6437169  
H    3.2157104   -2.3019892  -12.6746222  
H    1.6862886    0.7115580   -8.8358795  
H    2.6278243   -4.2677893   -8.1494873  
H    3.1580614   -4.1719977  -10.5974200  
C    2.5128556    2.1077716    2.9199648  
C    1.9592212    1.6432552    4.0696553  
C    0.8915788    0.7479214    3.6910360  
C    0.8684491    0.7287414    2.2159470  
N    1.8754542    1.5738793    1.8102719  
C    0.0000000    0.0000000    1.4700000  
C   -0.9772830   -0.8200135    2.1664417  
O   -1.8021297   -1.5120829    1.5842315  
C   -0.9711318   -0.8147624    3.7284083  
O   -1.7894187   -1.5009653    4.3257297  
C    0.0140216    0.0115358    4.4216297  
H    2.2638494    1.8988021    5.0689105  
H    0.0117648    0.0094386    5.5031631  
H    3.3327358    2.7953732    2.7900019  
H    2.1123206    1.7707734    0.8551938  
