58

C    1.9999920   -2.1070891   -5.1447765  
C    1.9105668   -1.6426496   -6.4177157  
C    0.7784255   -0.7475274   -6.4606980  
C    0.2115580   -0.7283875   -5.0986827  
N    0.9973788   -1.5733446   -4.3494007  
C   -0.8712826    0.0001710   -4.7267111  
C   -1.5219795    0.8200162   -5.7351665  
O   -2.5037636    1.5119150   -5.4992073  
C   -0.9387696    0.8148043   -7.1841817  
O   -1.4783588    1.5008667   -8.0417497  
C    0.2330301   -0.0112901   -7.4640107  
H    0.6307995   -0.0091670   -8.4697438  
H    2.7138545   -2.7945383   -4.7208621  
H    0.8643844   -1.7702170   -3.3744131  
C    3.3102949   -3.2232607   -7.7970023  
C    2.8024918   -1.9918335   -7.5328129  
C    3.3058150   -1.1013895   -8.5519345  
C    4.1545380   -1.9208756   -9.4378818  
N    4.1157307   -3.1971076   -8.9254219  
C    4.8138559   -1.4468152  -10.5252051  
C    4.6787136   -0.0352218  -10.8440717  
O    5.2328495    0.4872119  -11.8023504  
C    3.7850890    0.8514312   -9.9193621  
O    3.6640233    2.0413382  -10.1776734  
C    3.1243504    0.2263368   -8.7763253  
H    5.4312902   -2.0649753  -11.1620437  
H    2.5072128    0.8471218   -8.1411145  
H    3.1640608   -4.1476269   -7.2621642  
H    4.5966339   -3.9881433   -9.3127739  
C    1.0965514    0.0001359   -0.8010305  
C    0.0000000    0.0000000    0.0000000  
C   -1.1546563    0.0001470   -0.8669513  
C   -0.6372014    0.0003519   -2.2486282  
N    0.7342871    0.0007337   -2.1395014  
C   -1.4147739    0.0001352   -3.3608717  
C   -2.8576049   -0.0001048   -3.1854462  
O   -3.6427779   -0.0002494   -4.1244907  
C   -3.4275840   -0.0000725   -1.7311666  
O   -4.6406831    0.0000333   -1.5710060  
C   -2.4891867   -0.0001091   -0.6116744  
H   -2.8919122   -0.0002918    0.3920866  
H    2.1388272    0.0000663   -0.5261648  
H    1.3735872   -0.0006099   -2.9130262  
C    2.4951002    2.0940188    2.9809380  
C    1.9440701    1.6314916    1.8291961  
C    0.8759964    0.7350050    2.2038498  
C    0.8497377    0.7130254    3.6788474  
N    1.8560616    1.5571714    4.0882609  
C   -0.0205033   -0.0168748    4.4215661  
C   -0.9962600   -0.8356168    3.7214979  
O   -1.8224391   -1.5286685    4.3006425  
C   -0.9864710   -0.8277881    2.1595606  
O   -1.8030528   -1.5133726    1.5592035  
C    0.0000000    0.0000000    1.4700000  
H    2.2509283    1.8888011    0.8310761  
H   -0.0229599   -0.0187323    5.5027230  
H    3.3143982    2.7817323    3.1139444  
H    2.0889452    1.7545833    5.0442112  
