58

C    9.8550583   -0.7272941   -2.0979387  
C   11.1929830   -0.5108749   -2.0131111  
C   11.5370816    0.4159286   -3.0654737  
C   10.2809428    0.7239480   -3.7754246  
N    9.2992109   -0.0010180   -3.1401940  
C   10.1836659    1.5643125   -4.8365697  
C   11.3971641    2.2082344   -5.3112512  
O   11.4135349    2.9815175   -6.2599698  
C   12.7387391    1.8964016   -4.5745415  
O   13.7669565    2.4323829   -4.9653804  
C   12.7173926    0.9735216   -3.4424247  
H   11.8624741   -0.9504703   -1.2953708  
H    9.2523707    1.7766942   -5.3430199  
H   13.6504643    0.7630691   -2.9376350  
H    9.2284061   -1.3564162   -1.4868728  
C    5.6463485   -0.0007503   -0.7029966  
C    4.7161325   -0.0005435   -1.6923264  
C    5.4339821   -0.0003284   -2.9451344  
C    6.8689502   -0.0004569   -2.6021234  
N    6.9298893   -0.0003136   -1.2276504  
C    7.8767468   -0.0007182   -3.5109967  
C    7.5246265   -0.0006576   -4.9211552  
O    8.3596092   -0.0008157   -5.8161993  
C    6.0111289   -0.0002696   -5.3073303  
O    5.7025043    0.0000911   -6.4913959  
C    5.0159839   -0.0002906   -4.2379667  
H    3.9702004   -0.0002260   -4.5137576  
H    5.5021930   -0.0009683    0.3652304  
H    7.7763881   -0.0019094   -0.6886838  
C    3.2573665   -0.0002920   -1.5109385  
C    2.5379463   -0.0001709   -0.3591964  
C    1.1435038    0.0000331   -0.7338500  
C    1.1092599   -0.0000083   -2.2088477  
N    2.4227553    0.0001909   -2.6182613  
C   -0.0265539   -0.0002524   -2.9515660  
C   -1.3003040   -0.0002640   -2.2514977  
O   -2.3786790   -0.0004133   -2.8306421  
C   -1.2877727    0.0000311   -0.6895603  
O   -2.3539959    0.0003306   -0.0892030  
C    0.0000000    0.0000000    0.0000000  
H    2.9384091   -0.0000367    0.6389234  
H   -0.0296303   -0.0004086   -4.0327229  
H    2.7280482   -0.0013407   -3.5742119  
C    2.4951002    2.0940188    2.9809380  
C    1.9440701    1.6314916    1.8291961  
C    0.8759964    0.7350050    2.2038498  
C    0.8497377    0.7130254    3.6788474  
N    1.8560616    1.5571714    4.0882609  
C   -0.0205033   -0.0168748    4.4215661  
C   -0.9962600   -0.8356168    3.7214979  
O   -1.8224391   -1.5286685    4.3006425  
C   -0.9864710   -0.8277881    2.1595606  
O   -1.8030528   -1.5133726    1.5592035  
C    0.0000000    0.0000000    1.4700000  
H    2.2509283    1.8888011    0.8310761  
H   -0.0229599   -0.0187323    5.5027230  
H    3.3143982    2.7817323    3.1139444  
H    2.0889452    1.7545833    5.0442112  
