58

C    2.8643213   -3.3946237   -8.7515031  
C    3.1912046   -3.4239291  -10.0692154  
C    3.0171456   -2.0831656  -10.5760604  
C    2.5588029   -1.2644641   -9.4374460  
N    2.4862156   -2.1188251   -8.3614868  
C    2.2818602    0.0622709   -9.5065929  
C    2.4459631    0.7282897  -10.7880092  
O    2.2219869    1.9203614  -10.9526329  
C    2.9300992   -0.1193204  -12.0074241  
O    3.0716171    0.4304296  -13.0914013  
C    3.1971332   -1.5417284  -11.8091806  
H    3.5168984   -4.2863980  -10.6230068  
H    1.9469325    0.6443915   -8.6593214  
H    3.5321995   -2.1215055  -12.6584814  
H    2.8676254   -4.1977497   -8.0325687  
C    2.6001987   -2.1411819   -5.8266045  
C    2.0730546   -1.7332818   -7.0044479  
C    0.9991587   -0.8222833   -6.6393046  
C    1.0189898   -0.7962636   -5.1609560  
N    1.9554493   -1.5673975   -4.6788913  
C    0.0950446    0.0004351   -4.4015596  
C   -0.8074268    0.7379269   -5.0878437  
O   -1.7282260    1.5268491   -4.5083866  
C   -0.8524306    0.7331198   -6.5798599  
O   -1.7006933    1.4286187   -7.1383864  
C    0.1059495   -0.0924311   -7.3360990  
H   -2.2213257    1.9193582   -5.2513147  
H    0.0406004   -0.0682535   -8.4156246  
H    3.4197067   -2.8236756   -5.6666595  
C    3.3321173    0.0004713   -1.3379338  
C    2.6974181    0.0000116   -2.5332314  
C    1.2800438   -0.0002119   -2.2052841  
C    1.2395034    0.0000643   -0.7271299  
N    2.4394062    0.0005460   -0.2131038  
C    0.0000000    0.0000000    0.0000000  
C   -1.1468702    0.0000634   -0.7169543  
O   -2.3742203    0.0000074   -0.1695487  
C   -1.1388770    0.0001607   -2.2096355  
O   -2.2206234    0.0000905   -2.7970411  
C    0.1454522    0.0001815   -2.9324241  
H    3.1367984   -0.0000653   -3.5160950  
H   -2.9844346    0.0001026   -0.9290167  
H    4.3940038    0.0007618   -1.1498640  
C    2.5128556    2.1077716    2.9199648  
C    1.9592212    1.6432552    4.0696553  
C    0.8915788    0.7479214    3.6910360  
C    0.8684491    0.7287414    2.2159470  
N    1.8754542    1.5738793    1.8102719  
C    0.0000000    0.0000000    1.4700000  
C   -0.9772830   -0.8200135    2.1664417  
O   -1.8021297   -1.5120829    1.5842315  
C   -0.9711318   -0.8147624    3.7284083  
O   -1.7894187   -1.5009653    4.3257297  
C    0.0140216    0.0115358    4.4216297  
H    2.2638494    1.8988021    5.0689105  
H    0.0117648    0.0094386    5.5031631  
H    3.3327358    2.7953732    2.7900019  
H    2.1123206    1.7707734    0.8551938  
