62

C    1.1188641    0.0008220   -0.8003808  
C    0.0000000    0.0000000    0.0000000  
C   -1.1323866    0.0008906   -0.8673522  
C   -0.6382666    0.0019686   -2.1969277  
N    0.7324014    0.0038484   -2.1202240  
C   -1.4770914    0.0027331   -3.3154805  
C   -2.8395481    0.0020961   -3.0876854  
O   -3.7039204    0.0024448   -4.1440347  
C   -3.3517874    0.0013946   -1.7684327  
O   -4.7300495    0.0012386   -1.7073120  
C   -2.5248549    0.0009135   -0.6644811  
H   -1.1067577    0.0037001   -4.3313811  
H   -4.5940041    0.0021855   -3.7685124  
H   -4.9934602    0.0007280   -0.7819907  
H   -2.9462581    0.0005613    0.3339664  
H    2.1619892    0.0009349   -0.5342070  
C    4.4769653   -2.1470646   -2.7027291  
C    4.8409674   -1.7539562   -3.9455273  
C    3.7877256   -0.8472137   -4.3756423  
C    2.8430643   -0.8072144   -3.2387173  
N    3.2418487   -1.5671443   -2.2551183  
C    1.6478429   -0.0100098   -3.2703000  
C    1.4074689    0.7146095   -4.3867597  
O    0.3314538    1.5023762   -4.5530620  
C    2.3418713    0.6955153   -5.5506701  
O    2.0597581    1.3797252   -6.5342807  
C    3.5612144   -0.1302661   -5.4939936  
H    5.7161623   -2.0434626   -4.5016712  
H    0.4389875    1.8844071   -5.4428040  
H    4.2123683   -0.1166603   -6.3577324  
C    5.1844436   -3.0673590   -1.8008239  
C    6.3665495   -3.7482166   -1.9783804  
C    6.5956868   -4.5017703   -0.7891566  
C    5.5106350   -4.2388217    0.0857410  
N    4.6731039   -3.3625942   -0.5587623  
C    5.4056677   -4.8156153    1.3550241  
C    6.4142763   -5.6737183    1.7481460  
O    6.3614548   -6.2646418    2.9773877  
C    7.5052289   -5.9483061    0.8895188  
O    8.4280627   -6.8226296    1.4255045  
C    7.6095702   -5.3794307   -0.3626873  
H    6.9878914   -3.7059891   -2.8565281  
H    3.8123457   -3.0030405   -0.1875510  
H    4.5813190   -4.6191784    2.0266373  
H    7.1512936   -6.8162212    3.0493510  
H    9.1315005   -6.9542620    0.7825023  
H    8.4570443   -5.6085591   -0.9981131  
C    0.8681109    0.7263879    2.2709268  
C    0.6127770    0.5096195    3.5869401  
C   -0.4920590   -0.4175482    3.6542670  
C   -0.8620974   -0.7254003    2.2596025  
N    0.0000000    0.0000000    1.4700000  
C   -1.8641242   -1.5660088    1.8976294  
C   -2.6293522   -2.2103885    2.9520183  
O   -3.5512764   -2.9839180    2.7283916  
C   -2.2549728   -1.8987399    4.4361073  
O   -2.8923672   -2.4351063    5.3323774  
C   -1.1543735   -0.9755647    4.7012123  
H    1.1382914    0.9492124    4.4159191  
H   -2.1192137   -1.7782617    0.8686553  
H   -0.9013378   -0.7652422    5.7314848  
H    1.6172880    1.3558399    1.8188057  
