60

C   -3.2941079    0.0012875   -2.9038234  
C   -4.0168013    0.0014139   -1.7541324  
C   -5.4101729    0.0018622   -2.1327515  
C   -5.4402200    0.0019584   -3.6078406  
N   -4.1255655    0.0019957   -4.0135161  
C   -6.5739167    0.0019524   -4.3537873  
C   -7.8496529    0.0020704   -3.6573456  
O   -8.9263771    0.0021360   -4.2395554  
C   -7.8415656    0.0022236   -2.0953789  
O   -8.9094933    0.0026303   -1.4980570  
C   -6.5557599    0.0019361   -1.4021574  
H   -3.6191807    0.0013981   -0.7548775  
H   -6.5739171    0.0018936   -5.4349490  
H   -6.5588367    0.0018391   -0.3206244  
H   -3.8175543    0.0005037   -4.9685941  
C    0.0000000    0.0000000    0.0000000  
C    1.0541686   -0.0001722   -0.8560393  
C    0.5103131   -0.0000453   -2.1935957  
C   -0.9576377    0.0002459   -2.0455727  
N   -1.2018463   -0.0001391   -0.6915965  
C   -1.8348318    0.0008318   -3.0810604  
C   -1.2972856    0.0009738   -4.4314602  
O   -2.0050684    0.0014267   -5.4301314  
C    0.2542612    0.0004186   -4.6117571  
O    0.7184659    0.0002259   -5.7439120  
C    1.0974545    0.0000875   -3.4189131  
H    2.0940750   -0.0005483   -0.5817985  
H   -2.1128195    0.0014912   -0.2706785  
C    4.1985322   -2.1423510   -1.2324155  
C    5.3247406   -1.7348301   -1.8626227  
C    4.8654760   -0.8236667   -2.8996170  
C    3.3948124   -0.7971465   -2.7478607  
N    2.9980289   -1.5681529   -1.7721038  
C    2.5562205   -0.0001551   -3.6003010  
C    3.1594315    0.7371387   -4.5604409  
O    2.5003386    1.5262928   -5.4258153  
C    4.6414676    0.7318277   -4.7384901  
O    5.1222579    1.4271700   -5.6332304  
C    5.4799802   -0.0940164   -3.8514708  
H    6.3415660   -2.0175441   -1.6499861  
H    3.1964033    1.9185688   -5.9832794  
H    6.5493667   -0.0702023   -4.0129514  
H    4.1121691   -2.8248219   -0.4019048  
C    1.1188642   -0.0008217    2.2703808  
C    0.0000000    0.0000000    1.4700000  
C   -1.1323862   -0.0008904    2.3373528  
C   -0.6382662   -0.0019682    3.6669281  
N    0.7324016   -0.0038477    3.5902241  
C   -1.4770914   -0.0027325    4.7854808  
C   -2.8395474   -0.0020958    4.5576857  
O   -3.7039201   -0.0024443    5.6140350  
C   -3.3517868   -0.0013946    3.2384331  
O   -4.7300496   -0.0012389    3.1773122  
C   -2.5248543   -0.0009135    2.1344818  
H    1.3576314    0.0056174    4.3757045  
H   -1.1067570   -0.0036993    5.8013813  
H   -4.5940033   -0.0021850    5.2385129  
H   -4.9934601   -0.0007286    2.2519915  
H   -2.9462578   -0.0005617    1.1360343  
H    2.1619896   -0.0009344    2.0042067  
