58

C    5.9196297   -1.0724471   -3.1520211  
C    6.1247418   -1.9465726   -2.1332430  
C    7.5409331   -2.2256857   -2.0967010  
C    8.1484276   -1.4368375   -3.1854891  
N    7.1122436   -0.7604229   -3.7868851  
C    9.4729702   -1.4263562   -3.4807545  
C   10.3593713   -2.2469403   -2.6723796  
O   11.5676827   -2.3054552   -2.8590828  
C    9.7376451   -3.0906854   -1.5142105  
O   10.4739813   -3.7856006   -0.8270683  
C    8.2955302   -3.0195397   -1.2926390  
H    5.3700656   -2.3499599   -1.4818178  
H    9.8982178   -0.8404246   -4.2837233  
H    7.8729555   -3.6066221   -0.4885937  
H    7.2079434   -0.1347412   -4.5656094  
C    3.4106847   -0.7032174   -3.0670123  
C    2.4521483    0.0014840   -3.7217481  
C    3.1158557    0.7444933   -4.7668628  
C    4.5499135    0.4124944   -4.6666319  
N    4.6621248   -0.4692173   -3.6164497  
C    5.5136820    0.9128423   -5.4805768  
C    5.1117778    1.8404168   -6.5249016  
O    5.9049339    2.3456325   -7.3084585  
C    3.5983551    2.2063420   -6.6492182  
O    3.2480943    2.9864551   -7.5244333  
C    2.6531310    1.6023762   -5.7134674  
H    6.5600546    0.6562480   -5.3901706  
H    1.6070337    1.8607780   -5.8063811  
H    3.3081790   -1.3736414   -2.2292096  
C    0.0000000    0.0000000    0.0000000  
C    1.0662923   -0.0000101   -0.8334270  
C    0.4961873    0.0000065   -2.1718887  
C   -0.9663854   -0.0000848   -1.9540250  
N   -1.2632773   -0.0000083   -0.6828660  
C   -1.8985359   -0.0000514   -3.0477261  
C   -1.3925770    0.0004566   -4.3020547  
O   -2.1456378    0.0005414   -5.4151314  
C    0.0786240    0.0009326   -4.5545000  
O    0.4683767    0.0012591   -5.7221100  
C    1.0143171    0.0008444   -3.4159031  
H    2.1107200    0.0000633   -0.5721865  
H   -2.9622181   -0.0003268   -2.8593381  
H   -1.5042265    0.0009697   -6.1484419  
C    3.1301144    0.0010313    3.1728260  
C    2.5367765    0.0002768    1.9564670  
C    1.1089900   -0.0001027    2.2356185  
C    1.0177864    0.0004150    3.7115134  
N    2.1993570    0.0011613    4.2663826  
C   -0.2459220    0.0002880    4.3957118  
C   -1.3675327    0.0000606    3.6398520  
O   -2.6129319   -0.0000866    4.1448486  
C   -1.3083589   -0.0000910    2.1483229  
O   -2.3693264   -0.0004206    1.5241687  
C    0.0000000    0.0000000    1.4700000  
H    3.0096015    0.0001008    0.9892483  
H   -0.2829642    0.0004689    5.4753125  
H   -3.1967446   -0.0002093    3.3649027  
H    4.1849273    0.0015113    3.3971983  
