58

C    6.5766946   -3.0507832   -5.1212804  
C    5.9870136   -1.8395314   -4.9503405  
C    6.7101921   -0.8992946   -5.7736285  
C    7.7771597   -1.6675745   -6.4430426  
N    7.6418811   -2.9647190   -6.0048578  
C    8.6791626   -1.1380310   -7.3077281  
C    8.5935363    0.2835062   -7.5983048  
O    9.3597728    0.8543191   -8.3633914  
C    7.4715758    1.1165616   -6.9004324  
O    7.3898215    2.3142994   -7.1370770  
C    6.5578851    0.4337662   -5.9878464  
H    9.4539762   -1.7192405   -7.7881125  
H    5.7837060    1.0176710   -5.5088630  
H    6.3228591   -3.9990095   -4.6759445  
H    8.2256307   -3.7312437   -6.2854358  
C    4.6190970   -2.0899185   -2.8279654  
C    3.4606685   -1.6280057   -2.2906063  
C    2.8761400   -0.7301694   -3.2586206  
C    3.7955630   -0.7067284   -4.4122679  
N    4.8319962   -1.5514031   -4.0878917  
C    3.5979911    0.0246977   -5.5381835  
C    2.3999524    0.8436573   -5.6190799  
O    2.1321343    1.5380346   -6.5908894  
C    1.4124497    0.8342976   -4.4088913  
O    0.4006153    1.5200499   -4.4654208  
C    1.7334695    0.0049281   -3.2500363  
H    3.0613136   -1.8865707   -1.3260993  
H    4.2848592    0.0276109   -6.3731166  
H    5.3352946   -2.7782579   -2.4094680  
C    1.1319246    0.0015678   -0.8009268  
C    0.7969914    0.0034958   -2.1169401  
C   -0.6453340    0.0035696   -2.1842669  
C   -1.1266832    0.0015410   -0.7896025  
N    0.0000000    0.0000000    0.0000000  
C   -2.4346129    0.0013913   -0.4276292  
C   -3.4350111    0.0031335   -1.4820181  
O   -4.6384614    0.0030875   -1.2583914  
C   -2.9478961    0.0050442   -2.9661074  
O   -3.7809382    0.0062135   -3.8623773  
C   -1.5113825    0.0053055   -3.2312122  
H   -2.7664565    0.0000174    0.6013448  
H   -1.1823533    0.0068381   -4.2614848  
H    2.1104316    0.0009435   -0.3488059  
C    0.8175213    0.6860729    2.3021913  
C    0.0000000    0.0000000    1.4700000  
C   -0.8887526   -0.7456559    2.3478473  
C   -0.4549825   -0.3816753    3.7138435  
N    0.5448156    0.4573574    3.6934124  
C   -1.0945674   -0.9182058    4.8835240  
C   -2.1210866   -1.7789155    4.6970523  
O   -2.8083856   -2.3554314    5.6976972  
C   -2.5824069   -2.1655116    3.3310774  
O   -3.5227682   -2.9541547    3.2362962  
C   -1.9100805   -1.6015804    2.1470656  
H   -0.7567140   -0.6349833    5.8697035  
H   -3.4728268   -2.9124471    5.2533954  
H   -2.2742832   -1.9066565    1.1752040  
H    1.6189533    1.3585343    2.0405121  
