60

C    0.0000000    0.0000000    0.0000000  
C    1.0521661   -0.0011902   -0.8862344  
C    0.4917211   -0.0011956   -2.1979132  
C   -0.9187435    0.0003148   -2.0478678  
N   -1.1833170   -0.0009412   -0.7007910  
C   -1.7951711    0.0010351   -3.1372085  
C   -1.2375846    0.0005226   -4.4010421  
O   -2.0474229    0.0015361   -5.4997574  
C    0.1673569   -0.0013566   -4.5711963  
O    0.5673506   -0.0020687   -5.8915553  
C    1.0325765   -0.0023412   -3.4969895  
H    2.0953057   -0.0030649   -0.6200566  
H   -2.0989777    0.0102372   -0.2891821  
H   -1.4634903    0.0006498   -6.2693591  
H    1.5290693   -0.0033152   -5.9180049  
H    2.1042134   -0.0039609   -3.6584462  
C   -3.2578661    0.0024039   -2.9908499  
C   -4.0046944    0.0033125   -1.8566885  
C   -5.3897524    0.0044627   -2.2646688  
C   -5.3886204    0.0041180   -3.7400636  
N   -4.0656866    0.0032564   -4.1178659  
C   -6.5062997    0.0045471   -4.5098019  
C   -7.7964690    0.0056317   -3.8404755  
O   -8.8606472    0.0061495   -4.4453096  
C   -7.8213911    0.0062654   -2.2786869  
O   -8.9017022    0.0074857   -1.7040673  
C   -6.5505227    0.0054371   -1.5584479  
H   -3.6282787    0.0033734   -0.8492537  
H   -6.5764546    0.0056780   -0.4772210  
H   -3.7375619    0.0012866   -5.0662212  
C   -5.5908610   -0.7232219   -6.7616207  
C   -5.8181883   -0.5067715   -8.0828120  
C   -6.9207581    0.4210744   -8.1737980  
C   -7.3199873    0.7296709   -6.7873727  
N   -6.4752356    0.0040105   -5.9794738  
C   -8.3288979    1.5710489   -6.4469508  
C   -9.0712589    2.2155304   -7.5175018  
O   -9.9972051    2.9897279   -7.3136794  
C   -8.6658023    1.9031020   -8.9932387  
O   -9.2837684    2.4395466   -9.9029664  
C   -7.5604411    0.9791300   -9.2347011  
H   -5.2755566   -0.9470012   -8.9003465  
H   -8.6055383    1.7838396   -5.4236719  
H   -7.2858253    0.7682705  -10.2593233  
H   -4.8518110   -1.3529853   -6.2935478  
C    0.0000000    0.0000000    1.4700000  
C    1.0541688    0.0001722    2.3260392  
C    0.5103138    0.0000454    3.6635956  
C   -0.9576371   -0.0002459    3.5155732  
N   -1.2018458    0.0001392    2.1615969  
C   -1.8348311   -0.0008317    4.5510609  
C   -1.2972847   -0.0009736    5.9014604  
O   -2.0050672   -0.0014265    6.9001319  
C    0.2542623   -0.0004184    6.0817573  
O    0.7184670   -0.0002256    7.2139121  
C    1.0974552   -0.0000873    4.8889129  
H    2.0940752    0.0005483    2.0517982  
H   -2.9081052   -0.0011668    4.4207061  
H    2.1707277    0.0000911    5.0223670  
H   -2.1128194   -0.0014912    1.7406791  
