58

C    3.2798085    0.0005856   -1.4499646  
C    2.5571146    0.0005565   -2.5996553  
C    1.1637436    0.0001548   -2.2210360  
C    1.1336964   -0.0000200   -0.7459468  
N    2.4483512   -0.0001429   -0.3402719  
C    0.0000000    0.0000000    0.0000000  
C   -1.2757371   -0.0000187   -0.6964415  
O   -2.3524597   -0.0000640   -0.1142312  
C   -1.2676493   -0.0000873   -2.2584081  
O   -2.3355761   -0.0004101   -2.8557295  
C    0.0181561    0.0001759   -2.9516296  
H    2.9547354    0.0006074   -3.5989104  
H    2.7563628    0.0012823    0.6148064  
C    5.6664817    0.0004239   -2.2647000  
C    4.7390846    0.0009612   -1.2727278  
C    5.4604950    0.0016743   -0.0219673  
C    6.8944814    0.0015363   -0.3690592  
N    6.9515108    0.0003683   -1.7436996  
C    7.9048596    0.0024672    0.5369428  
C    7.5567528    0.0034602    1.9480967  
O    8.3942790    0.0042789    2.8407616  
C    6.0443602    0.0033715    2.3385765  
O    5.7391057    0.0038954    3.5235151  
C    5.0461772    0.0026031    1.2720487  
H    8.9502793    0.0024766    0.2612481  
H    4.0011825    0.0027520    1.5508135  
H    5.5192878   -0.0001531   -3.3325123  
H    7.7964724    0.0015560   -2.2850733  
C    2.5049806   -2.0931560   -5.9399561  
C    1.9571818   -1.6308516   -4.7865848  
C    0.8879545   -0.7344211   -5.1580685  
C    0.8574974   -0.7122315   -6.6329822  
N    1.8627392   -1.5562147   -7.0453797  
C   -0.0149279    0.0176861   -7.3731166  
C   -0.9887730    0.8362266   -6.6701577  
O   -1.8166674    1.5292768   -7.2468493  
C   -0.9745397    0.8281737   -5.1082557  
O   -1.7894805    1.5135875   -4.5054785  
C    0.0139740    0.0003878   -4.4216236  
H    2.2669048   -1.8882734   -3.7893789  
H   -0.0204605    0.0196992   -8.4542627  
H    3.3239675   -2.7807661   -6.0753923  
H    2.0929224   -1.7534649   -8.0020166  
C    2.5528530    2.1414826    2.8079335  
C    2.0663498    1.7338582    4.0032312  
C    0.9804344    0.8229586    3.6752840  
C    0.9495562    0.7966882    2.1971295  
N    1.8690446    1.5676019    1.6831036  
C    0.0000000    0.0000000    1.4700000  
C   -0.8785127   -0.7372425    2.1869543  
O   -1.8187535   -1.5261249    1.6395491  
C   -0.8723269   -0.7321790    3.6796354  
O   -1.7010379   -1.4274584    4.2670412  
C    0.1115397    0.0933559    4.4024240  
H    2.4028853    2.0163452    4.9860947  
H   -2.2861435   -1.9184361    2.3990168  
H    0.0832434    0.0693689    5.4835595  
H    3.3664920    2.8238276    2.6198634  
