58

C    0.0000000    0.0000000    0.0000000  
C    1.0541691   -0.0001726   -0.8560388  
C    0.5103142   -0.0000463   -2.1935954  
C   -0.9576361    0.0002452   -2.0455733  
N   -1.2018455   -0.0001395   -0.6915971  
C   -1.8348302    0.0008309   -3.0810613  
C   -1.2972833    0.0009725   -4.4314608  
O   -2.0050655    0.0014253   -5.4301324  
C    0.2542638    0.0004173   -4.6117570  
O    0.7184689    0.0002241   -5.7439118  
C    1.0974565    0.0000863   -3.4189125  
H    2.0940756   -0.0005488   -0.5817978  
H    2.1707287   -0.0000922   -3.5523662  
H   -2.1128192    0.0014911   -0.2706797  
C   -4.6945335    2.0112722   -0.3161628  
C   -3.5419722    1.6295577   -0.9140558  
C   -3.9513657    0.7131099   -1.9671559  
C   -5.4249851    0.6554369   -1.8589736  
N   -5.8663722    1.4144225   -0.8929984  
C   -6.2212857   -0.1553992   -2.7384830  
C   -5.5748579   -0.8755711   -3.6833733  
O   -6.1915659   -1.6747287   -4.5705372  
C   -4.0887144   -0.8381767   -3.8180591  
O   -3.5674042   -1.5194704   -4.7008358  
C   -3.2941063    0.0012866   -2.9038250  
H   -2.5379809    1.9325456   -0.6705902  
H   -7.2964575   -0.1786966   -2.6366327  
H   -5.4713998   -2.0497111   -5.1089632  
C   -1.7202820    4.2175175    1.9803142  
C   -2.4874297    4.8842398    2.8739271  
C   -3.8530351    4.4900014    2.5637691  
C   -3.7217895    3.5559925    1.4249159  
N   -2.4739090    3.3922906    1.0785258  
C   -4.8649593    2.9345580    0.8149422  
C   -6.0838068    3.2323488    1.3199827  
O   -7.2357769    2.7254059    0.8487992  
C   -6.2489390    4.1708683    2.4689270  
O   -7.3882859    4.3960517    2.8768499  
C   -5.0608786    4.7955687    3.0773567  
H   -2.1662719    5.5600339    3.6480301  
H   -7.9281069    3.1212196    1.4084093  
H   -5.2229415    5.4695400    3.9078559  
H   -0.6468821    4.2403418    1.8789958  
C    1.1319247   -0.0015655    2.2709268  
C    0.7969915   -0.0034943    3.5869401  
C   -0.6453339   -0.0035710    3.6542670  
C   -1.1266833   -0.0015433    2.2596025  
N    0.0000000    0.0000000    1.4700000  
C   -2.4346130   -0.0013964    1.8976294  
C   -3.4350110   -0.0031408    2.9520183  
O   -4.6384611   -0.0030974    2.7283916  
C   -2.9478959   -0.0050506    4.4361073  
O   -3.7809380   -0.0062218    5.3323774  
C   -1.5113823   -0.0053090    4.7012123  
H    1.4821238   -0.0045407    4.4159191  
H   -2.7664565   -0.0000232    0.8686553  
H   -1.1823530   -0.0068408    5.7314848  
H    2.1104316   -0.0009391    1.8188057  
