62

C    0.0000000    0.0000000    0.0000000  
C    1.0521660   -0.0011902   -0.8862349  
C    0.4917205   -0.0011958   -2.1979136  
C   -0.9187438    0.0003152   -2.0478680  
N   -1.1833175   -0.0009410   -0.7007909  
C   -1.7951715    0.0010353   -3.1372088  
C   -1.2375854    0.0005225   -4.4010421  
O   -2.0474238    0.0015362   -5.4997578  
C    0.1673565   -0.0013567   -4.5711966  
O    0.5673498   -0.0020687   -5.8915554  
C    1.0325757   -0.0023413   -3.4969896  
H    2.0953050   -0.0030651   -0.6200570  
H   -2.0989779    0.0102376   -0.2891817  
H   -1.4634912    0.0006500   -6.2693589  
H    1.5290687   -0.0033153   -5.9180049  
H    2.1042132   -0.0039613   -3.6584467  
C   -4.5382428    2.1273451   -0.3186938  
C   -3.4269656    1.6642221   -0.9843118  
C   -3.8900514    0.7769064   -2.0005905  
C   -5.3047977    0.7380671   -1.9061927  
N   -5.6653153    1.5677436   -0.8735837  
C   -6.0984779   -0.0377243   -2.7564913  
C   -5.4522268   -0.7877405   -3.7198258  
O   -6.1789727   -1.5628746   -4.5765752  
C   -4.0415012   -0.7624921   -3.8295247  
O   -3.5480042   -1.5637036   -4.8384179  
C   -3.2578666    0.0024045   -2.9908496  
H   -2.4078447    1.9320313   -0.7637129  
H   -6.6071045    1.7500077   -0.5772823  
H   -7.1771665   -0.0717833   -2.6896169  
H   -5.5421637   -1.9965791   -5.1593612  
H   -2.5888299   -1.4891816   -4.8443289  
C   -3.6108433    3.6756310    1.4427672  
C   -4.6443911    3.0614860    0.8113566  
C   -5.8561959    3.5015007    1.4615501  
C   -5.4409378    4.4290095    2.5311661  
N   -4.0680115    4.4909704    2.4669543  
C   -6.2951729    5.0613617    3.3750371  
C   -7.7185489    4.8116225    3.2195814  
O   -8.5678367    5.3331272    3.9302455  
C   -8.1808250    3.8327552    2.0935601  
O   -9.3766326    3.6144949    1.9533159  
C   -7.1660165    3.2114227    1.2462339  
H   -5.9698651    5.7380604    4.1529598  
H   -7.4943738    2.5350596    0.4687776  
H   -2.5536387    3.6010261    1.2461913  
H   -3.4876687    5.0448948    3.0697951  
C    0.0000000    0.0000000    1.4700000  
C    1.0541688    0.0001722    2.3260392  
C    0.5103138    0.0000454    3.6635956  
C   -0.9576371   -0.0002459    3.5155732  
N   -1.2018458    0.0001392    2.1615969  
C   -1.8348311   -0.0008317    4.5510609  
C   -1.2972847   -0.0009736    5.9014604  
O   -2.0050672   -0.0014265    6.9001319  
C    0.2542623   -0.0004184    6.0817573  
O    0.7184670   -0.0002256    7.2139121  
C    1.0974552   -0.0000873    4.8889129  
H    2.0940752    0.0005483    2.0517982  
H   -2.9081052   -0.0011668    4.4207061  
H    2.1707277    0.0000911    5.0223670  
H   -2.1128194   -0.0014912    1.7406791  
