64

C    2.3020056   -2.1258164   -5.9826648  
C    1.8093619   -1.6631472   -4.7844546  
C    0.7354062   -0.7757529   -5.0906404  
C    0.6179773   -0.7364002   -6.5036468  
N    1.5853771   -1.5658594   -7.0142853  
C   -0.3411005    0.0396027   -7.1615059  
C   -1.1974273    0.7893054   -6.3786729  
O   -2.1529117    1.5646263   -6.9693846  
C   -1.0957281    0.7635435   -4.9673575  
O   -2.0198644    1.5644922   -4.3287676  
C   -0.1496415   -0.0015615   -4.3176961  
H    2.1793384   -1.9313020   -3.8096709  
H    1.7380675   -1.7477618   -7.9897736  
H   -0.4356787    0.0740527   -8.2381070  
H   -2.6343338    1.9980538   -6.2526986  
H   -1.8828076    1.4896276   -3.3794446  
C    4.1910962   -3.6575165   -5.3002659  
C    5.1282949   -4.4535076   -5.9171326  
C    4.9103246   -4.3407894   -7.3222601  
C    3.8178160   -3.4546492   -7.5042075  
N    3.4036594   -3.0598227   -6.2563273  
C    3.3255408   -3.1102307   -8.7666772  
C    3.9476717   -3.6703367   -9.8654997  
O    3.5075671   -3.3678708  -11.1216203  
C    5.0389340   -4.5569034   -9.7043689  
O    5.5503371   -5.0310544  -10.8947435  
C    5.5249303   -4.8973383   -8.4592027  
H    5.8762547   -5.0437479   -5.4159693  
H    2.4931396   -2.4355660   -8.9120724  
H    4.0714081   -3.8581990  -11.7339331  
H    6.2831444   -5.6222160  -10.6969439  
H    6.3621871   -5.5792401   -8.3670726  
H    4.0211163   -3.4699510   -4.2538982  
C    3.3003543    0.0005276   -1.4738987  
C    2.5232814    0.0003497   -2.6090747  
C    1.1623200   -0.0001320   -2.1820103  
C    1.1711883    0.0000582   -0.7636140  
N    2.4852300   -0.0014919   -0.3662360  
C    0.0000000    0.0000000    0.0000000  
C   -1.2020384    0.0000519   -0.6806477  
O   -2.3759249    0.0003493    0.0157743  
C   -1.2314656   -0.0005115   -2.0955510  
O   -2.5054392   -0.0008039   -2.6250180  
C   -0.0764516   -0.0007274   -2.8495195  
H    2.8919955   -0.0005620   -3.6205304  
H    2.8036267    0.0088183    0.5858662  
H   -3.0835638    0.0000347   -0.6418818  
H   -2.4360047   -0.0011529   -3.5845921  
H    4.3715549    0.0004895   -1.3667136  
C    0.8681109    0.7263879    2.2709268  
C    0.6127770    0.5096195    3.5869401  
C   -0.4920590   -0.4175482    3.6542670  
C   -0.8620974   -0.7254003    2.2596025  
N    0.0000000    0.0000000    1.4700000  
C   -1.8641242   -1.5660088    1.8976294  
C   -2.6293522   -2.2103885    2.9520183  
O   -3.5512764   -2.9839180    2.7283916  
C   -2.2549728   -1.8987399    4.4361073  
O   -2.8923672   -2.4351063    5.3323774  
C   -1.1543735   -0.9755647    4.7012123  
H    1.1382914    0.9492124    4.4159191  
H   -2.1192137   -1.7782617    0.8686553  
H   -0.9013378   -0.7652422    5.7314848  
H    1.6172880    1.3558399    1.8188057  
