58

C   11.0519707    2.0946462   -2.1518815  
C    9.8108839    1.6322022   -1.8520085  
C    9.9553049    0.7370335   -0.7283308  
C   11.3925651    0.7157369   -0.3957370  
N   12.0022168    1.5589795   -1.2958245  
C   11.9381237   -0.0128950    0.6108250  
C   11.0505331   -0.8308955    1.4205125  
O   11.4452569   -1.5227988    2.3499015  
C    9.5248116   -0.8237707    1.0859554  
O    8.7678404   -1.5087405    1.7605441  
C    9.0554111    0.0026475   -0.0233452  
H    8.8983963    1.8887375   -2.3601127  
H   12.9951100   -0.0142700    0.8381729  
H   11.3523832    2.7815351   -2.9263648  
H   12.9856591    1.7565645   -1.3249451  
C    7.0021977    0.0016964   -3.8667569  
C    5.7010038    0.0007394   -3.4946381  
C    5.7268785    0.0007367   -2.0400488  
C    7.1642508    0.0016711   -1.6928540  
N    7.9166770    0.0023173   -2.7595516  
C    7.6175797    0.0019951   -0.3291902  
C    6.6776994    0.0018010    0.6434145  
O    6.9577654    0.0020529    1.9577977  
C    5.2193467    0.0012353    0.3250321  
O    4.4197297    0.0009616    1.2608917  
C    4.7795901    0.0008674   -1.0815733  
H    4.8310653    0.0002032   -4.1288957  
H    6.0879580    0.0018433    2.3966452  
H    7.4070859    0.0020142   -4.8662762  
C    3.3321168    0.0004716   -1.3379341  
C    2.6974177    0.0000118   -2.5332316  
C    1.2800432   -0.0002116   -2.2052842  
C    1.2395033    0.0000644   -0.7271298  
N    2.4394059    0.0005460   -0.2131041  
C    0.0000000    0.0000000    0.0000000  
C   -1.1468704    0.0000635   -0.7169542  
O   -2.3742206    0.0000074   -0.1695488  
C   -1.1388774    0.0001608   -2.2096352  
O   -2.2206238    0.0000906   -2.7970409  
C    0.1454514    0.0001818   -2.9324241  
H    3.1367978   -0.0000649   -3.5160956  
H   -2.9844350    0.0001027   -0.9290164  
H    0.1083567    0.0003684   -4.0135594  
C    0.8175213    0.6860729    2.3021913  
C    0.0000000    0.0000000    1.4700000  
C   -0.8887526   -0.7456559    2.3478473  
C   -0.4549825   -0.3816753    3.7138435  
N    0.5448156    0.4573574    3.6934124  
C   -1.0945674   -0.9182058    4.8835240  
C   -2.1210866   -1.7789155    4.6970523  
O   -2.8083856   -2.3554314    5.6976972  
C   -2.5824069   -2.1655116    3.3310774  
O   -3.5227682   -2.9541547    3.2362962  
C   -1.9100805   -1.6015804    2.1470656  
H   -0.7567140   -0.6349833    5.8697035  
H   -3.4728268   -2.9124471    5.2533954  
H   -2.2742832   -1.9066565    1.1752040  
H    1.6189533    1.3585343    2.0405121  
