58

C    0.2317326   -0.7258270   -5.1498276  
C    0.4809622   -0.5091361   -6.4670234  
C   -0.5210724    0.4175599   -6.9381882  
C   -1.3806544    0.7252200   -5.7791994  
N   -0.8712817    0.0001698   -4.7267113  
C   -2.4458510    1.5653908   -5.8134607  
C   -2.7672881    2.2094683   -7.0761474  
O   -3.7068815    2.9825979   -7.2093273  
C   -1.8706090    1.8980157   -8.3166185  
O   -2.1316859    2.4341305   -9.3851127  
C   -0.7496050    0.9753182   -8.1558973  
H    1.2759107   -0.9484842   -7.0429092  
H   -3.0633864    1.7775094   -4.9517379  
H    0.7609217   -1.3549694   -4.4526696  
C    1.0965517    0.0001355   -0.8010306  
C    0.0000000    0.0000000    0.0000000  
C   -1.1546558    0.0001466   -0.8669519  
C   -0.6372007    0.0003512   -2.2486288  
N    0.7342878    0.0007329   -2.1395013  
C   -1.4147733    0.0001343   -3.3608721  
C   -2.8576040   -0.0001059   -3.1854469  
O   -3.6427770   -0.0002503   -4.1244914  
C   -3.4275835   -0.0000734   -1.7311670  
O   -4.6406826    0.0000325   -1.5710066  
C   -2.4891866   -0.0001094   -0.6116747  
H   -2.8919120   -0.0002921    0.3920860  
H    2.1388274    0.0000659   -0.5261646  
H    1.3735878   -0.0006106   -2.9130262  
C    1.1103826   -2.7366765   -9.6585521  
C    0.4185790   -1.8209528   -8.9326506  
C    0.5627720   -0.5526879   -9.6075929  
C    1.4012771   -0.8064192  -10.7947408  
N    1.7000361   -2.1491375  -10.7675361  
C    1.7676447    0.1415054  -11.6941400  
C    1.3054443    1.5025236  -11.4784216  
O    1.5815666    2.4270167  -12.2316603  
C    0.4165407    1.7940812  -10.2275619  
O    0.0217242    2.9362024  -10.0353644  
C    0.0877917    0.6896339   -9.3298019  
H   -0.1299672   -2.0120746   -8.0275634  
H    2.3832534   -0.0656825  -12.5584377  
H    1.2392347   -3.7912664   -9.4765432  
H    2.2585380   -2.6288168  -11.4494683  
C    2.5528530    2.1414826    2.8079335  
C    2.0663498    1.7338582    4.0032312  
C    0.9804344    0.8229586    3.6752840  
C    0.9495562    0.7966882    2.1971295  
N    1.8690446    1.5676019    1.6831036  
C    0.0000000    0.0000000    1.4700000  
C   -0.8785127   -0.7372425    2.1869543  
O   -1.8187535   -1.5261249    1.6395491  
C   -0.8723269   -0.7321790    3.6796354  
O   -1.7010379   -1.4274584    4.2670412  
C    0.1115397    0.0933559    4.4024240  
H    2.4028853    2.0163452    4.9860947  
H   -2.2861435   -1.9184361    2.3990168  
H    0.0832434    0.0693689    5.4835595  
H    3.3664920    2.8238276    2.6198634  
