62

C    1.6073881   -2.0689119   -5.4060700  
C    0.7601862   -1.6162666   -4.4212716  
C   -0.1611749   -0.7224078   -5.0431317  
C    0.1755977   -0.6689626   -6.4199591  
N    1.2549640   -1.4966144   -6.6059126  
C   -0.5252873    0.1165428   -7.3400298  
C   -1.5856458    0.8614352   -6.8615387  
O   -2.3044190    1.6455958   -7.7167996  
C   -1.9367991    0.8216485   -5.4911646  
O   -3.0157164    1.6194068   -5.1704428  
C   -1.2456338    0.0471626   -4.5828765  
H    0.8018947   -1.8950830   -3.3822746  
H   -0.2735355    0.1617467   -8.3906388  
H   -2.9882640    2.0736350   -7.1853822  
H   -3.1868180    1.5348851   -4.2274777  
H    2.4360578   -2.7536079   -5.3472762  
C    1.1243406    0.0100015   -0.7919003  
C    0.7474072    0.0234606   -2.1148544  
C   -0.6787388    0.0234435   -2.1414695  
C   -1.1201747    0.0098501   -0.7935549  
N    0.0000000    0.0000000    0.0000000  
C   -2.4730815    0.0063506   -0.4408239  
C   -3.3971962    0.0170701   -1.4675056  
O   -4.7313520    0.0145872   -1.1793466  
C   -2.9763653    0.0303262   -2.8186321  
O   -4.0166485    0.0394789   -3.7247618  
C   -1.6418567    0.0335125   -3.1673482  
H    1.4178710    0.0311089   -2.9571210  
H   -2.8160167   -0.0041343    0.5845972  
H   -5.1938821    0.0230439   -2.0274381  
H   -3.6464682    0.0481993   -4.6127342  
H    2.1062464    0.0052993   -0.3505409  
C    2.8636110   -5.1738281   -8.3873980  
C    3.3203909   -4.6724042   -9.5638338  
C    3.0267407   -3.2586863   -9.5612390  
C    2.3566612   -2.9755575   -8.2776416  
N    2.2881578   -4.1780937   -7.6127330  
C    1.9199550   -1.7498174   -7.8922153  
C    2.1232764   -0.6350577   -8.8024387  
O    1.7655719    0.5073252   -8.5468823  
C    2.8305182   -0.9119418  -10.1673380  
O    3.0069280    0.0187062  -10.9419570  
C    3.2569441   -2.2757671  -10.4706420  
H    3.8072938   -5.2293517  -10.3444428  
H    3.7460715   -2.4590515  -11.4176823  
H    2.8987663   -6.1870374   -8.0212547  
H    1.8843415   -4.3114322   -6.7037773  
C    2.5528530    2.1414826    2.8079335  
C    2.0663498    1.7338582    4.0032312  
C    0.9804344    0.8229586    3.6752840  
C    0.9495562    0.7966882    2.1971295  
N    1.8690446    1.5676019    1.6831036  
C    0.0000000    0.0000000    1.4700000  
C   -0.8785127   -0.7372425    2.1869543  
O   -1.8187535   -1.5261249    1.6395491  
C   -0.8723269   -0.7321790    3.6796354  
O   -1.7010379   -1.4274584    4.2670412  
C    0.1115397    0.0933559    4.4024240  
H    2.4028853    2.0163452    4.9860947  
H   -2.2861435   -1.9184361    2.3990168  
H    0.0832434    0.0693689    5.4835595  
H    3.3664920    2.8238276    2.6198634  
