62

C    2.3021924   -2.1255963   -5.9826723  
C    1.8095081   -1.6629751   -4.7844605  
C    0.7354744   -0.7756730   -5.0906428  
C    0.6180426   -0.7363248   -6.5036491  
N    1.5855154   -1.5656979   -7.0142907  
C   -0.3411026    0.0395967   -7.1615057  
C   -1.1974952    0.7892214   -6.3786696  
O   -2.1530476    1.5644615   -6.9693781  
C   -1.0957943    0.7634630   -4.9673541  
O   -2.0200001    1.5643279   -4.3287611  
C   -0.1496406   -0.0015622   -4.3176960  
H    2.1795076   -1.9311013   -3.8096778  
H    1.7382216   -1.7475826   -7.9897799  
H   -0.4356841    0.0740430   -8.2381069  
H   -2.6345068    1.9978434   -6.2526905  
H   -1.8829368    1.4894711   -3.3794383  
C    3.3003545    0.0005276   -1.4738981  
C    2.5232817    0.0003495   -2.6090741  
C    1.1623206   -0.0001324   -2.1820098  
C    1.1711884    0.0000583   -0.7636136  
N    2.4852302   -0.0014919   -0.3662353  
C    0.0000000    0.0000000    0.0000000  
C   -1.2020385    0.0000519   -0.6806479  
O   -2.3759247    0.0003489    0.0157740  
C   -1.2314655   -0.0005118   -2.0955509  
O   -2.5054387   -0.0008046   -2.6250180  
C   -0.0764511   -0.0007279   -2.8495192  
H    2.8919962   -0.0005624   -3.6205293  
H    2.8036265    0.0088186    0.5858667  
H   -3.0835637    0.0000341   -0.6418819  
H   -2.4360044   -0.0011536   -3.5845924  
H    4.3715550    0.0004898   -1.3667129  
C    4.1889220   -3.6761510   -5.2939092  
C    5.1221257   -4.4784975   -5.8678830  
C    4.9385464   -4.3823135   -7.2968273  
C    3.8138489   -3.4514646   -7.5098230  
N    3.4039279   -3.0595054   -6.2563390  
C    3.3301861   -3.0956544   -8.7268583  
C    3.9591845   -3.6678434   -9.9056269  
O    3.5962332   -3.4099089  -11.0458188  
C    5.1517633   -4.6561498   -9.7036136  
O    5.6890492   -5.1444402  -10.6885797  
C    5.5837669   -4.9627166   -8.3422748  
H    5.8552977   -5.0703363   -5.3494234  
H    2.5042513   -2.4110296   -8.8611344  
H    6.4103192   -5.6477732   -8.2110089  
H    4.0084761   -3.4836256   -4.2487954  
C    0.8400945    0.7047457    2.2710304  
C    0.0000000    0.0000000    1.4700000  
C   -0.8844236   -0.7423113    2.3369512  
C   -0.4878984   -0.4098547    3.7186280  
N    0.5629682    0.4714286    3.6095011  
C   -1.0836927   -0.9095027    4.8308716  
C   -2.1891196   -1.8367527    4.6554461  
O   -2.7906899   -2.3413415    5.5944904  
C   -2.6257283   -2.2031529    3.2011665  
O   -3.5549479   -2.9829990    3.0410059  
C   -1.9068976   -1.5999348    2.0816745  
H   -0.7774656   -0.6525820    5.8354244  
H   -2.2155208   -1.8586617    1.0779135  
H    1.6384792    1.3747609    1.9961646  
H    1.0518368    0.8833920    4.3830260  
