60

C    3.3003550    0.0005273   -1.4738982  
C    2.5232819    0.0003493   -2.6090742  
C    1.1623207   -0.0001321   -2.1820100  
C    1.1711890    0.0000582   -0.7636142  
N    2.4852302   -0.0014919   -0.3662355  
C    0.0000000    0.0000000    0.0000000  
C   -1.2020381    0.0000519   -0.6806484  
O   -2.3759243    0.0003491    0.0157736  
C   -1.2314654   -0.0005114   -2.0955513  
O   -2.5054383   -0.0008038   -2.6250183  
C   -0.0764510   -0.0007275   -2.8495196  
H    2.8036268    0.0088181    0.5858668  
H   -3.0835632    0.0000344   -0.6418824  
H   -2.4360036   -0.0011532   -3.5845925  
H   -0.1304087   -0.0013425   -3.9319085  
H    4.3715553    0.0004892   -1.3667126  
C    4.1171240   -0.7271068   -4.4445138  
C    4.3278183   -0.5117044   -5.7686305  
C    3.3122725    0.4143180   -6.2113318  
C    2.4867575    0.7229871   -5.0280991  
N    3.0267444   -0.0008956   -3.9901695  
C    1.4208268    1.5629149   -5.0321548  
C    1.0625892    2.2056480   -6.2855883  
O    0.1193413    2.9784589   -6.3921134  
C    1.9228117    1.8931113   -7.5513461  
O    1.6305912    2.4280908   -8.6123196  
C    3.0482302    0.9707954   -7.4224273  
H    0.8286152    1.7757882   -4.1530190  
H    3.6389553    0.7598499   -8.3034889  
H    4.6665433   -1.3554379   -3.7624376  
C    5.3911360   -1.1128172   -6.5865048  
C    6.3526179   -1.9815062   -6.1959770  
C    7.1290516   -2.2465830   -7.3973867  
C    6.4794893   -1.4335060   -8.4478909  
N    5.4601939   -0.7666667   -7.9784767  
C    6.9571179   -1.4192492   -9.8031602  
C    8.0349092   -2.1822587  -10.0955934  
O    8.5868183   -2.2645454  -11.3181590  
C    8.7126187   -3.0134529   -9.0573318  
O    9.6884888   -3.6836120   -9.3946520  
C    8.2036747   -3.0111475   -7.6742583  
H    6.5149731   -2.3916750   -5.2138982  
H    6.4629281   -0.8158409  -10.5505453  
H    9.3332428   -2.8816180  -11.2122136  
H    8.7226389   -3.6266423   -6.9517128  
C    0.0000000    0.0000000    1.4700000  
C    1.0541688    0.0001722    2.3260392  
C    0.5103138    0.0000454    3.6635956  
C   -0.9576371   -0.0002459    3.5155732  
N   -1.2018458    0.0001392    2.1615969  
C   -1.8348311   -0.0008317    4.5510609  
C   -1.2972847   -0.0009736    5.9014604  
O   -2.0050672   -0.0014265    6.9001319  
C    0.2542623   -0.0004184    6.0817573  
O    0.7184670   -0.0002256    7.2139121  
C    1.0974552   -0.0000873    4.8889129  
H    2.0940752    0.0005483    2.0517982  
H   -2.9081052   -0.0011668    4.4207061  
H    2.1707277    0.0000911    5.0223670  
H   -2.1128194   -0.0014912    1.7406791  
