60

C    1.1188644    0.0008223   -0.8003803  
C    0.0000000    0.0000000    0.0000000  
C   -1.1323862    0.0008893   -0.8673523  
C   -0.6382660    0.0019672   -2.1969273  
N    0.7324021    0.0038479   -2.1202235  
C   -1.4770909    0.0027307   -3.3154806  
C   -2.8395470    0.0020930   -3.0876856  
O   -3.7039197    0.0024407   -4.1440349  
C   -3.3517868    0.0013916   -1.7684327  
O   -4.7300492    0.0012349   -1.7073122  
C   -2.5248543    0.0009113   -0.6644818  
H    1.3576318   -0.0056168   -2.9057036  
H   -4.5940030    0.0021806   -3.7685128  
H   -4.9934598    0.0007245   -0.7819916  
H   -2.9462580    0.0005595    0.3339654  
H    2.1619891    0.0009359   -0.5342062  
C    0.0907992   -0.6992468   -5.1618154  
C   -0.9736291    0.0040453   -4.6965759  
C   -1.5084789    0.7463551   -5.8136016  
C   -0.6623479    0.4154823   -6.9760883  
N    0.2885840   -0.4649761   -6.5141239  
C   -0.8417398    0.9156018   -8.2248490  
C   -1.9414410    1.8417246   -8.4381329  
O   -2.1855848    2.3466250   -9.5261451  
C   -2.8501357    2.2064412   -7.2211440  
O   -3.7788919    2.9853284   -7.3884995  
C   -2.5575137    1.6028530   -5.9234903  
H   -0.2096928    0.6598484   -9.0639057  
H   -3.1915433    1.8604114   -5.0859976  
H    0.7475162   -1.3688067   -4.6304947  
C    1.8122737   -2.3381971   -7.2942100  
C    1.3501488   -1.0667976   -7.3337521  
C    2.1349137   -0.4145494   -8.3706786  
C    3.0477289   -1.4675788   -8.8651296  
N    2.8631777   -2.5974164   -8.2379161  
C    4.0009105   -1.2184857   -9.9113045  
C    4.0401330    0.0259062  -10.4397787  
O    4.8793148    0.3984785  -11.4211061  
C    3.1317069    1.1099045   -9.9624198  
O    3.2226546    2.2188551  -10.4888969  
C    2.1626609    0.8294630   -8.8880702  
H    4.6558892   -2.0066197  -10.2530023  
H    4.6709505    1.3363502  -11.5827652  
H    1.5223404    1.6415340   -8.5706419  
H    1.4872553   -3.1433629   -6.6546440  
C    0.0000000    0.0000000    1.4700000  
C    1.0541688    0.0001722    2.3260392  
C    0.5103138    0.0000454    3.6635956  
C   -0.9576371   -0.0002459    3.5155732  
N   -1.2018458    0.0001392    2.1615969  
C   -1.8348311   -0.0008317    4.5510609  
C   -1.2972847   -0.0009736    5.9014604  
O   -2.0050672   -0.0014265    6.9001319  
C    0.2542623   -0.0004184    6.0817573  
O    0.7184670   -0.0002256    7.2139121  
C    1.0974552   -0.0000873    4.8889129  
H    2.0940752    0.0005483    2.0517982  
H   -2.9081052   -0.0011668    4.4207061  
H    2.1707277    0.0000911    5.0223670  
H   -2.1128194   -0.0014912    1.7406791  
