60

C   -1.0832748    0.2799545   -0.8003809  
C    0.0000000    0.0000000    0.0000000  
C    1.0959338   -0.2850048   -0.8673528  
C    0.6173515   -0.1620617   -2.1969283  
N   -0.7099358    0.1800522   -2.1202242  
C    1.4291478   -0.3732828   -3.3154813  
C    2.7481751   -0.7145398   -3.0876863  
O    3.5848057   -0.9317690   -4.1440355  
C    3.2442024   -0.8423941   -1.7684336  
O    4.5784087   -1.1880822   -1.7073132  
C    2.4438469   -0.6344307   -0.6644823  
H    1.0704196   -0.2812932   -4.3313817  
H    4.4464774   -1.1548613   -3.7685139  
H    4.8335201   -1.2536841   -0.7819922  
H    2.8518565   -0.7398302    0.3339649  
H   -2.0930551    0.5415903   -0.5342069  
C   -3.8692410    3.1713937   -2.8732838  
C   -2.8752659    2.4290943   -2.3209436  
C   -2.5140721    1.4215024   -3.2900321  
C   -3.3853235    1.6392137   -4.4606358  
N   -4.1835584    2.7141513   -4.1440610  
C   -3.3535744    0.8911211   -5.5924725  
C   -2.3976513   -0.2015225   -5.6623074  
O   -2.2918976   -0.9326757   -6.6382852  
C   -1.4652396   -0.4504217   -4.4341124  
O   -0.6566563   -1.3676101   -4.4812229  
C   -1.5926123    0.4231735   -3.2703000  
H   -2.4444012    2.5710567   -1.3458456  
H   -4.0013667    1.0676703   -6.4398835  
H   -4.8848883    3.1073405   -4.7445492  
C   -4.5913279    4.3203094   -2.3080554  
C   -4.4205245    4.8977267   -1.0960344  
C   -5.3882135    5.9833767   -1.0580620  
C   -6.0769452    5.9146232   -2.3647779  
N   -5.6141285    4.9416669   -3.1017612  
C   -7.1214108    6.8340813   -2.7236307  
C   -7.4626011    7.7790173   -1.8180812  
O   -8.4191735    8.7011628   -2.0197207  
C   -6.7864229    7.8739614   -0.4907042  
O   -7.1481220    8.7592948    0.2842661  
C   -5.7179390    6.9192025   -0.1461731  
H   -3.7239570    4.6210440   -0.3231719  
H   -7.6074531    6.7608065   -3.6855576  
H   -8.4306752    9.2295364   -1.2012821  
H   -5.2530870    7.0214141    0.8252666  
C    2.5128556    2.1077716    2.9199648  
C    1.9592212    1.6432552    4.0696553  
C    0.8915788    0.7479214    3.6910360  
C    0.8684491    0.7287414    2.2159470  
N    1.8754542    1.5738793    1.8102719  
C    0.0000000    0.0000000    1.4700000  
C   -0.9772830   -0.8200135    2.1664417  
O   -1.8021297   -1.5120829    1.5842315  
C   -0.9711318   -0.8147624    3.7284083  
O   -1.7894187   -1.5009653    4.3257297  
C    0.0140216    0.0115358    4.4216297  
H    2.2638494    1.8988021    5.0689105  
H    0.0117648    0.0094386    5.5031631  
H    3.3327358    2.7953732    2.7900019  
H    2.1123206    1.7707734    0.8551938  
