58

C    8.8929592   -0.0031757   -2.8314838  
C    9.9782217   -0.0022359   -2.0152245  
C   11.1448679   -0.0031885   -2.8659724  
C   10.6467507   -0.0047423   -4.2547371  
N    9.2738722   -0.0050566   -4.1647655  
C   11.4397744   -0.0055786   -5.3560177  
C   12.8800159   -0.0051295   -5.1604683  
O   13.6782203   -0.0058703   -6.0884601  
C   13.4296378   -0.0037413   -3.6983745  
O   14.6403826   -0.0036591   -3.5212951  
C   12.4757037   -0.0026494   -2.5920914  
H    9.9632098   -0.0011972   -0.9398707  
H   11.0541068   -0.0065862   -6.3660520  
H   12.8643785   -0.0014859   -1.5828073  
H    8.6454326   -0.0044776   -4.9471407  
C    6.5698745   -0.0006427    0.9721610  
C    7.6069601   -0.0018567    0.1026612  
C    6.9912940   -0.0024304   -1.2154643  
C    5.5370524   -0.0015106   -0.9475764  
N    5.2839240   -0.0003802    0.3330154  
C    4.5679461   -0.0016854   -2.0086701  
C    5.0305960   -0.0023424   -3.2796107  
O    4.2398095   -0.0025848   -4.3662099  
C    6.4922749   -0.0029068   -3.5823560  
O    6.8417602   -0.0036170   -4.7626442  
C    7.4664609   -0.0027578   -2.4765143  
H    8.6597324   -0.0022169    0.3279336  
H    4.8556978   -0.0030410   -5.1210839  
H    6.6068538    0.0001032    2.0499390  
C    3.1301149   -0.0010311   -1.7028252  
C    2.5367768   -0.0002767   -0.4864665  
C    1.1089904    0.0001028   -0.7656183  
C    1.0177872   -0.0004148   -2.2415132  
N    2.1993578   -0.0011611   -2.7963820  
C   -0.2459209   -0.0002877   -2.9257118  
C   -1.3675319   -0.0000605   -2.1698524  
O   -2.6129313    0.0000867   -2.6748490  
C   -1.3083584    0.0000910   -0.6783232  
O   -2.3693261    0.0004206   -0.0541692  
C    0.0000000    0.0000000    0.0000000  
H    3.0096017   -0.0001007    0.4807525  
H   -0.2829630   -0.0004687   -4.0053125  
H   -3.1967441    0.0002094   -1.8949034  
C    2.5528530    2.1414826    2.8079335  
C    2.0663498    1.7338582    4.0032312  
C    0.9804344    0.8229586    3.6752840  
C    0.9495562    0.7966882    2.1971295  
N    1.8690446    1.5676019    1.6831036  
C    0.0000000    0.0000000    1.4700000  
C   -0.8785127   -0.7372425    2.1869543  
O   -1.8187535   -1.5261249    1.6395491  
C   -0.8723269   -0.7321790    3.6796354  
O   -1.7010379   -1.4274584    4.2670412  
C    0.1115397    0.0933559    4.4024240  
H    2.4028853    2.0163452    4.9860947  
H   -2.2861435   -1.9184361    2.3990168  
H    0.0832434    0.0693689    5.4835595  
H    3.3664920    2.8238276    2.6198634  
