58

C   -5.6930860    0.7268903    0.8712970  
C   -5.9524688    0.5103652    2.1865584  
C   -7.0588019   -0.4152450    2.2506550  
C   -7.4253065   -0.7224482    0.8549150  
N   -6.5599413    0.0018031    0.0678360  
C   -8.4274876   -1.5616060    0.4900140  
C   -9.1966218   -2.2049976    1.5421615  
O  -10.1190000   -2.9772024    1.3158402  
C   -8.8260266   -1.8940121    3.0273387  
O   -9.4667253   -2.4295567    3.9217412  
C   -7.7248803   -0.9724184    3.2956594  
H   -5.4286936    0.9491396    3.0170699  
H   -8.6799481   -1.7734052   -0.5397017  
H   -7.4744797   -0.7625466    4.3266676  
H   -4.9417361    1.3553227    0.4213680  
C   -3.2941076    0.0012874   -2.9038237  
C   -4.0168013    0.0014134   -1.7541332  
C   -5.4101722    0.0018616   -2.1327521  
C   -5.4402197    0.0019579   -3.6078411  
N   -4.1255649    0.0019955   -4.0135163  
C   -6.5739167    0.0019521   -4.3537877  
C   -7.8496532    0.0020696   -3.6573458  
O   -8.9263768    0.0021352   -4.2395556  
C   -7.8415653    0.0022225   -2.0953793  
O   -8.9094926    0.0026291   -1.4980574  
C   -6.5557596    0.0019351   -1.4021581  
H   -3.6191800    0.0013975   -0.7548779  
H   -6.5739168    0.0018934   -5.4349496  
H   -3.8175538    0.0005039   -4.9685944  
C    0.0000000    0.0000000    0.0000000  
C    1.0541688   -0.0001722   -0.8560393  
C    0.5103135   -0.0000454   -2.1935957  
C   -0.9576374    0.0002459   -2.0455730  
N   -1.2018460   -0.0001391   -0.6915968  
C   -1.8348314    0.0008317   -3.0810607  
C   -1.2972851    0.0009737   -4.4314604  
O   -2.0050676    0.0014265   -5.4301315  
C    0.2542619    0.0004184   -4.6117571  
O    0.7184666    0.0002257   -5.7439121  
C    1.0974550    0.0000874   -3.4189130  
H    2.0940752   -0.0005483   -0.5817984  
H    2.1707276   -0.0000911   -3.5523671  
H   -2.1128194    0.0014912   -0.2706789  
C    3.3321173   -0.0004715    2.8079335  
C    2.6974184   -0.0000116    4.0032312  
C    1.2800439    0.0002118    3.6752840  
C    1.2395035   -0.0000644    2.1971295  
N    2.4394063   -0.0005460    1.6831036  
C    0.0000000    0.0000000    1.4700000  
C   -1.1468701   -0.0000635    2.1869543  
O   -2.3742202   -0.0000073    1.6395491  
C   -1.1388768   -0.0001607    3.6796354  
O   -2.2206231   -0.0000905    4.2670412  
C    0.1454524   -0.0001816    4.4024240  
H    3.1367986    0.0000651    4.9860947  
H   -2.9844344   -0.0001026    2.3990168  
H    0.1083576   -0.0003682    5.4835595  
H    4.3940039   -0.0007619    2.6198634  
