60

C   -1.1241199    0.0244224   -0.7919008  
C   -0.7477746   -0.0005692   -2.1148548  
C    0.6777034   -0.0442103   -2.1414696  
C    1.1193483   -0.0441370   -0.7935541  
N    0.0000000    0.0000000    0.0000000  
C    2.4717285   -0.0820553   -0.4408233  
C    3.3950815   -0.1210595   -1.4675053  
O    4.7286882   -0.1594198   -1.1793457  
C    2.9740430   -0.1214265   -2.8186317  
O    4.0135577   -0.1624207   -3.7247607  
C    1.6400622   -0.0837583   -3.1673477  
H    2.8148237   -0.0820737    0.5845983  
H    5.1907431   -0.1820321   -2.0274365  
H    3.6432842   -0.1598049   -4.6127330  
H    1.3477821   -0.0848745   -4.2109227  
H   -2.1054214    0.0591814   -0.3505415  
C   -1.6631522    0.0170180   -3.2649303  
C   -3.0204136    0.0587440   -3.2781792  
C   -3.4281067    0.0584657   -4.6633222  
C   -2.1882179    0.0128007   -5.4616839  
N   -1.1541417   -0.0102672   -4.5544665  
C   -2.1472025   -0.0014516   -6.8180832  
C   -3.4083916    0.0305297   -7.5398277  
O   -3.4769014    0.0210018   -8.7619224  
C   -4.7337293    0.0793276   -6.7146586  
O   -5.8016632    0.1068538   -7.3113333  
C   -4.6501815    0.0904328   -5.2563212  
H   -3.6626854    0.0867275   -2.4160205  
H   -5.5724212    0.1240874   -4.6923483  
H   -0.1798356   -0.0439915   -4.7924528  
C    1.6329332   -2.2074643   -6.2345490  
C    0.3781059   -1.7047903   -6.1049296  
C    0.1650596   -0.8119285   -7.2194897  
C    1.4075261   -0.8358274   -8.0147856  
N    2.2572472   -1.7003751   -7.3640773  
C    1.6062990   -0.1225460   -9.1520737  
C    0.5244000    0.7254461   -9.6242369  
O    0.6058851    1.4066554  -10.6379498  
C   -0.8002646    0.7663362   -8.7975581  
O   -1.7179965    1.4768516   -9.1851090  
C   -0.8959096   -0.0473727   -7.5881854  
H   -0.3186738   -1.9332410   -5.3182136  
H    2.5253720   -0.1544439   -9.7205793  
H    2.1542046   -2.9055301   -5.5998287  
H    3.1868992   -1.9294104   -7.6646369  
C    0.8681109    0.7263879    2.2709268  
C    0.6127770    0.5096195    3.5869401  
C   -0.4920590   -0.4175482    3.6542670  
C   -0.8620974   -0.7254003    2.2596025  
N    0.0000000    0.0000000    1.4700000  
C   -1.8641242   -1.5660088    1.8976294  
C   -2.6293522   -2.2103885    2.9520183  
O   -3.5512764   -2.9839180    2.7283916  
C   -2.2549728   -1.8987399    4.4361073  
O   -2.8923672   -2.4351063    5.3323774  
C   -1.1543735   -0.9755647    4.7012123  
H    1.1382914    0.9492124    4.4159191  
H   -2.1192137   -1.7782617    0.8686553  
H   -0.9013378   -0.7652422    5.7314848  
H    1.6172880    1.3558399    1.8188057  
