58

C   -0.3742253   -0.0620426   -8.7963141  
C    0.3798493   -0.7198990   -9.7142851  
C   -0.1166401   -0.3413153  -11.0162102  
C   -1.2297400    0.5977817  -10.7797867  
N   -1.3348887    0.7244183   -9.4138457  
C   -1.9625204    1.1840058  -11.7601327  
C   -1.6330592    0.8688398  -13.1402282  
O   -2.2341876    1.3454231  -14.0940689  
C   -0.4581701   -0.1234012  -13.4139045  
O   -0.1718083   -0.3965567  -14.5717658  
C    0.2582860   -0.6910716  -12.2744781  
H    1.1911691   -1.3936358   -9.5034486  
H   -2.7749343    1.8702215  -11.5651928  
H    1.0706122   -1.3770979  -12.4725134  
H   -2.0048420    1.3010669   -8.9387806  
C    2.2088374   -2.1426207   -5.8191636  
C    1.6816912   -1.7351243   -6.9971456  
C    0.6077900   -0.8240080   -6.6323121  
C    0.6276206   -0.7974854   -5.1539730  
N    1.5640846   -1.5684500   -4.6716456  
C   -0.2963293   -0.0005341   -4.3948471  
C   -1.1988048    0.7367190   -5.0813825  
O   -2.1196089    1.5258328   -4.5021932  
C   -1.2438086    0.7314045   -6.5733969  
O   -2.0920751    1.4267088   -7.1321599  
C   -0.2854235   -0.0943978   -7.3293552  
H    1.9842852   -2.0178259   -7.9909228  
H   -2.6127107    1.9180866   -5.2452551  
H    3.0283492   -2.8250551   -5.6589865  
C    3.1301146   -0.0010313   -1.7028256  
C    2.5367765   -0.0002766   -0.4864669  
C    1.1089901    0.0001027   -0.7656184  
C    1.0177865   -0.0004150   -2.2415133  
N    2.1993571   -0.0011612   -2.7963824  
C   -0.2459219   -0.0002879   -2.9257116  
C   -1.3675326   -0.0000606   -2.1698520  
O   -2.6129318    0.0000865   -2.6748483  
C   -1.3083588    0.0000910   -0.6783229  
O   -2.3693264    0.0004206   -0.0541685  
C    0.0000000    0.0000000    0.0000000  
H    3.0096016   -0.0001007    0.4807518  
H   -3.1967444    0.0002093   -1.8949026  
H    4.1849275   -0.0015114   -1.9271979  
C    2.5528530    2.1414826    2.8079335  
C    2.0663498    1.7338582    4.0032312  
C    0.9804344    0.8229586    3.6752840  
C    0.9495562    0.7966882    2.1971295  
N    1.8690446    1.5676019    1.6831036  
C    0.0000000    0.0000000    1.4700000  
C   -0.8785127   -0.7372425    2.1869543  
O   -1.8187535   -1.5261249    1.6395491  
C   -0.8723269   -0.7321790    3.6796354  
O   -1.7010379   -1.4274584    4.2670412  
C    0.1115397    0.0933559    4.4024240  
H    2.4028853    2.0163452    4.9860947  
H   -2.2861435   -1.9184361    2.3990168  
H    0.0832434    0.0693689    5.4835595  
H    3.3664920    2.8238276    2.6198634  
