58

C    6.5055040    0.0019685   -1.9705360  
C    5.7894095    0.0017679   -0.8167232  
C    6.7409315    0.0010714    0.2692978  
C    8.0796716    0.0009106   -0.3508348  
N    7.8674730    0.0010763   -1.7101951  
C    9.2473635    0.0006968    0.3406854  
C    9.1811963    0.0003938    1.7926355  
O   10.1767554    0.0001247    2.5047893  
C    7.7740195    0.0003052    2.4706151  
O    7.7057560   -0.0002558    3.6923346  
C    6.5869766    0.0008357    1.6192736  
H    4.7170100    0.0018907   -0.7356558  
H   10.2189275    0.0007117   -0.1336285  
H    5.6164285    0.0009760    2.0965164  
H    8.5906076    0.0025811   -2.4059835  
C    2.4521485    0.0014838   -3.7217479  
C    3.5087829    0.0013020   -2.8687536  
C    4.7039154    0.0022079   -3.6789958  
C    4.2537136    0.0029669   -5.0840253  
N    2.8785576    0.0020813   -5.0411853  
C    5.0840337    0.0043212   -6.1574641  
C    6.5167219    0.0048559   -5.9126424  
O    7.3462801    0.0059999   -6.8127168  
C    7.0158851    0.0038167   -4.4325611  
O    8.2198466    0.0039483   -4.2140684  
C    6.0245776    0.0026609   -3.3596397  
H    3.4569042    0.0004295   -1.7945464  
H    4.7332280    0.0049887   -7.1801302  
H    2.2773152    0.0038587   -5.8446476  
C    0.0000000    0.0000000    0.0000000  
C    1.0662924   -0.0000102   -0.8334267  
C    0.4961874    0.0000064   -2.1718888  
C   -0.9663853   -0.0000849   -1.9540250  
N   -1.2632772   -0.0000084   -0.6828660  
C   -1.8985357   -0.0000515   -3.0477261  
C   -1.3925767    0.0004566   -4.3020548  
O   -2.1456375    0.0005411   -5.4151316  
C    0.0786242    0.0009324   -4.5545000  
O    0.4683770    0.0012590   -5.7221099  
C    1.0143173    0.0008443   -3.4159029  
H    2.1107200    0.0000632   -0.5721862  
H   -2.9622180   -0.0003269   -2.8593382  
H   -1.5042262    0.0009694   -6.1484423  
C    1.0965515   -0.0001358    2.2710304  
C    0.0000000    0.0000000    1.4700000  
C   -1.1546562   -0.0001469    2.3369512  
C   -0.6372014   -0.0003519    3.7186280  
N    0.7342871   -0.0007337    3.6095011  
C   -1.4147739   -0.0001353    4.8308716  
C   -2.8576048    0.0001048    4.6554461  
O   -3.6427778    0.0002493    5.5944904  
C   -3.4275839    0.0000726    3.2011665  
O   -4.6406829   -0.0000333    3.0410059  
C   -2.4891866    0.0001091    2.0816745  
H   -1.0150448   -0.0001615    5.8354244  
H   -2.8919121    0.0002919    1.0779135  
H    2.1388271   -0.0000662    1.9961646  
H    1.3735872    0.0006099    4.3830260  
