60

C    3.3041274    0.0001178   -1.5420427  
C    2.5845370   -0.0004777   -0.3695849  
C    1.2040005   -0.0000008   -0.7283588  
C    1.1422374    0.0006038   -2.1454369  
N    2.4348641    0.0026111   -2.6077456  
C   -0.0655181    0.0008797   -2.8497914  
C   -1.2321769    0.0002323   -2.1101395  
O   -2.4392816    0.0001145   -2.7472518  
C   -1.1911209   -0.0000008   -0.6955257  
O   -2.4371527   -0.0002320   -0.1032859  
C    0.0000000    0.0000000    0.0000000  
H    3.0031535   -0.0000657    0.6222587  
H    2.7054629   -0.0071097   -3.5745255  
H   -3.1132987   -0.0000652   -2.0551785  
H   -2.3200283   -0.0004071    0.8516418  
H    4.3686620    0.0004073   -1.7024283  
C    2.2805268   -2.0884672   -5.9525539  
C    1.7869814   -1.6272475   -4.7745193  
C    0.7005266   -0.7318379   -5.0949767  
C    0.6008358   -0.7090653   -6.5668236  
N    1.5865179   -1.5517704   -7.0263547  
C   -0.3061616    0.0202020   -7.2648416  
C   -1.2468133    0.8373773   -6.5165546  
O   -2.1016165    1.5297580   -7.0534179  
C   -1.1592596    0.8286871   -4.9570465  
O   -1.9457420    1.5129525   -4.3163540  
C   -0.1387081    0.0017015   -4.3179681  
H    2.1434566   -1.8847455   -3.7930749  
H   -0.3624474    0.0226610   -8.3445345  
H    3.0929934   -2.7751196   -6.1266117  
C    2.6659862   -5.1823870   -9.3753570  
C    2.3484029   -4.3735978   -8.3377728  
C    2.1745857   -3.0557469   -8.9290056  
C    2.4320884   -3.2573167  -10.3711034  
N    2.7205716   -4.5019544  -10.6387686  
C    2.3587287   -2.1765871  -11.3154170  
C    2.0421217   -0.9503112  -10.8407141  
O    1.9385987    0.1479294  -11.6083024  
C    1.7763148   -0.7149608   -9.3908466  
O    1.4937043    0.4272392   -9.0292790  
C    1.8578526   -1.8397549   -8.4421030  
H    2.2447897   -4.6385831   -7.2994462  
H    2.5519715   -2.3525174  -12.3635653  
H    1.7024621    0.8619432  -10.9889661  
H    2.8736857   -6.2403797   -9.3533097  
C    0.8681109    0.7263879    2.2709268  
C    0.6127770    0.5096195    3.5869401  
C   -0.4920590   -0.4175482    3.6542670  
C   -0.8620974   -0.7254003    2.2596025  
N    0.0000000    0.0000000    1.4700000  
C   -1.8641242   -1.5660088    1.8976294  
C   -2.6293522   -2.2103885    2.9520183  
O   -3.5512764   -2.9839180    2.7283916  
C   -2.2549728   -1.8987399    4.4361073  
O   -2.8923672   -2.4351063    5.3323774  
C   -1.1543735   -0.9755647    4.7012123  
H    1.1382914    0.9492124    4.4159191  
H   -2.1192137   -1.7782617    0.8686553  
H   -0.9013378   -0.7652422    5.7314848  
H    1.6172880    1.3558399    1.8188057  
