60

C    3.3041274    0.0001173   -1.5420423  
C    2.5845372   -0.0004782   -0.3695851  
C    1.2040007   -0.0000010   -0.7283585  
C    1.1422379    0.0006032   -2.1454371  
N    2.4348643    0.0026104   -2.6077458  
C   -0.0655180    0.0008792   -2.8497916  
C   -1.2321769    0.0002319   -2.1101395  
O   -2.4392807    0.0001139   -2.7472519  
C   -1.1911208   -0.0000009   -0.6955263  
O   -2.4371523   -0.0002321   -0.1032864  
C    0.0000000    0.0000000    0.0000000  
H    3.0031534   -0.0000660    0.6222590  
H   -0.1193543    0.0014836   -3.9297468  
H   -3.1132982   -0.0000652   -2.0551783  
H   -2.3200280   -0.0004069    0.8516408  
H    4.3686624    0.0004066   -1.7024282  
C    5.6515803   -2.1002982   -4.7818998  
C    4.8081961   -1.6310303   -3.8266162  
C    3.8761267   -0.7467210   -4.4854631  
C    4.2482789   -0.7392331   -5.9131314  
N    5.3319472   -1.5792879   -6.0265373  
C    3.6067603   -0.0234904   -6.8711869  
C    2.4743168    0.7942192   -6.4693695  
O    1.8313268    1.4750501   -7.2576170  
C    2.0628008    0.8015922   -4.9625827  
O    1.1111845    1.4864532   -4.6123641  
C    2.8310669   -0.0116229   -4.0232744  
H    4.8359715   -1.8762192   -2.7798480  
H    3.8957845   -0.0321206   -7.9129644  
H    6.4798596   -2.7827413   -4.6813289  
C    6.0393362   -1.8792938   -7.2797324  
C    7.1054696   -2.6930344   -7.4607410  
C    7.3939776   -2.6220518   -8.8848985  
C    6.3768275   -1.6948113   -9.4254673  
N    5.5799905   -1.2561153   -8.4892052  
C    6.3217433   -1.3553235  -10.8207454  
C    7.2412429   -1.9163323  -11.6387443  
O    7.3072183   -1.6888627  -12.9615996  
C    8.2806528   -2.8555422  -11.1233100  
O    9.0858291   -3.3288482  -11.9251163  
C    8.3163088   -3.1880485   -9.6880077  
H    7.6312451   -3.2701070   -6.7193752  
H    5.5674650   -0.6750213  -11.1883907  
H    8.0604322   -2.2253635  -13.2681745  
H    9.0848767   -3.8723161   -9.3543753  
C    0.8681109    0.7263879    2.2709268  
C    0.6127770    0.5096195    3.5869401  
C   -0.4920590   -0.4175482    3.6542670  
C   -0.8620974   -0.7254003    2.2596025  
N    0.0000000    0.0000000    1.4700000  
C   -1.8641242   -1.5660088    1.8976294  
C   -2.6293522   -2.2103885    2.9520183  
O   -3.5512764   -2.9839180    2.7283916  
C   -2.2549728   -1.8987399    4.4361073  
O   -2.8923672   -2.4351063    5.3323774  
C   -1.1543735   -0.9755647    4.7012123  
H    1.1382914    0.9492124    4.4159191  
H   -2.1192137   -1.7782617    0.8686553  
H   -0.9013378   -0.7652422    5.7314848  
H    1.6172880    1.3558399    1.8188057  
