60

C    0.0000000    0.0000000    0.0000000  
C    1.0521666   -0.0011901   -0.8862345  
C    0.4917216   -0.0011955   -2.1979134  
C   -0.9187431    0.0003149   -2.0478682  
N   -1.1833167   -0.0009411   -0.7007910  
C   -1.7951706    0.0010353   -3.1372088  
C   -1.2375843    0.0005228   -4.4010420  
O   -2.0474221    0.0015365   -5.4997576  
C    0.1673574   -0.0013564   -4.5711963  
O    0.5673516   -0.0020683   -5.8915555  
C    1.0325767   -0.0023410   -3.4969894  
H    2.0953060   -0.0030649   -0.6200564  
H   -2.0989775    0.0102373   -0.2891820  
H   -1.4634896    0.0006502   -6.2693588  
H    1.5290702   -0.0033149   -5.9180051  
H    2.1042146   -0.0039607   -3.6584460  
C   -3.2578658    0.0024043   -2.9908500  
C   -3.9809874    0.0031290   -1.8468773  
C   -5.3695594    0.0043917   -2.2808874  
C   -5.2983973    0.0043646   -3.7578844  
N   -4.0631146    0.0031214   -4.1798618  
C   -6.4794717    0.0054036   -4.5765101  
C   -7.6771923    0.0060343   -3.9481800  
O   -8.8597161    0.0070297   -4.5866766  
C   -7.7819057    0.0057086   -2.4591548  
O   -8.9049096    0.0064469   -1.9550871  
C   -6.5558062    0.0046825   -1.6414736  
H   -3.6170581    0.0027521   -0.8336490  
H   -6.3979234    0.0055647   -5.6536635  
H   -9.5255218    0.0072474   -3.8754417  
C   -4.3250807    2.1438981    1.4301901  
C   -4.9399163    1.7361906    2.5647961  
C   -5.9838069    0.8259973    2.1194416  
C   -5.8524487    0.8001843    0.6468036  
N   -4.8817423    1.5707356    0.2369639  
C   -6.7169761    0.0042449   -0.1803356  
C   -7.6691857   -0.7327187    0.4357135  
O   -8.5441541   -1.5209111   -0.2117606  
C   -7.8266910   -0.7281030    1.9200758  
O   -8.7151729   -1.4230927    2.4128328  
C   -6.9275689    0.0966653    2.7466723  
H   -4.7130221    2.0181964    3.5787327  
H   -9.0921997   -1.9131863    0.4917441  
H   -7.0742424    0.0723723    3.8181793  
H   -3.4953693    2.8258429    1.3327044  
C    3.2798086   -0.0005857    2.9199648  
C    2.5571146   -0.0005566    4.0696553  
C    1.1637436   -0.0001548    3.6910360  
C    1.1336965    0.0000200    2.2159470  
N    2.4483514    0.0001428    1.8102719  
C    0.0000000    0.0000000    1.4700000  
C   -1.2757367    0.0000186    2.1664417  
O   -2.3524596    0.0000640    1.5842315  
C   -1.2676493    0.0000873    3.7284083  
O   -2.3355761    0.0004100    4.3257297  
C    0.0181563   -0.0001760    4.4216297  
H    2.9547357   -0.0006076    5.0689105  
H    0.0150794   -0.0003319    5.5031631  
H    4.3498549   -0.0008612    2.7900019  
H    2.7563627   -0.0012824    0.8551938  
