58

C    5.7052416   -2.0986834   -4.6958674  
C    4.8302129   -1.6343311   -3.7670098  
C    3.9272650   -0.7382853   -4.4501074  
C    4.3509920   -0.7185535   -5.8632096  
N    5.4336785   -1.5634476   -5.9458735  
C    3.7483768    0.0103197   -6.8365043  
C    2.6063698    0.8302498   -6.4676277  
O    1.9959434    1.5225188   -7.2716453  
C    2.1405129    0.8248036   -4.9767377  
O    1.1803932    1.5114042   -4.6542317  
C    2.8699641   -0.0020530   -4.0185824  
H    4.8187251   -1.8901546   -2.7224829  
H    4.0749507    0.0105274   -7.8671642  
H    6.5257693   -2.7867006   -4.5723449  
C    6.6710470   -3.1008767   -7.5407385  
C    7.3223330   -3.0395139   -8.7307549  
C    7.2597697   -1.6669605   -9.1746215  
C    6.5133215   -0.9284144   -8.1382072  
N    6.1844898   -1.8548049   -7.1756275  
C    6.2403390    0.4000477   -8.1869279  
C    6.7130785    1.1526530   -9.3369880  
O    6.5178740    2.3533232   -9.4733197  
C    7.5054875    0.3908198  -10.4467191  
O    7.9082327    1.0138466  -11.4198037  
C    7.7377387   -1.0419734  -10.2823555  
H    7.7927208   -3.8619382   -9.2396440  
H    5.6912861    0.9225843   -7.4159498  
H    8.2874008   -1.5620326  -11.0550992  
H    6.5054049   -3.9516016   -6.8998648  
C    3.2573670   -0.0002921   -1.5109382  
C    2.5379468   -0.0001711   -0.3591962  
C    1.1435043    0.0000330   -0.7338498  
C    1.1092608   -0.0000085   -2.2088474  
N    2.4227562    0.0001906   -2.6182610  
C   -0.0265533   -0.0002525   -2.9515663  
C   -1.3003033   -0.0002641   -2.2514979  
O   -2.3786785   -0.0004132   -2.8306425  
C   -1.2877724    0.0000310   -0.6895608  
O   -2.3539956    0.0003306   -0.0892035  
C    0.0000000    0.0000000    0.0000000  
H    2.9384091   -0.0000370    0.6389240  
H   -0.0296290   -0.0004088   -4.0327231  
H    4.3270394   -0.0004767   -1.6439445  
C    0.0000000    0.0000000    1.4700000  
C    1.0541688    0.0001722    2.3260392  
C    0.5103138    0.0000454    3.6635956  
C   -0.9576371   -0.0002459    3.5155732  
N   -1.2018458    0.0001392    2.1615969  
C   -1.8348311   -0.0008317    4.5510609  
C   -1.2972847   -0.0009736    5.9014604  
O   -2.0050672   -0.0014265    6.9001319  
C    0.2542623   -0.0004184    6.0817573  
O    0.7184670   -0.0002256    7.2139121  
C    1.0974552   -0.0000873    4.8889129  
H    2.0940752    0.0005483    2.0517982  
H   -2.9081052   -0.0011668    4.4207061  
H    2.1707277    0.0000911    5.0223670  
H   -2.1128194   -0.0014912    1.7406791  
