58

C    3.4581239   -0.7257445   -2.8368658  
C    4.7325807   -0.5094664   -3.2528695  
C    4.6630932    0.4165070   -4.3585729  
C    3.2334366    0.7241930   -4.5540252  
N    2.5562222   -0.0001542   -3.6002998  
C    2.7506137    1.5637880   -5.5046386  
C    3.7025411    2.2071745   -6.3948200  
O    3.3668888    2.9797535   -7.2829419  
C    5.2214745    1.8956821   -6.2060902  
O    6.0322624    2.4312178   -6.9497868  
C    5.6203304    0.9736418   -5.1456149  
H    5.6200556   -0.9486333   -2.8331856  
H    1.6980332    1.7759375   -5.6310405  
H    6.6739456    0.7634204   -5.0214136  
H    3.1018815   -1.3543197   -2.0369445  
C    0.0000000    0.0000000    0.0000000  
C    1.0541691   -0.0001719   -0.8560389  
C    0.5103143   -0.0000448   -2.1935953  
C   -0.9576364    0.0002464   -2.0455731  
N   -1.2018458   -0.0001389   -0.6915972  
C   -1.8348303    0.0008322   -3.0810611  
C   -1.2972837    0.0009745   -4.4314603  
O   -2.0050658    0.0014276   -5.4301322  
C    0.2542633    0.0004194   -4.6117570  
O    0.7184681    0.0002269   -5.7439118  
C    1.0974560    0.0000881   -3.4189126  
H    2.0940754   -0.0005481   -0.5817976  
H   -2.1128195    0.0014913   -0.2706792  
C   -4.6947982    2.0138963   -0.3183453  
C   -3.5421866    1.6316853   -0.9158243  
C   -3.9514596    0.7140407   -1.9679286  
C   -5.4250713    0.6562909   -1.8596833  
N   -5.8665587    1.4162663   -0.8945324  
C   -6.2212650   -0.1556046   -2.7383116  
C   -5.5747429   -0.8767168   -3.6824200  
O   -6.1913451   -1.6769184   -4.5687154  
C   -4.0886041   -0.8392724   -3.8171467  
O   -3.5672041   -1.5214552   -4.6991835  
C   -3.2941065    0.0012879   -2.9038247  
H   -2.5382353    1.9350697   -0.6726881  
H   -7.2964338   -0.1789332   -2.6364356  
H   -5.4711300   -2.0523897   -5.1067342  
H   -4.8199143    2.6921156    0.5107131  
C    1.1319247   -0.0015655    2.2709268  
C    0.7969915   -0.0034943    3.5869401  
C   -0.6453339   -0.0035710    3.6542670  
C   -1.1266833   -0.0015433    2.2596025  
N    0.0000000    0.0000000    1.4700000  
C   -2.4346130   -0.0013964    1.8976294  
C   -3.4350110   -0.0031408    2.9520183  
O   -4.6384611   -0.0030974    2.7283916  
C   -2.9478959   -0.0050506    4.4361073  
O   -3.7809380   -0.0062218    5.3323774  
C   -1.5113823   -0.0053090    4.7012123  
H    1.4821238   -0.0045407    4.4159191  
H   -2.7664565   -0.0000232    0.8686553  
H   -1.1823530   -0.0068408    5.7314848  
H    2.1104316   -0.0009391    1.8188057  
