62

C    0.0000000    0.0000000    0.0000000  
C    0.6154222    0.8534110   -0.8862352  
C    0.2881311    0.3984604   -2.1979138  
C   -0.5367946   -0.7456160   -2.0478679  
N   -0.6902839   -0.9611196   -0.7007910  
C   -1.0492055   -1.4566438   -3.1372086  
C   -0.7231641   -1.0043178   -4.4010419  
O   -1.1969255   -1.6611201   -5.4997570  
C    0.0988352    0.1350595   -4.5711967  
O    0.3330068    0.4593429   -5.8915556  
C    0.6049157    0.8368351   -3.4969899  
H    1.2261283    1.6990943   -0.6200576  
H   -1.2340958   -1.6978872   -0.2891818  
H   -1.6783529   -2.3294470   -3.0295501  
H   -0.8551944   -1.1876246   -6.2693586  
H    0.8956543    1.2392990   -5.9180054  
C    2.5643923    2.3803956   -3.0311638  
C    1.4555851    2.0155202   -3.7159937  
C    1.2818616    3.0480336   -4.7260616  
C    2.4051127    3.9829018   -4.5004217  
N    3.1603601    3.5967033   -3.5082311  
C    2.5914559    5.1572359   -5.3074540  
C    1.6965816    5.3869807   -6.2952554  
O    1.7485447    6.4433936   -7.1243100  
C    0.5526151    4.4620250   -6.5481547  
O   -0.2232893    4.7335594   -7.4643762  
C    0.3830368    3.2641332   -5.7065944  
H    0.9821310    6.3325693   -7.7154788  
H   -0.4583351    2.6192539   -5.9221265  
H    3.0277584    1.8741916   -2.1992847  
C    6.8113555    4.3750345   -4.2399860  
C    7.2219887    5.6863447   -4.1743141  
C    6.0862659    6.4940123   -4.4782976  
C    5.0021163    5.6126122   -4.7225912  
N    5.4772820    4.3335520   -4.5714611  
C    3.7204570    6.0634757   -5.0525320  
C    3.5296935    7.4289915   -5.1371082  
O    2.2979524    7.9234112   -5.4555068  
C    4.5990467    8.3244068   -4.8972489  
O    4.2495555    9.6533190   -5.0205047  
C    5.8637627    7.8803172   -4.5719740  
H    8.2178958    6.0197260   -3.9376311  
H    4.9325566    3.4963133   -4.6728860  
H    2.3830855    8.8856932   -5.4610706  
H    5.0278338   10.1902383   -4.8427312  
H    6.6631871    8.5900429   -4.3939639  
H    7.3648884    3.4660114   -4.0780073  
C    1.0965515   -0.0001358    2.2710304  
C    0.0000000    0.0000000    1.4700000  
C   -1.1546562   -0.0001469    2.3369512  
C   -0.6372014   -0.0003519    3.7186280  
N    0.7342871   -0.0007337    3.6095011  
C   -1.4147739   -0.0001353    4.8308716  
C   -2.8576048    0.0001048    4.6554461  
O   -3.6427778    0.0002493    5.5944904  
C   -3.4275839    0.0000726    3.2011665  
O   -4.6406829   -0.0000333    3.0410059  
C   -2.4891866    0.0001091    2.0816745  
H   -1.0150448   -0.0001615    5.8354244  
H   -2.8919121    0.0002919    1.0779135  
H    2.1388271   -0.0000662    1.9961646  
H    1.3735872    0.0006099    4.3830260  
