58

C   -7.4781536    3.0597155    0.1679082  
C   -7.0178254    1.8482347   -0.2376627  
C   -8.1025075    0.9093661   -0.0738800  
C   -9.2406660    1.6786984    0.4641856  
N   -8.7968905    2.9750834    0.5880378  
C  -10.4560919    1.1505741    0.7566384  
C  -10.6565863   -0.2704377    0.5262838  
O  -11.7149669   -0.8399908    0.7581090  
C   -9.4648916   -1.1045889   -0.0428014  
O   -9.6217440   -2.3018972   -0.2405651  
C   -8.2026093   -0.4232960   -0.3190929  
H  -11.2777433    1.7325376    1.1504896  
H   -7.3824842   -1.0079525   -0.7131684  
H   -6.9648945    4.0071844    0.1954256  
H   -9.3469661    3.7420320    0.9289987  
C   -4.4924722    2.0950382   -0.2442176  
C   -3.4157282    1.6323169   -0.9302108  
C   -3.9167334    0.7362616   -1.9455502  
C   -5.3841441    0.7147471   -1.7937837  
N   -5.6689496    1.5587230   -0.7452227  
C   -6.2266196   -0.0146658   -2.5683136  
C   -5.6495861   -0.8333368   -3.6215682  
O   -6.3243550   -1.5259647   -4.3720698  
C   -4.0978602   -0.8259952   -3.8001701  
O   -3.6005727   -1.5115249   -4.6833547  
C   -3.2941076    0.0012878   -2.9038237  
H   -2.3878035    1.8892262   -0.7458680  
H   -7.3001860   -0.0161873   -2.4403987  
H   -4.5254896    2.7825514    0.5853157  
C    0.0000000    0.0000000    0.0000000  
C    1.0541688   -0.0001723   -0.8560392  
C    0.5103136   -0.0000455   -2.1935956  
C   -0.9576373    0.0002461   -2.0455730  
N   -1.2018460   -0.0001389   -0.6915968  
C   -1.8348314    0.0008319   -3.0810607  
C   -1.2972851    0.0009739   -4.4314603  
O   -2.0050676    0.0014268   -5.4301316  
C    0.2542619    0.0004184   -4.6117572  
O    0.7184666    0.0002257   -5.7439122  
C    1.0974551    0.0000873   -3.4189129  
H    2.0940752   -0.0005484   -0.5817983  
H    2.1707276   -0.0000912   -3.5523673  
H   -2.1128194    0.0014915   -0.2706789  
C    3.3321173   -0.0004715    2.8079335  
C    2.6974184   -0.0000116    4.0032312  
C    1.2800439    0.0002118    3.6752840  
C    1.2395035   -0.0000644    2.1971295  
N    2.4394063   -0.0005460    1.6831036  
C    0.0000000    0.0000000    1.4700000  
C   -1.1468701   -0.0000635    2.1869543  
O   -2.3742202   -0.0000073    1.6395491  
C   -1.1388768   -0.0001607    3.6796354  
O   -2.2206231   -0.0000905    4.2670412  
C    0.1454524   -0.0001816    4.4024240  
H    3.1367986    0.0000651    4.9860947  
H   -2.9844344   -0.0001026    2.3990168  
H    0.1083576   -0.0003682    5.4835595  
H    4.3940039   -0.0007619    2.6198634  
