64

C    3.3041272    0.0001173   -1.5420433  
C    2.5845372   -0.0004782   -0.3695856  
C    1.2040006   -0.0000008   -0.7283589  
C    1.1422373    0.0006036   -2.1454374  
N    2.4348640    0.0026108   -2.6077464  
C   -0.0655182    0.0008797   -2.8497919  
C   -1.2321768    0.0002324   -2.1101400  
O   -2.4392817    0.0001147   -2.7472520  
C   -1.1911209   -0.0000008   -0.6955261  
O   -2.4371524   -0.0002319   -0.1032862  
C    0.0000000    0.0000000    0.0000000  
H    3.0031536   -0.0000662    0.6222582  
H    2.7054629   -0.0071101   -3.5745263  
H   -3.1132988   -0.0000649   -2.0551788  
H   -2.3200280   -0.0004072    0.8516410  
H    4.3686618    0.0004067   -1.7024297  
C    2.3129715   -2.1206347   -5.9853336  
C    1.8203209   -1.6593261   -4.7866021  
C    0.7463511   -0.7716032   -5.0917861  
C    0.6289214   -0.7306576   -6.5047474  
N    1.5963345   -1.5595253   -7.0163212  
C   -0.3301682    0.0460722   -7.1617303  
C   -1.1865067    0.7948776   -6.3780517  
O   -2.1420032    1.5708500   -6.9678873  
C   -1.0848071    0.7675248   -4.9667659  
O   -2.0089556    1.5677379   -4.3272726  
C   -0.1387084    0.0017016   -4.3179687  
H    2.1903014   -1.9285748   -3.8121214  
H    1.7490275   -1.7403242   -7.9920147  
H   -2.6234317    2.0034607   -6.2507130  
H   -1.8718971    1.4918035   -3.3780343  
H    3.1197747   -2.8044122   -6.1865215  
C   -0.0223190   -3.1045989  -10.2499951  
C   -0.2547751   -2.3024761  -11.3431694  
C   -0.4508107   -0.9773316  -10.8531064  
C   -0.3250418   -1.0328076   -9.4413591  
N   -0.0669177   -2.3393254   -9.1081918  
C   -0.4587464    0.0945561   -8.6252932  
C   -0.7239495    1.2999334   -9.2457049  
O   -0.8636440    2.4322306   -8.4964369  
C   -0.8532976    1.3754611  -10.6529658  
O   -1.1179263    2.6465829  -11.1194038  
C   -0.7217865    0.2636484  -11.4586350  
H   -0.2810377   -2.6321244  -12.3676865  
H    0.0809699   -2.6822606   -8.1762545  
H   -1.0425835    3.1502502   -9.1174796  
H   -1.1903178    2.6098409  -12.0780553  
H   -0.8262990    0.3523404  -12.5336645  
H    0.1703459   -4.1623027  -10.1943034  
C    0.8681109    0.7263879    2.2709268  
C    0.6127770    0.5096195    3.5869401  
C   -0.4920590   -0.4175482    3.6542670  
C   -0.8620974   -0.7254003    2.2596025  
N    0.0000000    0.0000000    1.4700000  
C   -1.8641242   -1.5660088    1.8976294  
C   -2.6293522   -2.2103885    2.9520183  
O   -3.5512764   -2.9839180    2.7283916  
C   -2.2549728   -1.8987399    4.4361073  
O   -2.8923672   -2.4351063    5.3323774  
C   -1.1543735   -0.9755647    4.7012123  
H    1.1382914    0.9492124    4.4159191  
H   -2.1192137   -1.7782617    0.8686553  
H   -0.9013378   -0.7652422    5.7314848  
H    1.6172880    1.3558399    1.8188057  
