58

C    1.0965512    0.0001357   -0.8010303  
C    0.0000000    0.0000000    0.0000000  
C   -1.1546567    0.0001469   -0.8669506  
C   -0.6372019    0.0003519   -2.2486281  
N    0.7342867    0.0007337   -2.1395011  
C   -1.4147747    0.0001350   -3.3608708  
C   -2.8576058   -0.0001049   -3.1854449  
O   -3.6427791   -0.0002494   -4.1244897  
C   -3.4275844   -0.0000726   -1.7311658  
O   -4.6406826    0.0000332   -1.5710050  
C   -2.4891869   -0.0001092   -0.6116739  
H   -1.0150457    0.0001614   -4.3654239  
H   -2.8919120   -0.0002920    0.3920866  
H    2.1388267    0.0000663   -0.5261646  
C    4.4892970   -2.1441338   -2.6751664  
C    4.8760701   -1.7381812   -3.9069083  
C    3.8307835   -0.8270018   -4.3469397  
C    2.8653298   -0.7987569   -3.2272586  
N    3.2460490   -1.5688474   -2.2444043  
C    1.6707634   -0.0012345   -3.2725973  
C    1.4508813    0.7349193   -4.3857299  
O    0.3779847    1.5243966   -4.5636592  
C    2.4065716    0.7278581   -5.5323626  
O    2.1425161    1.4222295   -6.5138633  
C    3.6247981   -0.0985001   -5.4617875  
H    5.7614096   -2.0219348   -4.4498022  
H    0.5018298    1.9156224   -5.4472639  
H    4.9961449   -2.8261075   -2.0110952  
C    6.0482718   -3.1143367   -7.6744666  
C    5.2101906   -2.5553739   -6.7707186  
C    5.1690695   -1.1437660   -7.1202497  
C    6.0649753   -1.0233157   -8.2904745  
N    6.5831981   -2.1752015   -8.6200109  
C    6.2979238    0.2351432   -8.9440061  
C    5.6643483    1.3237184   -8.4511351  
O    5.7895649    2.5604214   -8.9619450  
C    4.7537296    1.2344138   -7.2717454  
O    4.2105041    2.2660440   -6.8769473  
C    4.5311094   -0.0678772   -6.6187497  
H    4.6847090   -3.0410121   -5.9662930  
H    6.9578595    0.2940718   -9.7971892  
H    5.2214856    3.1189877   -8.4011940  
H    6.3439796   -4.1482618   -7.7552688  
C    2.5128556    2.1077716    2.9199648  
C    1.9592212    1.6432552    4.0696553  
C    0.8915788    0.7479214    3.6910360  
C    0.8684491    0.7287414    2.2159470  
N    1.8754542    1.5738793    1.8102719  
C    0.0000000    0.0000000    1.4700000  
C   -0.9772830   -0.8200135    2.1664417  
O   -1.8021297   -1.5120829    1.5842315  
C   -0.9711318   -0.8147624    3.7284083  
O   -1.7894187   -1.5009653    4.3257297  
C    0.0140216    0.0115358    4.4216297  
H    2.2638494    1.8988021    5.0689105  
H    0.0117648    0.0094386    5.5031631  
H    3.3327358    2.7953732    2.7900019  
H    2.1123206    1.7707734    0.8551938  
