58

C    1.3002307   -2.3604957   -7.8048628  
C    0.8696306   -1.0761646   -7.7091951  
C    1.2039134   -0.4262088   -8.9544446  
C    1.8693060   -1.4444684   -9.7894249  
N    1.8965785   -2.5944510   -9.0346491  
C    2.3374123   -1.2238904  -11.0439862  
C    2.1752494    0.1051586  -11.6095545  
O    2.5632550    0.4035147  -12.7314890  
C    1.4736868    1.1990628  -10.7429592  
O    1.3317850    2.3217819  -11.2083903  
C    1.0110686    0.8412761   -9.4043691  
H    2.8224023   -1.9847370  -11.6396437  
H    0.5261359    1.6043660   -8.8108552  
H    1.2322759   -3.1557010   -7.0803494  
H    2.2874755   -3.4695034   -9.3321888  
C    0.5157023   -0.7055390   -5.2240925  
C   -0.2963293   -0.0005341   -4.3948471  
C   -1.2098551    0.7417637   -5.2310887  
C   -0.8609897    0.4090167   -6.6254926  
N    0.1928749   -0.4724046   -6.5523132  
C   -1.4945019    0.9085670   -7.7167381  
C   -2.5931305    1.8360110   -7.5036697  
O   -3.2264754    2.3405319   -8.4216202  
C   -2.9795614    2.2027197   -6.0353372  
O   -3.9026313    2.9827310   -5.8435412  
C   -2.2228515    1.5995820   -4.9410487  
H   -1.2229387    0.6514327   -8.7311565  
H   -2.4968365    1.8585228   -3.9273394  
H    1.3229471   -1.3756270   -4.9766502  
C    3.1301146   -0.0010313   -1.7028256  
C    2.5367765   -0.0002766   -0.4864669  
C    1.1089901    0.0001027   -0.7656184  
C    1.0177865   -0.0004150   -2.2415133  
N    2.1993571   -0.0011612   -2.7963824  
C   -0.2459219   -0.0002879   -2.9257116  
C   -1.3675326   -0.0000606   -2.1698520  
O   -2.6129318    0.0000865   -2.6748483  
C   -1.3083588    0.0000910   -0.6783229  
O   -2.3693264    0.0004206   -0.0541685  
C    0.0000000    0.0000000    0.0000000  
H    3.0096016   -0.0001007    0.4807518  
H   -3.1967444    0.0002093   -1.8949026  
H    4.1849275   -0.0015114   -1.9271979  
C    0.8681109    0.7263879    2.2709268  
C    0.6127770    0.5096195    3.5869401  
C   -0.4920590   -0.4175482    3.6542670  
C   -0.8620974   -0.7254003    2.2596025  
N    0.0000000    0.0000000    1.4700000  
C   -1.8641242   -1.5660088    1.8976294  
C   -2.6293522   -2.2103885    2.9520183  
O   -3.5512764   -2.9839180    2.7283916  
C   -2.2549728   -1.8987399    4.4361073  
O   -2.8923672   -2.4351063    5.3323774  
C   -1.1543735   -0.9755647    4.7012123  
H    1.1382914    0.9492124    4.4159191  
H   -2.1192137   -1.7782617    0.8686553  
H   -0.9013378   -0.7652422    5.7314848  
H    1.6172880    1.3558399    1.8188057  
