60

C    1.1188650    0.0008222   -0.8003808  
C    0.0000000    0.0000000    0.0000000  
C   -1.1323856    0.0008897   -0.8673534  
C   -0.6382649    0.0019678   -2.1969285  
N    0.7324026    0.0038480   -2.1202240  
C   -1.4770900    0.0027314   -3.3154818  
C   -2.8395465    0.0020940   -3.0876867  
O   -3.7039184    0.0024421   -4.1440361  
C   -3.3517859    0.0013925   -1.7684342  
O   -4.7300486    0.0012362   -1.7073139  
C   -2.5248539    0.0009122   -0.6644828  
H   -1.1067552    0.0036986   -4.3313817  
H   -4.5940017    0.0021823   -3.7685147  
H   -4.9934592    0.0007256   -0.7819932  
H   -2.9462578    0.0005601    0.3339647  
H    2.1619901    0.0009355   -0.5342063  
C    4.5841865   -2.0202110   -3.0853082  
C    3.4713878   -1.6303065   -2.4210555  
C    2.7894971   -0.7233874   -3.3315622  
C    3.6536755   -0.6796189   -4.5306716  
N    4.7071677   -1.4378856   -4.3921933  
C    3.3222621    0.1187973   -5.6786193  
C    2.1792868    0.8403743   -5.6309815  
O    1.7472617    1.6288353   -6.6298431  
C    1.2859871    0.8168684   -4.4353128  
O    0.2614373    1.4986633   -4.4612745  
C    1.6478449   -0.0100100   -3.2702997  
H    3.1525877   -1.9221623   -1.4350213  
H    0.9116310    2.0080726   -6.3026525  
H    5.3560074   -2.6944334   -2.7496145  
C    5.5185518   -3.1233691   -7.5896838  
C    6.1410195   -2.4846132   -8.6075755  
C    5.7281551   -1.0948595   -8.4866323  
C    4.8327435   -1.0731041   -7.3100491  
N    4.7061174   -2.2592979   -6.7800496  
C    4.2068241    0.1368585   -6.8525548  
C    4.4640459    1.2734929   -7.5390195  
O    3.9481270    2.4737136   -7.2238394  
C    5.3635463    1.2839899   -8.7302155  
O    5.5526033    2.3549667   -9.3068327  
C    5.9936305    0.0298852   -9.1798159  
H    6.7991475   -2.9046308   -9.3488773  
H    4.3124930    3.0831372   -7.8909178  
H    6.6387065    0.0796809  -10.0467807  
H    5.5669476   -4.1698696   -7.3338168  
C    2.5128556    2.1077716    2.9199648  
C    1.9592212    1.6432552    4.0696553  
C    0.8915788    0.7479214    3.6910360  
C    0.8684491    0.7287414    2.2159470  
N    1.8754542    1.5738793    1.8102719  
C    0.0000000    0.0000000    1.4700000  
C   -0.9772830   -0.8200135    2.1664417  
O   -1.8021297   -1.5120829    1.5842315  
C   -0.9711318   -0.8147624    3.7284083  
O   -1.7894187   -1.5009653    4.3257297  
C    0.0140216    0.0115358    4.4216297  
H    2.2638494    1.8988021    5.0689105  
H    0.0117648    0.0094386    5.5031631  
H    3.3327358    2.7953732    2.7900019  
H    2.1123206    1.7707734    0.8551938  
