58

C    0.8807936   -0.7246962   -5.2251244  
C    0.6214206   -0.5080868   -6.5403739  
C   -0.4848681    0.4175800   -6.6044198  
C   -0.8513572    0.7247246   -5.2086625  
N    0.0139735    0.0003890   -4.4216236  
C   -1.8534975    1.5639108   -4.8437156  
C   -2.6226020    2.2073964   -5.8958279  
O   -3.5449423    2.9796333   -5.6694646  
C   -2.2520211    1.8964740   -7.3810220  
O   -2.8926946    2.4320980   -8.2753954  
C   -1.1509204    0.9748422   -7.6493937  
H   -2.1059483    1.7756663   -3.8139886  
H   -0.9005297    0.7650142   -8.6804132  
H    1.6321133   -1.3531890   -4.7752298  
C    3.2798085    0.0005863   -1.4499651  
C    2.5571140    0.0005574   -2.5996556  
C    1.1637432    0.0001555   -2.2210361  
C    1.1336965   -0.0000197   -0.7459472  
N    2.4483511   -0.0001424   -0.3402720  
C    0.0000000    0.0000000    0.0000000  
C   -1.2757369   -0.0000184   -0.6964411  
O   -2.3524596   -0.0000641   -0.1142310  
C   -1.2676496   -0.0000869   -2.2584080  
O   -2.3355766   -0.0004093   -2.8557289  
C    0.0181558    0.0001767   -2.9516295  
H    2.9547351    0.0006085   -3.5989110  
H    4.3498549    0.0008618   -1.3200024  
H    2.7563629    0.0012825    0.6148060  
C    1.3373173   -1.1078018   -7.6755983  
C    2.3785610   -1.9794736   -7.6669658  
C    2.7078739   -2.2555979   -9.0454222  
C    1.7664015   -1.4676701   -9.8637073  
N    0.9620999   -0.7945883   -8.9732302  
C    1.7514398   -1.4550504  -11.2206598  
C    2.7276089   -2.2721981  -11.9220156  
O    2.7949864   -2.3285973  -13.1429083  
C    3.7341494   -3.1149137  -11.0755459  
O    4.5603720   -3.8069428  -11.6549542  
C    3.6524996   -3.0462949   -9.6186737  
H    2.8607736   -2.3831155   -6.7945219  
H    1.0523947   -0.8698445  -11.8018481  
H    4.3531544   -3.6326447   -9.0398806  
H    0.2185227   -0.1702623   -9.2269180  
C    2.3971438    2.0127888    3.1728260  
C    1.9431056    1.6308205    1.9564670  
C    0.8496017    0.7127664    2.2356185  
C    0.7794028    0.6545384    3.7115134  
N    1.6840587    1.4146091    4.2663826  
C   -0.1885723   -0.1578550    4.3957118  
C   -1.0476298   -0.8789867    3.6398520  
O   -2.0015663   -1.6796266    4.1448486  
C   -1.0022026   -0.8410666    2.1483229  
O   -1.8147390   -1.5232959    1.5241687  
C    0.0000000    0.0000000    1.4700000  
H    2.3054237    1.9346118    0.9892483  
H   -0.2170646   -0.1815267    5.4753125  
H   -2.4487139   -2.0549881    3.3649027  
H    3.2048689    2.6911772    3.3971983  
