58

C    0.0000000    0.0000000    0.0000000  
C    1.0541688   -0.0001718   -0.8560387  
C    0.5103144   -0.0000448   -2.1935956  
C   -0.9576364    0.0002467   -2.0455734  
N   -1.2018455   -0.0001388   -0.6915972  
C   -1.8348302    0.0008328   -3.0810616  
C   -1.2972835    0.0009751   -4.4314609  
O   -2.0050655    0.0014279   -5.4301327  
C    0.2542638    0.0004199   -4.6117572  
O    0.7184690    0.0002275   -5.7439119  
C    1.0974562    0.0000881   -3.4189129  
H    2.0940753   -0.0005481   -0.5817981  
H    2.1707289   -0.0000902   -3.5523664  
H   -2.1128193    0.0014914   -0.2706800  
C   -4.0213993    0.6871366   -1.9915551  
C   -3.2941063    0.0012884   -2.9038252  
C   -4.2729881   -0.7435710   -3.6806623  
C   -5.5765823   -0.3794228   -3.0851599  
N   -5.4354376    0.4590134   -2.0946586  
C   -6.8150469   -0.9152132   -3.5793460  
C   -6.7540279   -1.7753746   -4.6213313  
O   -7.8304581   -2.3511744   -5.1832856  
C   -5.4537852   -2.1621219   -5.2441925  
O   -5.4733724   -2.9502394   -6.1895536  
C   -4.1971357   -1.5989547   -4.7192164  
H   -7.4697200   -2.9079363   -5.8967545  
H   -3.2763909   -1.9041169   -5.1981058  
H   -3.6647466    1.3590437   -1.2271513  
C   -8.1689285    2.9591635   -2.1152053  
C   -9.4137492    2.6750444   -1.6665674  
C   -9.5903448    1.2542729   -1.9248746  
C   -8.3197160    0.8283397   -2.5499092  
N   -7.4825851    1.8234179   -2.6640141  
C   -8.0916854   -0.5296554   -2.9609286  
C   -9.0875876   -1.4216805   -2.7564664  
O   -9.0116810   -2.7210930   -3.0908393  
C  -10.3812849   -1.0226667   -2.1277420  
O  -11.2435333   -1.8873122   -1.9723801  
C  -10.5909730    0.3764135   -1.7147884  
H  -10.1243493    3.3466333   -1.2159110  
H   -9.8698238   -3.0965820   -2.8229748  
H  -11.5419014    0.6250050   -1.2629390  
H   -7.6598695    3.9097994   -2.1040545  
C    1.0965515   -0.0001358    2.2710304  
C    0.0000000    0.0000000    1.4700000  
C   -1.1546562   -0.0001469    2.3369512  
C   -0.6372014   -0.0003519    3.7186280  
N    0.7342871   -0.0007337    3.6095011  
C   -1.4147739   -0.0001353    4.8308716  
C   -2.8576048    0.0001048    4.6554461  
O   -3.6427778    0.0002493    5.5944904  
C   -3.4275839    0.0000726    3.2011665  
O   -4.6406829   -0.0000333    3.0410059  
C   -2.4891866    0.0001091    2.0816745  
H   -1.0150448   -0.0001615    5.8354244  
H   -2.8919121    0.0002919    1.0779135  
H    2.1388271   -0.0000662    1.9961646  
H    1.3735872    0.0006099    4.3830260  
