58

C   -2.6509565    0.0011008   -8.7508984  
C   -3.7799334    0.0008235   -7.9962553  
C   -4.8974620    0.0009906   -8.9105661  
C   -4.3228844    0.0013615  -10.2694815  
N   -2.9571347    0.0018104  -10.1033015  
C   -5.0534361    0.0012107  -11.4131593  
C   -6.5023238    0.0008714  -11.2980064  
O   -7.2476861    0.0007751  -12.2689530  
C   -7.1324057    0.0007275   -9.8687404  
O   -8.3511245    0.0007487   -9.7592667  
C   -6.2414708    0.0006336   -8.7111193  
H   -3.8247461    0.0007172   -6.9217297  
H   -4.6121958    0.0013590  -12.4001837  
H   -6.6856714    0.0003288   -7.7250109  
H   -2.2861579    0.0005795  -10.8495161  
C   -0.8287671    0.0000935   -4.7555305  
C    0.4829789    0.0003529   -5.1068098  
C    0.5323568    0.0005978   -6.5498617  
C   -0.8681899    0.0004881   -7.0138230  
N   -1.6437154   -0.0002183   -5.8774035  
C   -1.2464066    0.0010495   -8.3171476  
C   -0.2045436    0.0015866   -9.3305861  
O   -0.4431247    0.0020510  -10.5311609  
C    1.2854921    0.0014598   -8.8619719  
O    2.1713296    0.0016018   -9.7060996  
C    1.5684482    0.0011144   -7.4288675  
H    1.3204182    0.0001883   -4.4320442  
H    2.6027354    0.0012340   -7.1126813  
H   -2.6471544    0.0011001   -5.8649186  
C    1.0672566   -0.0000698   -0.8321912  
C    0.0000000    0.0000000    0.0000000  
C   -1.1601226   -0.0000736   -0.8778472  
C   -0.5938732   -0.0000770   -2.2438435  
N    0.7113365   -0.0001555   -2.2234123  
C   -1.4286989   -0.0001880   -3.4135239  
C   -2.7683117   -0.0006800   -3.2270522  
O   -3.6653907   -0.0008306   -4.2276967  
C   -3.3702026   -0.0010611   -1.8610771  
O   -4.5974909   -0.0013781   -1.7662957  
C   -2.4926826   -0.0008944   -0.6770655  
H   -4.5324249   -0.0012263   -3.7833950  
H   -2.9677773   -0.0012975    0.2947963  
H    2.1134390   -0.0000546   -0.5705121  
C    2.5128556    2.1077716    2.9199648  
C    1.9592212    1.6432552    4.0696553  
C    0.8915788    0.7479214    3.6910360  
C    0.8684491    0.7287414    2.2159470  
N    1.8754542    1.5738793    1.8102719  
C    0.0000000    0.0000000    1.4700000  
C   -0.9772830   -0.8200135    2.1664417  
O   -1.8021297   -1.5120829    1.5842315  
C   -0.9711318   -0.8147624    3.7284083  
O   -1.7894187   -1.5009653    4.3257297  
C    0.0140216    0.0115358    4.4216297  
H    2.2638494    1.8988021    5.0689105  
H    0.0117648    0.0094386    5.5031631  
H    3.3327358    2.7953732    2.7900019  
H    2.1123206    1.7707734    0.8551938  
