60

C    0.0000000    0.0000000    0.0000000  
C    1.0521666   -0.0011901   -0.8862345  
C    0.4917216   -0.0011955   -2.1979134  
C   -0.9187431    0.0003149   -2.0478682  
N   -1.1833167   -0.0009411   -0.7007910  
C   -1.7951706    0.0010353   -3.1372088  
C   -1.2375843    0.0005228   -4.4010420  
O   -2.0474221    0.0015365   -5.4997576  
C    0.1673574   -0.0013564   -4.5711963  
O    0.5673516   -0.0020683   -5.8915555  
C    1.0325767   -0.0023410   -3.4969894  
H    2.0953060   -0.0030649   -0.6200564  
H   -2.0989775    0.0102373   -0.2891820  
H   -1.4634896    0.0006502   -6.2693588  
H    1.5290702   -0.0033149   -5.9180051  
H    2.1042146   -0.0039607   -3.6584460  
C   -3.2578658    0.0024043   -2.9908500  
C   -3.9809874    0.0031290   -1.8468773  
C   -5.3695594    0.0043917   -2.2808874  
C   -5.2983973    0.0043646   -3.7578844  
N   -4.0631146    0.0031214   -4.1798618  
C   -6.4794717    0.0054036   -4.5765101  
C   -7.6771923    0.0060343   -3.9481800  
O   -8.8597161    0.0070297   -4.5866766  
C   -7.7819057    0.0057086   -2.4591548  
O   -8.9049096    0.0064469   -1.9550871  
C   -6.5558062    0.0046825   -1.6414736  
H   -3.6170581    0.0027521   -0.8336490  
H   -6.3979234    0.0055647   -5.6536635  
H   -9.5255218    0.0072474   -3.8754417  
C   -5.9952648    0.6896117    0.7367162  
C   -6.7169761    0.0042449   -0.1803356  
C   -7.6970082   -0.7411742    0.5945108  
C   -7.4154292   -0.3778434    1.9999604  
N   -6.4189789    0.4606350    2.0895692  
C   -8.1796827   -0.9143636    3.0922739  
C   -9.1800206   -1.7744424    2.7940722  
O   -9.9731882   -2.3508708    3.7131235  
C   -9.4889974   -2.1603733    1.3856151  
O  -10.4137111   -2.9484611    1.1880231  
C   -8.6906146   -1.5964664    0.2826562  
H   -7.9518417   -0.6316241    4.1096511  
H  -10.5852028   -2.9073820    3.1984526  
H   -8.9462271   -1.9010491   -0.7233863  
H   -5.1696213    1.3617018    0.5647233  
C    0.0000000    0.0000000    1.4700000  
C    1.0541688    0.0001722    2.3260392  
C    0.5103138    0.0000454    3.6635956  
C   -0.9576371   -0.0002459    3.5155732  
N   -1.2018458    0.0001392    2.1615969  
C   -1.8348311   -0.0008317    4.5510609  
C   -1.2972847   -0.0009736    5.9014604  
O   -2.0050672   -0.0014265    6.9001319  
C    0.2542623   -0.0004184    6.0817573  
O    0.7184670   -0.0002256    7.2139121  
C    1.0974552   -0.0000873    4.8889129  
H    2.0940752    0.0005483    2.0517982  
H   -2.9081052   -0.0011668    4.4207061  
H    2.1707277    0.0000911    5.0223670  
H   -2.1128194   -0.0014912    1.7406791  
