58

C    3.2798086    0.0005855   -1.4499648  
C    2.5571148    0.0005562   -2.5996554  
C    1.1637436    0.0001544   -2.2210360  
C    1.1336965   -0.0000202   -0.7459472  
N    2.4483515   -0.0001428   -0.3402719  
C    0.0000000    0.0000000    0.0000000  
C   -1.2757369   -0.0000188   -0.6964412  
O   -2.3524597   -0.0000640   -0.1142313  
C   -1.2676495   -0.0000876   -2.2584085  
O   -2.3355760   -0.0004105   -2.8557299  
C    0.0181562    0.0001755   -2.9516295  
H    2.9547356    0.0006072   -3.5989106  
H    4.3498552    0.0008611   -1.3200022  
H    2.7563629    0.0012824    0.6148064  
C    2.4107292   -2.0068248   -6.1315643  
C    1.9593060   -1.6260414   -4.9138613  
C    0.8629755   -0.7103792   -5.1897635  
C    0.7884490   -0.6520947   -6.6654437  
N    1.6932090   -1.4100734   -7.2229985  
C   -0.1832712    0.1582445   -7.3467636  
C   -1.0417747    0.8773565   -6.5883545  
O   -1.9989205    1.6759476   -7.0905155  
C   -0.9920203    0.8393226   -5.0969664  
O   -1.8042913    1.5196549   -4.4704009  
C    0.0139741    0.0003873   -4.4216238  
H    2.3250483   -1.9291665   -3.9477229  
H   -2.4446800    2.0502023   -6.3092441  
H    3.2193179   -2.6833843   -6.3583356  
C    0.3067002   -3.0052585  -10.3526766  
C    0.1463554   -2.2687289  -11.4822290  
C   -0.0871764   -0.9058350  -11.0665142  
C   -0.0494423   -0.9087448   -9.5916046  
N    0.1927311   -2.2115153   -9.2214286  
C   -0.2262947    0.1905825   -8.8157778  
C   -0.4702960    1.4614233   -9.4775650  
O   -0.6420190    2.5082702   -8.8668908  
C   -0.5146612    1.4878131  -11.0386996  
O   -0.7196377    2.5519027  -11.6069944  
C   -0.3093266    0.2376768  -11.7659193  
H    0.1868512   -2.6380585  -12.4914718  
H   -0.3413665    0.2645247  -12.8466490  
H    0.4983232   -4.0611611  -10.2514826  
H    0.2760720   -2.5354061   -8.2752804  
C    2.4951002    2.0940188    2.9809380  
C    1.9440701    1.6314916    1.8291961  
C    0.8759964    0.7350050    2.2038498  
C    0.8497377    0.7130254    3.6788474  
N    1.8560616    1.5571714    4.0882609  
C   -0.0205033   -0.0168748    4.4215661  
C   -0.9962600   -0.8356168    3.7214979  
O   -1.8224391   -1.5286685    4.3006425  
C   -0.9864710   -0.8277881    2.1595606  
O   -1.8030528   -1.5133726    1.5592035  
C    0.0000000    0.0000000    1.4700000  
H    2.2509283    1.8888011    0.8310761  
H   -0.0229599   -0.0187323    5.5027230  
H    3.3143982    2.7817323    3.1139444  
H    2.0889452    1.7545833    5.0442112  
