58

C    4.5318911    0.0286587   -6.6733989  
C    5.7000163   -0.6474292   -6.8232763  
C    6.2277223   -0.2938065   -8.1199312  
C    5.2643882    0.6505118   -8.7174603  
N    4.2593679    0.8036952   -7.7904439  
C    5.4029849    1.2181457   -9.9423220  
C    6.5793502    0.8760302  -10.7244061  
O    6.7948311    1.3344621  -11.8387267  
C    7.6125703   -0.1221896  -10.1113656  
O    8.6066795   -0.4179605  -10.7606180  
C    7.3539923   -0.6681758   -8.7813704  
H    6.1415200   -1.3175420   -6.1072904  
H    4.6846560    1.9086064  -10.3620579  
H    8.0743665   -1.3585068   -8.3639649  
H    3.4532120    1.3899386   -7.9065429  
C    4.6190968   -2.0899186   -2.8279649  
C    3.4606683   -1.6280057   -2.2906061  
C    2.8761400   -0.7301693   -3.2586206  
C    3.7955633   -0.7067283   -4.4122677  
N    4.8319966   -1.5514032   -4.0878914  
C    3.5979915    0.0246979   -5.5381833  
C    2.3999527    0.8436571   -5.6190796  
O    2.1321345    1.5380350   -6.5908892  
C    1.4124498    0.8342977   -4.4088913  
O    0.4006154    1.5200499   -4.4654210  
C    1.7334695    0.0049281   -3.2500363  
H    3.0613135   -1.8865707   -1.3260992  
H    5.3352943   -2.7782578   -2.4094676  
H    5.6204863   -1.7480983   -4.6766545  
C    1.1319246    0.0015678   -0.8009268  
C    0.7969914    0.0034958   -2.1169401  
C   -0.6453340    0.0035696   -2.1842669  
C   -1.1266832    0.0015410   -0.7896025  
N    0.0000000    0.0000000    0.0000000  
C   -2.4346129    0.0013913   -0.4276292  
C   -3.4350111    0.0031335   -1.4820181  
O   -4.6384614    0.0030875   -1.2583914  
C   -2.9478961    0.0050442   -2.9661074  
O   -3.7809382    0.0062135   -3.8623773  
C   -1.5113825    0.0053055   -3.2312122  
H   -2.7664565    0.0000174    0.6013448  
H   -1.1823533    0.0068381   -4.2614848  
H    2.1104316    0.0009435   -0.3488059  
C    0.8400945    0.7047457    2.2710304  
C    0.0000000    0.0000000    1.4700000  
C   -0.8844236   -0.7423113    2.3369512  
C   -0.4878984   -0.4098547    3.7186280  
N    0.5629682    0.4714286    3.6095011  
C   -1.0836927   -0.9095027    4.8308716  
C   -2.1891196   -1.8367527    4.6554461  
O   -2.7906899   -2.3413415    5.5944904  
C   -2.6257283   -2.2031529    3.2011665  
O   -3.5549479   -2.9829990    3.0410059  
C   -1.9068976   -1.5999348    2.0816745  
H   -0.7774656   -0.6525820    5.8354244  
H   -2.2155208   -1.8586617    1.0779135  
H    1.6384792    1.3747609    1.9961646  
H    1.0518368    0.8833920    4.3830260  
