62

C   -1.1176505   -0.0521134   -0.8003809  
C    0.0000000    0.0000000    0.0000000  
C    1.1312363    0.0510231   -0.8673527  
C    0.6376847    0.0272943   -2.1969285  
N   -0.7314558   -0.0374195   -2.1202244  
C    1.4756631    0.0649856   -3.3154813  
C    2.8366576    0.1280815   -3.0876858  
O    3.7001373    0.1673593   -4.1440355  
C    3.3483267    0.1522647   -1.7684333  
O    4.7251323    0.2156046   -1.7073133  
C    2.5222414    0.1148357   -0.6644823  
H    1.1057622    0.0470425   -4.3313814  
H    4.5892729    0.2084228   -3.7685140  
H    4.9882430    0.2281900   -0.7819921  
H    2.9431858    0.1345058    0.3339647  
H   -2.1596737   -0.1000465   -0.5342067  
C   -1.6465705   -0.0655425   -3.2703002  
C   -2.9984900   -0.1267747   -3.2583476  
C   -3.3862979   -0.1281788   -4.6605260  
C   -2.1079748   -0.0617870   -5.4008409  
N   -1.0846813   -0.0249322   -4.5912115  
C   -2.0605473   -0.0431450   -6.8369778  
C   -3.2366809   -0.0891435   -7.5032585  
O   -3.3412354   -0.0785314   -8.8430335  
C   -4.5432553   -0.1569476   -6.7846300  
O   -5.5746212   -0.1961690   -7.4554254  
C   -4.5655046   -0.1748264   -5.3111612  
H   -3.6518638   -0.1662191   -2.4035830  
H   -1.1122339    0.0059210   -7.3519572  
H   -4.2988527   -0.1202365   -9.0173386  
C   -6.1648174    1.8344036   -1.7105955  
C   -7.4222437    1.2773258   -1.7423943  
C   -7.4660797    0.4128118   -2.8761023  
C   -6.1956274    0.4836306   -3.5028891  
N   -5.4303053    1.3570894   -2.7707896  
C   -5.8792426   -0.2423979   -4.6550921  
C   -6.8631998   -1.0549483   -5.1840228  
O   -6.6075928   -1.7860888   -6.3079050  
C   -8.1370762   -1.1386852   -4.5732488  
O   -9.0085163   -1.9907767   -5.2196822  
C   -8.4499839   -0.4225172   -3.4367113  
H   -8.2112379    1.4711570   -1.0360580  
H   -4.4765830    1.5999643   -2.9693021  
H   -7.4166037   -2.2759864   -6.5047996  
H   -9.8444993   -1.9894942   -4.7435146  
H   -9.4343766   -0.5068730   -2.9913636  
H   -5.7342505    2.5355496   -1.0163581  
C    2.4951002    2.0940188    2.9809380  
C    1.9440701    1.6314916    1.8291961  
C    0.8759964    0.7350050    2.2038498  
C    0.8497377    0.7130254    3.6788474  
N    1.8560616    1.5571714    4.0882609  
C   -0.0205033   -0.0168748    4.4215661  
C   -0.9962600   -0.8356168    3.7214979  
O   -1.8224391   -1.5286685    4.3006425  
C   -0.9864710   -0.8277881    2.1595606  
O   -1.8030528   -1.5133726    1.5592035  
C    0.0000000    0.0000000    1.4700000  
H    2.2509283    1.8888011    0.8310761  
H   -0.0229599   -0.0187323    5.5027230  
H    3.3143982    2.7817323    3.1139444  
H    2.0889452    1.7545833    5.0442112  
