58

C    6.8354439   -0.0024597   -4.0255212  
C    5.5758876   -0.0020017   -3.5179843  
C    5.7016162   -0.0003813   -2.0795735  
C    7.1480384    0.0000996   -1.7886225  
N    7.7802453   -0.0016127   -3.0105885  
C    7.6812953    0.0019477   -0.5406887  
C    6.7698191    0.0033452    0.5914530  
O    7.1520250    0.0049834    1.7543012  
C    5.2340018    0.0026140    0.3067200  
O    4.4569006    0.0034707    1.2519041  
C    4.7795897    0.0008677   -1.0815734  
H    4.6629023   -0.0028997   -4.0863761  
H    8.7453476    0.0023989   -0.3491115  
H    7.1529577   -0.0035616   -5.0556057  
H    8.7747883   -0.0002010   -3.1444920  
C    3.3321166    0.0004717   -1.3379342  
C    2.6974176    0.0000121   -2.5332317  
C    1.2800432   -0.0002115   -2.2052842  
C    1.2395033    0.0000645   -0.7271297  
N    2.4394059    0.0005461   -0.2131042  
C    0.0000000    0.0000000    0.0000000  
C   -1.1468704    0.0000636   -0.7169540  
O   -2.3742206    0.0000073   -0.1695488  
C   -1.1388774    0.0001610   -2.2096351  
O   -2.2206238    0.0000908   -2.7970408  
C    0.1454514    0.0001820   -2.9324241  
H    3.1367977   -0.0000646   -3.5160953  
H   -2.9844351    0.0001027   -0.9290163  
C    2.5563877   -2.1074450   -5.9371923  
C    1.9637243   -1.6426510   -7.0671444  
C    0.9098262   -0.7472299   -6.6519875  
C    0.9372949   -0.7283012   -5.1769696  
N    1.9574929   -1.5736529   -4.8062059  
C    0.0950440    0.0004357   -4.4015596  
C   -0.9054237    0.8207091   -5.0639425  
O   -1.7097179    1.5127960   -4.4536742  
C   -0.9528379    0.8157266   -6.6252026  
O   -1.7910240    1.5021497   -7.1939981  
C    0.0078421   -0.0105928   -7.3519361  
H    2.2338703   -1.8980689   -8.0763006  
H   -0.0314996   -0.0083087   -8.4327557  
H    3.3801400   -2.7951862   -5.8355353  
H    2.2269411   -1.7707457   -3.8598448  
C    0.8175213    0.6860729    2.3021913  
C    0.0000000    0.0000000    1.4700000  
C   -0.8887526   -0.7456559    2.3478473  
C   -0.4549825   -0.3816753    3.7138435  
N    0.5448156    0.4573574    3.6934124  
C   -1.0945674   -0.9182058    4.8835240  
C   -2.1210866   -1.7789155    4.6970523  
O   -2.8083856   -2.3554314    5.6976972  
C   -2.5824069   -2.1655116    3.3310774  
O   -3.5227682   -2.9541547    3.2362962  
C   -1.9100805   -1.6015804    2.1470656  
H   -0.7567140   -0.6349833    5.8697035  
H   -3.4728268   -2.9124471    5.2533954  
H   -2.2742832   -1.9066565    1.1752040  
H    1.6189533    1.3585343    2.0405121  
