58

C    2.8912669   -0.6998115   -3.3332351  
C    1.7334695    0.0049281   -3.2500363  
C    1.6041098    0.7488997   -4.4807302  
C    2.7899380    0.4174240   -5.2935810  
N    3.5303611   -0.4649345   -4.5411804  
C    3.0393019    0.9187051   -6.5298007  
C    2.0755503    1.8468034   -7.0975613  
O    2.2101242    2.3528617   -8.2039496  
C    0.8125759    2.2121889   -6.2542374  
O   -0.0056411    2.9927351   -6.7217067  
C    0.6534233    1.6072169   -4.9341877  
H    3.9152832    0.6624810   -7.1093829  
H   -0.2239004    1.8652502   -4.3567398  
H    3.3315067   -1.3708305   -2.6136436  
C    5.1803175   -2.3831415   -4.7322045  
C    6.4157122   -2.6304123   -5.2388911  
C    6.8799249   -1.4002859   -5.8356588  
C    5.8060216   -0.4089697   -5.6336359  
N    4.8041503   -1.0679540   -4.9591845  
C    5.8603273    0.8800086   -6.0546948  
C    7.0561904    1.3203044   -6.7536840  
O    7.2010210    2.4614505   -7.1721456  
C    8.2059113    0.2872452   -6.9789284  
O    9.2174340    0.6463147   -7.5664239  
C    8.0315322   -1.0740930   -6.4787261  
H    6.9416914   -3.5676379   -5.1992916  
H    5.0615049    1.5911163   -5.8962072  
H    8.8323370   -1.7832369   -6.6385717  
H    4.5129539   -3.0511101   -4.2122684  
C    1.1319246    0.0015678   -0.8009268  
C    0.7969914    0.0034958   -2.1169401  
C   -0.6453340    0.0035696   -2.1842669  
C   -1.1266832    0.0015410   -0.7896025  
N    0.0000000    0.0000000    0.0000000  
C   -2.4346129    0.0013913   -0.4276292  
C   -3.4350111    0.0031335   -1.4820181  
O   -4.6384614    0.0030875   -1.2583914  
C   -2.9478961    0.0050442   -2.9661074  
O   -3.7809382    0.0062135   -3.8623773  
C   -1.5113825    0.0053055   -3.2312122  
H   -2.7664565    0.0000174    0.6013448  
H   -1.1823533    0.0068381   -4.2614848  
H    2.1104316    0.0009435   -0.3488059  
C    2.4951002    2.0940188    2.9809380  
C    1.9440701    1.6314916    1.8291961  
C    0.8759964    0.7350050    2.2038498  
C    0.8497377    0.7130254    3.6788474  
N    1.8560616    1.5571714    4.0882609  
C   -0.0205033   -0.0168748    4.4215661  
C   -0.9962600   -0.8356168    3.7214979  
O   -1.8224391   -1.5286685    4.3006425  
C   -0.9864710   -0.8277881    2.1595606  
O   -1.8030528   -1.5133726    1.5592035  
C    0.0000000    0.0000000    1.4700000  
H    2.2509283    1.8888011    0.8310761  
H   -0.0229599   -0.0187323    5.5027230  
H    3.3143982    2.7817323    3.1139444  
H    2.0889452    1.7545833    5.0442112  
