58

C    0.8712792   -0.0021961   -4.7267111  
C   -0.4246870    0.0007679   -5.1323438  
C   -0.4138925    0.0006867   -6.5761995  
C    1.0047661   -0.0026205   -6.9813993  
N    1.7322649   -0.0038473   -5.8136520  
C    1.4369596   -0.0040698   -8.2678330  
C    0.4382317   -0.0020249   -9.3238042  
O    0.7266301   -0.0030383  -10.5133942  
C   -1.0700310    0.0017378   -8.9176837  
O   -1.9199237    0.0037906   -9.7979905  
C   -1.4124552    0.0027340   -7.4976147  
H   -1.2895120    0.0029639   -4.4930591  
H   -2.4590160    0.0051385   -7.2248002  
H    2.7343060   -0.0076240   -5.7593669  
C   -1.0965490    0.0024131   -0.8010302  
C    0.0000000    0.0000000    0.0000000  
C    1.1546526   -0.0028309   -0.8669515  
C    0.6371986   -0.0018330   -2.2486283  
N   -0.7342872    0.0009732   -2.1395012  
C    1.4147695   -0.0034237   -3.3608718  
C    2.8575970   -0.0065375   -3.1854467  
O    3.6427683   -0.0082181   -4.1244909  
C    3.4275746   -0.0078946   -1.7311667  
O    4.6406700   -0.0108202   -1.5710061  
C    2.4891803   -0.0056769   -0.6116744  
H    2.8919053   -0.0064302    0.3920867  
H   -2.1388217    0.0049054   -0.5261643  
H   -1.3735821    0.0038028   -2.9130262  
C    3.8454633   -0.7144369   -8.0343978  
C    2.8583591   -0.0075486   -8.6426814  
C    3.4728749    0.7329711   -9.7191740  
C    4.9091989    0.3971281   -9.6879780  
N    5.0695669   -0.4842059   -8.6437452  
C    5.8339241    0.8943192  -10.5478557  
C    5.3846076    1.8223093  -11.5722990  
O    6.1403993    2.3248527  -12.3935974  
C    3.8679404    2.1922794  -11.6237500  
O    3.4779683    2.9727778  -12.4816578  
C    2.9673355    1.5914993  -10.6430231  
H    6.8827453    0.6349312  -10.5078300  
H    1.9186738    1.8526923  -10.6855669  
H    3.7816886   -1.3840363   -7.1921039  
H    5.9412049   -0.8981435   -8.3681553  
C    0.8175213    0.6860729    2.3021913  
C    0.0000000    0.0000000    1.4700000  
C   -0.8887526   -0.7456559    2.3478473  
C   -0.4549825   -0.3816753    3.7138435  
N    0.5448156    0.4573574    3.6934124  
C   -1.0945674   -0.9182058    4.8835240  
C   -2.1210866   -1.7789155    4.6970523  
O   -2.8083856   -2.3554314    5.6976972  
C   -2.5824069   -2.1655116    3.3310774  
O   -3.5227682   -2.9541547    3.2362962  
C   -1.9100805   -1.6015804    2.1470656  
H   -0.7567140   -0.6349833    5.8697035  
H   -3.4728268   -2.9124471    5.2533954  
H   -2.2742832   -1.9066565    1.1752040  
H    1.6189533    1.3585343    2.0405121  
