58

C    0.0000000    0.0000000    0.0000000  
C    1.0541685   -0.0001718   -0.8560392  
C    0.5103137   -0.0000448   -2.1935958  
C   -0.9576367    0.0002463   -2.0455734  
N   -1.2018458   -0.0001390   -0.6915970  
C   -1.8348312    0.0008321   -3.0810610  
C   -1.2972852    0.0009745   -4.4314608  
O   -2.0050675    0.0014276   -5.4301319  
C    0.2542623    0.0004195   -4.6117577  
O    0.7184669    0.0002269   -5.7439119  
C    1.0974552    0.0000881   -3.4189132  
H    2.0940750   -0.0005479   -0.5817985  
H   -2.9081044    0.0011672   -2.9507062  
H   -2.1128195    0.0014912   -0.2706792  
C    4.1988040   -2.1397328   -1.2302381  
C    5.3249605   -1.7327105   -1.8608595  
C    4.8655807   -0.8226603   -2.8987799  
C    3.3949139   -0.7961719   -2.7470504  
N    2.9982276   -1.5662358   -1.7705102  
C    2.5562211   -0.0001540   -3.6003008  
C    3.1593389    0.7362391   -4.5611901  
O    2.5001461    1.5244295   -5.4273667  
C    4.6413757    0.7309348   -4.7392339  
O    5.1220776    1.4254277   -5.6346811  
C    5.4799926   -0.0939005   -3.8513751  
H    6.3418218   -2.0150794   -1.6479354  
H    3.1961609    1.9162266   -5.9852295  
H    4.1125269   -2.8213698   -0.3990337  
C    7.8064835   -1.0939018   -4.0143439  
C    6.9331579   -0.0615792   -4.0708410  
C    7.7458581    1.0997346   -4.3985136  
C    9.1230966    0.5723523   -4.5065247  
N    9.1648605   -0.7129596   -4.2824299  
C   10.2397268    1.4198539   -4.8226934  
C    9.9917146    2.7343838   -5.0222826  
O   10.9382841    3.6394436   -5.3237998  
C    8.6127495    3.2967847   -4.9206870  
O    8.4607356    4.5027891   -5.1147655  
C    7.4839867    2.4069497   -4.5950917  
H   11.2355746    1.0075881   -4.8950366  
H   10.4578463    4.4831147   -5.4047403  
H    6.5006390    2.8531940   -4.5308763  
H    7.5974766   -2.1295154   -3.7980231  
C    1.0965515   -0.0001358    2.2710304  
C    0.0000000    0.0000000    1.4700000  
C   -1.1546562   -0.0001469    2.3369512  
C   -0.6372014   -0.0003519    3.7186280  
N    0.7342871   -0.0007337    3.6095011  
C   -1.4147739   -0.0001353    4.8308716  
C   -2.8576048    0.0001048    4.6554461  
O   -3.6427778    0.0002493    5.5944904  
C   -3.4275839    0.0000726    3.2011665  
O   -4.6406829   -0.0000333    3.0410059  
C   -2.4891866    0.0001091    2.0816745  
H   -1.0150448   -0.0001615    5.8354244  
H   -2.8919121    0.0002919    1.0779135  
H    2.1388271   -0.0000662    1.9961646  
H    1.3735872    0.0006099    4.3830260  
