58

C    1.5361329   -1.1557293   -9.4294979  
C    1.9861602   -0.7963058  -10.6592814  
C    1.7663663    0.6248344  -10.7892297  
C    1.1469851    1.0670686   -9.5252727  
N    1.0343283   -0.0598046   -8.7440205  
C    0.7850372    2.3462905   -9.2527135  
C    1.0210660    3.3548221  -10.2723658  
O    0.7301349    4.5343208  -10.1225569  
C    1.6756604    2.9088920  -11.6186413  
O    1.8789644    3.7490649  -12.4846871  
C    2.0224193    1.5009632  -11.7956951  
H    2.4221496   -1.4519350  -11.3918639  
H    0.3321418    2.6496632   -8.3190323  
H    2.4754772    1.2004174  -12.7306458  
H    1.5286546   -2.1290519   -8.9663827  
C    2.0485059   -2.1404838   -4.9352596  
C    2.0920573   -1.7327542   -6.2250031  
C    0.9665701   -0.8221932   -6.3687265  
C    0.3351125   -0.7962139   -5.0318758  
N    0.9649966   -1.5669927   -4.1874018  
C   -0.8287665    0.0000939   -4.7555305  
C   -1.3384137    0.7372507   -5.7685430  
O   -2.4204376    1.5257895   -5.6524722  
C   -0.7235766    0.7324748   -7.1287316  
O   -1.2406169    1.4276564   -8.0031532  
C    0.4698625   -0.0926719   -7.3871127  
H    2.8005017   -2.0149674   -6.9849629  
H   -2.5373015    1.9181275   -6.5365349  
H    2.7147577   -2.8226585   -4.4315535  
C    1.0672569   -0.0000698   -0.8321910  
C    0.0000000    0.0000000    0.0000000  
C   -1.1601223   -0.0000736   -0.8778472  
C   -0.5938729   -0.0000768   -2.2438435  
N    0.7113367   -0.0001553   -2.2234123  
C   -1.4286985   -0.0001877   -3.4135239  
C   -2.7683113   -0.0006798   -3.2270524  
O   -3.6653902   -0.0008302   -4.2276970  
C   -3.3702024   -0.0010610   -1.8610774  
O   -4.5974910   -0.0013779   -1.7662963  
C   -2.4926825   -0.0008943   -0.6770658  
H   -4.5324245   -0.0012258   -3.7833954  
H   -2.9677772   -0.0012974    0.2947961  
H    2.1134391   -0.0000547   -0.5705119  
C    2.3971438    2.0127888    3.1728260  
C    1.9431056    1.6308205    1.9564670  
C    0.8496017    0.7127664    2.2356185  
C    0.7794028    0.6545384    3.7115134  
N    1.6840587    1.4146091    4.2663826  
C   -0.1885723   -0.1578550    4.3957118  
C   -1.0476298   -0.8789867    3.6398520  
O   -2.0015663   -1.6796266    4.1448486  
C   -1.0022026   -0.8410666    2.1483229  
O   -1.8147390   -1.5232959    1.5241687  
C    0.0000000    0.0000000    1.4700000  
H    2.3054237    1.9346118    0.9892483  
H   -0.2170646   -0.1815267    5.4753125  
H   -2.4487139   -2.0549881    3.3649027  
H    3.2048689    2.6911772    3.3971983  
