62

C   -3.3032450    0.0762927   -1.5420455  
C   -2.5838346    0.0602472   -0.3695872  
C   -1.2036784    0.0278441   -0.7283601  
C   -1.1419441    0.0258114   -2.1454383  
N   -2.4342708    0.0536977   -2.6077484  
C    0.0654828   -0.0023948   -2.8497918  
C    1.2318433   -0.0287275   -2.1101392  
O    2.4386283   -0.0565249   -2.7472505  
C    1.1908027   -0.0275448   -0.6955256  
O    2.4365069   -0.0561290   -0.1032848  
C    0.0000000    0.0000000    0.0000000  
H   -3.0023490    0.0695161    0.6222561  
H   -2.7045717    0.0696736   -3.5745282  
H    0.1192914   -0.0042443   -3.9297473  
H    3.1124695   -0.0719326   -2.0551769  
H    2.3194170   -0.0532453    0.8516423  
C   -5.7168370    0.1313423   -0.7610803  
C   -6.9679918    0.1575878   -1.2883356  
C   -6.8197688    0.1522863   -2.7245937  
C   -5.3693032    0.1205442   -2.9927928  
N   -4.7564600    0.1095130   -1.7610495  
C   -4.8166901    0.1063931   -4.2321973  
C   -5.7101060    0.1237981   -5.3785132  
O   -5.3098212    0.1131587   -6.5352152  
C   -7.2498316    0.1577059   -5.1179355  
O   -8.0118428    0.1728932   -6.0752070  
C   -7.7258330    0.1701578   -3.7369503  
H   -7.8895555    0.1784804   -0.7343518  
H   -3.7500176    0.0829602   -4.4070401  
H   -5.4155779    0.1263280    0.2738628  
C  -10.1841130    2.3494345   -0.7761238  
C  -11.4099714    1.8757344   -1.1827513  
C  -11.1729991    0.9942182   -2.2788231  
C   -9.7717410    0.9692142   -2.4974008  
N   -9.2014756    1.8044485   -1.5690696  
C   -9.1768090    0.2018139   -3.5033533  
C  -10.0116207   -0.5543511   -4.3030295  
O   -9.4833456   -1.3223074   -5.3001164  
C  -11.4122501   -0.5423191   -4.1007717  
O  -12.1076208   -1.3476026   -4.9790218  
C  -11.9998780    0.2147123   -3.1087425  
H  -12.3584234    2.1346456   -0.7441204  
H   -8.2176429    1.9802023   -1.4733348  
H  -10.2284615   -1.7616628   -5.7302716  
H  -13.0453917   -1.2821473   -4.7743161  
H  -13.0756283    0.2038935   -2.9778846  
H   -9.9330806    3.0340412    0.0158709  
C    0.0000000    0.0000000    1.4700000  
C    1.0541688    0.0001722    2.3260392  
C    0.5103138    0.0000454    3.6635956  
C   -0.9576371   -0.0002459    3.5155732  
N   -1.2018458    0.0001392    2.1615969  
C   -1.8348311   -0.0008317    4.5510609  
C   -1.2972847   -0.0009736    5.9014604  
O   -2.0050672   -0.0014265    6.9001319  
C    0.2542623   -0.0004184    6.0817573  
O    0.7184670   -0.0002256    7.2139121  
C    1.0974552   -0.0000873    4.8889129  
H    2.0940752    0.0005483    2.0517982  
H   -2.9081052   -0.0011668    4.4207061  
H    2.1707277    0.0000911    5.0223670  
H   -2.1128194   -0.0014912    1.7406791  
