60

C    0.0000000    0.0000000    0.0000000  
C   -1.0239732   -0.2419382   -0.8862345  
C   -0.4786930   -0.1124455   -2.1979133  
C    0.8939578    0.2119635   -2.0478683  
N    1.1510836    0.2743137   -0.7007912  
C    1.7468384    0.4137558   -3.1372090  
C    1.2042201    0.2854278   -4.4010423  
O    1.9923808    0.4715499   -5.4997574  
C   -0.1631426   -0.0373462   -4.5711964  
O   -0.5524789   -0.1290697   -5.8915554  
C   -1.0051795   -0.2362920   -3.4969892  
H   -2.0393216   -0.4811247   -0.6200563  
H    2.0445520    0.4749952   -0.2891823  
H    1.4240423    0.3374984   -6.2693592  
H   -1.4884650   -0.3500559   -5.9180050  
H   -2.0481964   -0.4823112   -3.6584458  
C    4.7113322   -1.0858404   -0.3175485  
C    5.8220918   -0.4042827   -0.6826120  
C    5.4001084    0.4319895   -1.7957507  
C    3.9657222    0.1197816   -1.9736452  
N    3.5563111   -0.7692460   -1.1099312  
C    3.1702744    0.7503705   -2.9908505  
C    3.7799650    1.6521590   -3.7935891  
O    3.1594424    2.3160927   -4.7836321  
C    5.2259293    1.9888976   -3.6388177  
O    5.7150075    2.8190412   -4.4049019  
C    6.0204883    1.3284548   -2.5879057  
H    6.8062276   -0.4618447   -0.2499013  
H    3.8498501    2.8825086   -5.1730703  
H    7.0645987    1.6000160   -2.5084186  
C    4.5696935   -2.0751440    0.7604668  
C    5.5198425   -2.5153568    1.6177937  
C    4.8399379   -3.4806669    2.4677385  
C    3.4474915   -3.4994978    1.9704225  
N    3.2830765   -2.6776689    0.9696458  
C    2.4412971   -4.3410696    2.5572920  
C    2.8095135   -5.1283393    3.5936114  
O    1.9745351   -5.9627212    4.2359968  
C    4.2070574   -5.1320861    4.1180333  
O    4.4712856   -5.8740130    5.0640504  
C    5.2209884   -4.2598588    3.4990926  
H    6.5543562   -2.2213990    1.6672527  
H    1.4314512   -4.3344611    2.1737857  
H    2.5238338   -6.3839605    4.9215484  
H    6.2219503   -4.2919295    3.9080864  
C    3.2573670    0.0002920    2.9809380  
C    2.5379467    0.0001709    1.8291961  
C    1.1435042   -0.0000331    2.2038498  
C    1.1092607    0.0000083    3.6788474  
N    2.4227561   -0.0001909    4.0882609  
C   -0.0265533    0.0002524    4.4215661  
C   -1.3003036    0.0002640    3.7214979  
O   -2.3786784    0.0004133    4.3006425  
C   -1.2877726   -0.0000311    2.1595606  
O   -2.3539958   -0.0003306    1.5592035  
C    0.0000000    0.0000000    1.4700000  
H    2.9384090    0.0000368    0.8310761  
H   -0.0296291    0.0004086    5.5027230  
H    4.3270393    0.0004765    3.1139444  
H    2.7280493    0.0013407    5.0442112  
