58

C    7.6199861   -1.1185211   -4.5716677  
C    6.7726139   -0.0573878   -4.5660651  
C    7.5430967    1.0987112   -4.9592901  
C    8.9186625    0.6206963   -5.1961681  
N    8.8985518   -0.7315854   -4.9435426  
C    9.9511235    1.4111367   -5.5846689  
C    9.6901882    2.8272252   -5.7825094  
O   10.5538237    3.6212422   -6.1317541  
C    8.2408108    3.3553366   -5.5371357  
O    8.0091785    4.5457190   -5.7002227  
C    7.2113180    2.4063967   -5.1205923  
H   10.9526779    1.0404313   -5.7531218  
H    6.2103100    2.7800423   -4.9529701  
H    7.4180446   -2.1506043   -4.3352087  
H    9.6902180   -1.3435528   -5.0197471  
C    4.2926942   -2.1403413   -1.5040812  
C    5.3604709   -1.7320208   -2.2284477  
C    4.8134481   -0.8208703   -3.2219620  
C    3.3612075   -0.7952320   -2.9446112  
N    3.0500070   -1.5667026   -1.9386405  
C    2.4521483    0.0014840   -3.7217481  
C    2.9703735    0.7393569   -4.7298757  
O    2.2390463    1.5283420   -5.5352975  
C    4.4316781    0.7349405   -5.0343914  
O    4.8335663    1.4307757   -5.9668722  
C    5.3436401   -0.0906363   -4.2228046  
H    6.3919441   -2.0142020   -2.1038949  
H    2.8845131    1.9211529   -6.1502981  
H    4.2782631   -2.8230632   -0.6694220  
C    0.0000000    0.0000000    0.0000000  
C    1.0662923   -0.0000101   -0.8334270  
C    0.4961873    0.0000065   -2.1718887  
C   -0.9663854   -0.0000848   -1.9540250  
N   -1.2632773   -0.0000083   -0.6828660  
C   -1.8985359   -0.0000514   -3.0477261  
C   -1.3925770    0.0004566   -4.3020547  
O   -2.1456378    0.0005414   -5.4151314  
C    0.0786240    0.0009326   -4.5545000  
O    0.4683767    0.0012591   -5.7221100  
C    1.0143171    0.0008444   -3.4159031  
H    2.1107200    0.0000633   -0.5721865  
H   -2.9622181   -0.0003268   -2.8593381  
H   -1.5042265    0.0009697   -6.1484419  
C    3.1301144    0.0010313    3.1728260  
C    2.5367765    0.0002768    1.9564670  
C    1.1089900   -0.0001027    2.2356185  
C    1.0177864    0.0004150    3.7115134  
N    2.1993570    0.0011613    4.2663826  
C   -0.2459220    0.0002880    4.3957118  
C   -1.3675327    0.0000606    3.6398520  
O   -2.6129319   -0.0000866    4.1448486  
C   -1.3083589   -0.0000910    2.1483229  
O   -2.3693264   -0.0004206    1.5241687  
C    0.0000000    0.0000000    1.4700000  
H    3.0096015    0.0001008    0.9892483  
H   -0.2829642    0.0004689    5.4753125  
H   -3.1967446   -0.0002093    3.3649027  
H    4.1849273    0.0015113    3.3971983  
