62

C    1.1243400    0.0100500   -0.7919010  
C    0.7474052    0.0234928   -2.1148550  
C   -0.6787406    0.0234143   -2.1414695  
C   -1.1201754    0.0098019   -0.7935541  
N    0.0000000    0.0000000    0.0000000  
C   -2.4730823    0.0062441   -0.4408232  
C   -3.3971975    0.0169240   -1.4675048  
O   -4.7313531    0.0143835   -1.1793446  
C   -2.9763680    0.0301984   -2.8186306  
O   -4.0166520    0.0393063   -3.7247603  
C   -1.6418601    0.0334421   -3.1673475  
H   -2.8160164   -0.0042554    0.5845986  
H   -5.1938846    0.0228207   -2.0274351  
H   -3.6464723    0.0480426   -4.6127324  
H   -1.3497516    0.0435180   -4.2109228  
H    2.1062459    0.0053899   -0.3505419  
C    4.6036339   -2.0930716   -2.9144245  
C    3.4418649   -1.6362332   -2.3364471  
C    2.8381164   -0.7399517   -3.2674505  
C    3.6839306   -0.6894178   -4.4049794  
N    4.7475931   -1.5210622   -4.1567729  
C    3.3988584    0.0973662   -5.5250210  
C    2.2386550    0.8465548   -5.4963344  
O    1.9118972    1.6321378   -6.5636216  
C    1.3821518    0.8097215   -4.3703406  
O    0.2663906    1.6116414   -4.4942143  
C    1.6628913    0.0339758   -3.2649309  
H    3.0752696   -1.9138828   -1.3630448  
H    4.0394695    0.1403668   -6.3950614  
H    1.0768251    2.0632292   -6.3398371  
H   -0.2582085    1.5289057   -3.6919960  
H    5.3416944   -2.7805788   -2.5381801  
C    6.4733422   -2.9567243   -5.3398976  
C    5.8594620   -1.7782052   -5.0833396  
C    6.5402652   -0.8089650   -5.9280757  
C    7.5652314   -1.5959542   -6.6468780  
N    7.5307454   -2.8556285   -6.3062598  
C    8.4620146   -0.9926056   -7.5938927  
C    8.3401323    0.3364554   -7.8131560  
O    9.1099407    1.0296169   -8.6692881  
C    7.3154495    1.1578667   -7.1036013  
O    7.2614000    2.3622082   -7.3523201  
C    6.4072423    0.5157137   -6.1367903  
H    9.2016583   -1.5917622   -8.1046257  
H    8.7862333    1.9464162   -8.6072799  
H    5.6787976    1.1454613   -5.6438231  
H    6.2602109   -3.9234841   -4.9122013  
C    2.5128556    2.1077716    2.9199648  
C    1.9592212    1.6432552    4.0696553  
C    0.8915788    0.7479214    3.6910360  
C    0.8684491    0.7287414    2.2159470  
N    1.8754542    1.5738793    1.8102719  
C    0.0000000    0.0000000    1.4700000  
C   -0.9772830   -0.8200135    2.1664417  
O   -1.8021297   -1.5120829    1.5842315  
C   -0.9711318   -0.8147624    3.7284083  
O   -1.7894187   -1.5009653    4.3257297  
C    0.0140216    0.0115358    4.4216297  
H    2.2638494    1.8988021    5.0689105  
H    0.0117648    0.0094386    5.5031631  
H    3.3327358    2.7953732    2.7900019  
H    2.1123206    1.7707734    0.8551938  
