60

C    4.3050459   -2.1060740   -1.2837810  
C    5.3776645   -1.6422076   -1.9754406  
C    4.8702536   -0.7476998   -2.9889620  
C    3.4035843   -0.7282959   -2.8299158  
N    3.1252155   -1.5725290   -1.7798346  
C    2.5562222   -0.0001542   -3.6002998  
C    3.1268018    0.8189313   -4.6567435  
O    2.4473032    1.5104103   -5.4040310  
C    4.6775909    0.8134279   -4.8433703  
O    5.1694184    1.4988513   -5.7296888  
C    5.4870244   -0.0121649   -3.9505853  
H    6.4068566   -1.8976656   -1.7962253  
H    6.5600149   -0.0102480   -4.0862800  
H    4.2772020   -2.7929719   -0.4535483  
H    2.2066514   -1.7690685   -1.4267622  
C    0.0000000    0.0000000    0.0000000  
C    1.0541691   -0.0001719   -0.8560389  
C    0.5103143   -0.0000448   -2.1935953  
C   -0.9576364    0.0002464   -2.0455731  
N   -1.2018458   -0.0001389   -0.6915972  
C   -1.8348303    0.0008322   -3.0810611  
C   -1.2972837    0.0009745   -4.4314603  
O   -2.0050658    0.0014276   -5.4301322  
C    0.2542633    0.0004194   -4.6117570  
O    0.7184681    0.0002269   -5.7439118  
C    1.0974560    0.0000881   -3.4189126  
H    2.0940754   -0.0005481   -0.5817976  
H   -2.1128195    0.0014913   -0.2706792  
C   -4.6947982    2.0138963   -0.3183453  
C   -3.5421866    1.6316853   -0.9158243  
C   -3.9514596    0.7140407   -1.9679286  
C   -5.4250713    0.6562909   -1.8596833  
N   -5.8665587    1.4162663   -0.8945324  
C   -6.2212650   -0.1556046   -2.7383116  
C   -5.5747429   -0.8767168   -3.6824200  
O   -6.1913451   -1.6769184   -4.5687154  
C   -4.0886041   -0.8392724   -3.8171467  
O   -3.5672041   -1.5214552   -4.6991835  
C   -3.2941065    0.0012879   -2.9038247  
H   -2.5382353    1.9350697   -0.6726881  
H   -7.2964338   -0.1789332   -2.6364356  
H   -5.4711300   -2.0523897   -5.1067342  
H   -4.8199143    2.6921156    0.5107131  
C    1.1243417   -0.0099156    2.2619005  
C    0.7474090   -0.0234034    3.5848544  
C   -0.6787367   -0.0234952    3.6114698  
C   -1.1201739   -0.0099357    2.2635546  
N    0.0000000    0.0000000    1.4700000  
C   -2.4730812   -0.0065396    1.9108239  
C   -3.3971947   -0.0173298    2.9375057  
O   -4.7313508   -0.0149487    2.6493466  
C   -2.9763630   -0.0305536    4.2886322  
O   -4.0166453   -0.0397858    5.1947621  
C   -1.6418541   -0.0336380    4.6373480  
H    1.4178735   -0.0310004    4.4271209  
H   -2.8160170    0.0039190    0.8854031  
H   -5.1938803   -0.0234410    3.4974381  
H   -3.6464643   -0.0484781    6.0827341  
H   -1.3497443   -0.0436789    5.6809233  
H    2.1062470   -0.0051382    1.8205408  
