60

C   -2.7135148    1.8786119   -1.4738977  
C   -2.0745838    1.4363340   -2.6090739  
C   -0.9554665    0.6618714   -2.1820099  
C   -0.9628650    0.6667644   -0.7636138  
N   -2.0422526    1.4161839   -0.3662350  
C    0.0000000    0.0000000    0.0000000  
C    0.9881625   -0.6844192   -0.6806482  
O    1.9530430   -1.3530118    0.0157739  
C    1.0126753   -0.7007104   -2.0955512  
O    2.0601717   -1.4258022   -2.6250186  
C    0.0632633   -0.0429294   -2.8495194  
H   -2.3098751    1.5889858    0.5858674  
H    2.5349703   -1.7556451   -0.6418822  
H    2.0032883   -1.3859836   -3.5845927  
H    0.1079718   -0.0731451   -3.9319087  
H   -3.5941241    2.4885275   -1.3667125  
C   -3.6522820    5.0738313   -4.5522449  
C   -3.1652080    4.1738900   -3.6595304  
C   -2.9538814    2.9397365   -4.3785862  
C   -3.3606539    3.1962877   -5.7734008  
N   -3.7743501    4.5078665   -5.8122142  
C   -3.3111267    2.2767771   -6.7702719  
C   -2.8249385    0.9455300   -6.4478778  
O   -2.7425728    0.0478363   -7.2759253  
C   -2.3890325    0.6515352   -4.9770424  
O   -1.9783124   -0.4657139   -4.6936260  
C   -2.4877705    1.7240018   -3.9901692  
H   -2.9757692    4.3539953   -2.6163196  
H   -3.6141734    2.4855125   -7.7868855  
H   -4.1109842    4.9816177   -6.6303122  
C   -3.5461655    7.4927917   -0.9294194  
C   -4.0158591    8.6837708   -1.3682102  
C   -4.2862480    8.4819652   -2.7833654  
C   -3.9123756    7.0739928   -3.0371698  
N   -3.4779216    6.4890214   -1.9540962  
C   -4.0344704    6.4771204   -4.3386777  
C   -4.5088774    7.2514937   -5.3409843  
O   -4.6746556    6.8252345   -6.6046541  
C   -4.8950467    8.6757802   -5.1163887  
O   -5.3192966    9.3214129   -6.0747154  
C   -4.7605282    9.2650043   -3.7722736  
H   -4.1610087    9.5875816   -0.8015259  
H   -5.0254070    7.5980812   -7.0830199  
H   -5.0511022   10.2999323   -3.6509500  
H   -3.2309312    7.2298668    0.0678124  
C    0.8400945    0.7047457    2.2710304  
C    0.0000000    0.0000000    1.4700000  
C   -0.8844236   -0.7423113    2.3369512  
C   -0.4878984   -0.4098547    3.7186280  
N    0.5629682    0.4714286    3.6095011  
C   -1.0836927   -0.9095027    4.8308716  
C   -2.1891196   -1.8367527    4.6554461  
O   -2.7906899   -2.3413415    5.5944904  
C   -2.6257283   -2.2031529    3.2011665  
O   -3.5549479   -2.9829990    3.0410059  
C   -1.9068976   -1.5999348    2.0816745  
H   -0.7774656   -0.6525820    5.8354244  
H   -2.2155208   -1.8586617    1.0779135  
H    1.6384792    1.3747609    1.9961646  
H    1.0518368    0.8833920    4.3830260  
