60

C    3.3003550    0.0005278   -1.4738984  
C    2.5232817    0.0003499   -2.6090745  
C    1.1623206   -0.0001318   -2.1820103  
C    1.1711889    0.0000583   -0.7636144  
N    2.4852306   -0.0014919   -0.3662359  
C    0.0000000    0.0000000    0.0000000  
C   -1.2020381    0.0000520   -0.6806483  
O   -2.3759245    0.0003493    0.0157738  
C   -1.2314651   -0.0005111   -2.0955512  
O   -2.5054383   -0.0008038   -2.6250188  
C   -0.0764510   -0.0007272   -2.8495197  
H    2.8036267    0.0088181    0.5858666  
H   -3.0835634    0.0000346   -0.6418822  
H   -2.4360041   -0.0011525   -3.5845926  
H   -0.1304089   -0.0013420   -3.9319089  
H    4.3715552    0.0004896   -1.3667133  
C    5.8850902   -2.1080192   -4.4895965  
C    5.7585077   -1.6448894   -5.7598575  
C    4.6253937   -0.7500316   -5.7707353  
C    4.0984499   -0.7296199   -4.3928008  
N    4.9059588   -1.5736627   -3.6658823  
C    3.0267442   -0.0008948   -3.9901698  
C    2.3467548    0.8177996   -4.9800634  
O    1.3721080    1.5097466   -4.7162946  
C    2.8874962    0.8112304   -6.4454508  
O    2.3229945    1.4963169   -7.2876239  
C    4.0508303   -0.0149196   -6.7584727  
H    4.4191252   -0.0137400   -7.7753709  
H    6.6111559   -2.7948988   -4.0859696  
H    4.8014750   -1.7695716   -2.6872357  
C    7.4920571   -5.4776247   -6.8967151  
C    8.1727275   -5.1597514   -8.0224251  
C    7.9417091   -3.7358180   -8.2109546  
C    7.0769139   -3.3451822   -7.0768827  
N    6.8100461   -4.3620124   -6.3030433  
C    6.6176404   -1.9950314   -6.9001173  
C    7.0050161   -1.0767830   -7.8144992  
O    6.6511237    0.2190206   -7.7733419  
C    7.8777039   -1.4398974   -8.9698014  
O    8.1910575   -0.5526572   -9.7634231  
C    8.3356444   -2.8315875   -9.1292204  
H    8.7592366   -5.8110896   -8.6475980  
H    7.0782027    0.6175689   -8.5530306  
H    8.9666337   -3.0538438   -9.9793293  
H    7.4117226   -6.4410805   -6.4189366  
C    0.8400945    0.7047457    2.2710304  
C    0.0000000    0.0000000    1.4700000  
C   -0.8844236   -0.7423113    2.3369512  
C   -0.4878984   -0.4098547    3.7186280  
N    0.5629682    0.4714286    3.6095011  
C   -1.0836927   -0.9095027    4.8308716  
C   -2.1891196   -1.8367527    4.6554461  
O   -2.7906899   -2.3413415    5.5944904  
C   -2.6257283   -2.2031529    3.2011665  
O   -3.5549479   -2.9829990    3.0410059  
C   -1.9068976   -1.5999348    2.0816745  
H   -0.7774656   -0.6525820    5.8354244  
H   -2.2155208   -1.8586617    1.0779135  
H    1.6384792    1.3747609    1.9961646  
H    1.0518368    0.8833920    4.3830260  
