58

C    6.5597220   -0.0008210    1.3835020  
C    7.6114516   -0.0009113    0.5244669  
C    7.0637930   -0.0009871   -0.8115368  
C    5.5962691   -0.0009037   -0.6593385  
N    5.3559137   -0.0012037    0.6953271  
C    4.7161325   -0.0005435   -1.6923264  
C    5.2498347   -0.0004422   -3.0442503  
O    4.5392139   -0.0001860   -4.0409037  
C    6.8008624   -0.0007797   -3.2289601  
O    7.2618442   -0.0010045   -4.3624314  
C    7.6474458   -0.0008762   -2.0385198  
H    8.6521330   -0.0011060    0.7957480  
H    8.7203338   -0.0009048   -2.1750269  
H    4.4461411    0.0003272    1.1188348  
C    9.8478252   -0.0006491    4.2941236  
C    9.1284053   -0.0006254    5.4458656  
C    7.7339623   -0.0004678    5.0712119  
C    7.6997187   -0.0004304    3.5962143  
N    9.0132141   -0.0001459    3.1868005  
C    6.5639046   -0.0006886    2.8534960  
C    5.2901545   -0.0007996    3.5535641  
O    4.2117794   -0.0009690    2.9744199  
C    5.3026858   -0.0005890    5.1155019  
O    4.2364626   -0.0003735    5.7158594  
C    6.5904585   -0.0005960    5.8050625  
H    9.5288673   -0.0005265    6.4439851  
H    6.5904585   -0.0006550    6.8866004  
H   10.9174981   -0.0007750    4.1611169  
H    9.3185067   -0.0016108    2.2308502  
C    3.2573665   -0.0002920   -1.5109385  
C    2.5379463   -0.0001709   -0.3591964  
C    1.1435038    0.0000331   -0.7338500  
C    1.1092599   -0.0000083   -2.2088477  
N    2.4227553    0.0001909   -2.6182613  
C   -0.0265539   -0.0002524   -2.9515660  
C   -1.3003040   -0.0002640   -2.2514977  
O   -2.3786790   -0.0004133   -2.8306421  
C   -1.2877727    0.0000311   -0.6895603  
O   -2.3539959    0.0003306   -0.0892030  
C    0.0000000    0.0000000    0.0000000  
H    2.9384091   -0.0000367    0.6389234  
H   -0.0296303   -0.0004086   -4.0327229  
H    2.7280482   -0.0013407   -3.5742119  
C    2.5128556    2.1077716    2.9199648  
C    1.9592212    1.6432552    4.0696553  
C    0.8915788    0.7479214    3.6910360  
C    0.8684491    0.7287414    2.2159470  
N    1.8754542    1.5738793    1.8102719  
C    0.0000000    0.0000000    1.4700000  
C   -0.9772830   -0.8200135    2.1664417  
O   -1.8021297   -1.5120829    1.5842315  
C   -0.9711318   -0.8147624    3.7284083  
O   -1.7894187   -1.5009653    4.3257297  
C    0.0140216    0.0115358    4.4216297  
H    2.2638494    1.8988021    5.0689105  
H    0.0117648    0.0094386    5.5031631  
H    3.3327358    2.7953732    2.7900019  
H    2.1123206    1.7707734    0.8551938  
