60

C    1.1188639    0.0008263   -0.8003808  
C    0.0000000    0.0000000    0.0000000  
C   -1.1323865    0.0008862   -0.8673522  
C   -0.6382666    0.0019660   -2.1969278  
N    0.7324011    0.0038510   -2.1202243  
C   -1.4770923    0.0027271   -3.3154802  
C   -2.8395484    0.0020849   -3.0876850  
O   -3.7039207    0.0024300   -4.1440337  
C   -3.3517873    0.0013817   -1.7684321  
O   -4.7300503    0.0012205   -1.7073108  
C   -2.5248544    0.0009039   -0.6644812  
H   -1.1067583    0.0036956   -4.3313805  
H   -4.5940043    0.0021674   -3.7685115  
H   -4.9934608    0.0007093   -0.7819901  
H   -2.9462577    0.0005502    0.3339664  
H    2.1619893    0.0009431   -0.5342073  
C    2.8040010   -0.7159316   -3.3653712  
C    1.6478424   -0.0100038   -3.2703003  
C    1.4957339    0.7174325   -4.5082562  
C    2.6664261    0.3749593   -5.3383053  
N    3.4207000   -0.4973303   -4.5879241  
C    2.8929060    0.8596084   -6.5855127  
C    1.9187379    1.7801327   -7.1477993  
O    2.0328387    2.2713110   -8.2631580  
C    0.6714693    2.1569302   -6.2863174  
O   -0.1553226    2.9312425   -6.7490450  
C    0.5367433    1.5697119   -4.9555752  
H    3.7580930    0.5955406   -7.1776530  
H   -0.3298251    1.8355600   -4.3655685  
H    3.2575108   -1.3773045   -2.6450906  
C    5.0668726   -2.4182691   -4.7840694  
C    6.2928217   -2.6724068   -5.3099381  
C    6.7460957   -1.4502483   -5.9309909  
C    5.6760672   -0.4561233   -5.7223148  
N    4.6866492   -1.1060451   -5.0212133  
C    5.7227058    0.8272663   -6.1609949  
C    6.9056338    1.2581507   -6.8873251  
O    7.0428276    2.3937319   -7.3231393  
C    8.0510435    0.2219661   -7.1200572  
O    9.0516928    0.5731248   -7.7305067  
C    7.8857924   -1.1327195   -6.5991248  
H    6.8194225   -3.6091711   -5.2677672  
H    4.9269155    1.5405719   -5.9972193  
H    8.6835409   -1.8440800   -6.7643205  
H    4.4090895   -3.0792642   -4.2434253  
C    0.8681109    0.7263879    2.2709268  
C    0.6127770    0.5096195    3.5869401  
C   -0.4920590   -0.4175482    3.6542670  
C   -0.8620974   -0.7254003    2.2596025  
N    0.0000000    0.0000000    1.4700000  
C   -1.8641242   -1.5660088    1.8976294  
C   -2.6293522   -2.2103885    2.9520183  
O   -3.5512764   -2.9839180    2.7283916  
C   -2.2549728   -1.8987399    4.4361073  
O   -2.8923672   -2.4351063    5.3323774  
C   -1.1543735   -0.9755647    4.7012123  
H    1.1382914    0.9492124    4.4159191  
H   -2.1192137   -1.7782617    0.8686553  
H   -0.9013378   -0.7652422    5.7314848  
H    1.6172880    1.3558399    1.8188057  
