62

C    1.1243397    0.0100937   -0.7919009  
C    0.7474045    0.0235218   -2.1148549  
C   -0.6787417    0.0233877   -2.1414696  
C   -1.1201757    0.0097582   -0.7935545  
N    0.0000000    0.0000000    0.0000000  
C   -2.4730825    0.0061478   -0.4408231  
C   -3.3971981    0.0167918   -1.4675049  
O   -4.7313537    0.0141995   -1.1793454  
C   -2.9763690    0.0300823   -2.8186313  
O   -4.0166530    0.0391497   -3.7247607  
C   -1.6418606    0.0333780   -3.1673476  
H   -2.8160158   -0.0043650    0.5845975  
H   -5.1938846    0.0226184   -2.0274359  
H   -3.6464738    0.0479005   -4.6127329  
H   -1.3497530    0.0434651   -4.2109229  
H    2.1062456    0.0054718   -0.3505416  
C    4.4934821   -2.1123067   -2.7414620  
C    4.8572484   -1.6933781   -3.9758655  
C    3.8033888   -0.7786837   -4.3872213  
C    2.8586651   -0.7628154   -3.2497550  
N    3.2579484   -1.5426072   -2.2820324  
C    1.6628904    0.0340401   -3.2649308  
C    1.4220460    0.7813811   -4.3662071  
O    0.3454885    1.5716640   -4.5162632  
C    2.3564972    0.7869632   -5.5302220  
O    2.0739375    1.4911325   -6.4995139  
C    3.5764129   -0.0389641   -5.4905469  
H    0.4527831    1.9720528   -5.3979261  
H    4.2275831   -0.0070812   -6.3537916  
H    5.0129474   -2.8005988   -2.0938643  
C    6.9256496   -5.5697108   -4.4804865  
C    7.9252634   -5.1280506   -5.3160553  
C    7.7120213   -3.7323523   -5.5189211  
C    6.5579227   -3.3752813   -4.7756293  
N    6.1042543   -4.5146687   -4.1587024  
C    6.0525417   -2.0720835   -4.7431706  
C    6.7246325   -1.1117923   -5.4741373  
O    6.2743565    0.1767168   -5.4773118  
C    7.8777051   -1.4486157   -6.2223280  
O    8.4337680   -0.3814857   -6.8971407  
C    8.3766819   -2.7341034   -6.2550253  
H    8.7107973   -5.7371536   -5.7294840  
H    5.3045738   -4.5681028   -3.5540229  
H    6.8787573    0.6757711   -6.0420317  
H    9.2069694   -0.6943628   -7.3765889  
H    9.2617711   -2.9620992   -6.8373608  
H    6.7327734   -6.5541266   -4.0897391  
C    2.4951002    2.0940188    2.9809380  
C    1.9440701    1.6314916    1.8291961  
C    0.8759964    0.7350050    2.2038498  
C    0.8497377    0.7130254    3.6788474  
N    1.8560616    1.5571714    4.0882609  
C   -0.0205033   -0.0168748    4.4215661  
C   -0.9962600   -0.8356168    3.7214979  
O   -1.8224391   -1.5286685    4.3006425  
C   -0.9864710   -0.8277881    2.1595606  
O   -1.8030528   -1.5133726    1.5592035  
C    0.0000000    0.0000000    1.4700000  
H    2.2509283    1.8888011    0.8310761  
H   -0.0229599   -0.0187323    5.5027230  
H    3.3143982    2.7817323    3.1139444  
H    2.0889452    1.7545833    5.0442112  
