64

C   -3.3003052   -0.0181119   -1.4738981  
C   -2.5232446   -0.0137938   -2.6090742  
C   -1.1623048   -0.0060610   -2.1820099  
C   -1.1711718   -0.0062984   -0.7636137  
N   -2.4852033   -0.0117494   -0.3662354  
C    0.0000000    0.0000000    0.0000000  
C    1.2020214    0.0063524   -0.6806483  
O    2.3758923    0.0123094    0.0157739  
C    1.2314447    0.0070724   -2.0955512  
O    2.5053979    0.0141525   -2.6250185  
C    0.0764461    0.0011344   -2.8495195  
H   -2.8919579   -0.0148467   -3.6205295  
H   -2.8035398   -0.0237557    0.5858669  
H    3.0835204    0.0163944   -0.6418824  
H    2.4359635    0.0141316   -3.5845927  
H    0.1303997    0.0020368   -3.9319086  
C   -5.6629584   -0.0137331   -2.3673672  
C   -6.9418435   -0.0093497   -1.8605132  
C   -6.8262921   -0.0174841   -0.4388305  
C   -5.4410659   -0.0264479   -0.1338823  
N   -4.7629806   -0.0258531   -1.3275394  
C   -4.9553363   -0.0356572    1.1771366  
C   -5.8849175   -0.0355135    2.1989277  
O   -5.4653102   -0.0439417    3.4977239  
C   -7.2712853   -0.0270192    1.9148001  
O   -8.0693385   -0.0284574    3.0401683  
C   -7.7511865   -0.0182049    0.6216858  
H   -3.9008221   -0.0426599    1.4162029  
H   -6.2631504   -0.0425382    4.0424377  
H   -8.9897941   -0.0223428    2.7602972  
H   -8.8187010   -0.0120036    0.4349971  
H   -5.3215670   -0.0106188   -3.3883476  
C   -8.0562755   -2.1076366   -5.5906761  
C   -9.3306471   -1.6018082   -5.7028423  
C   -9.5325966   -0.7316544   -4.5907949  
C   -8.3366801   -0.7463727   -3.8282381  
N   -7.4618132   -1.5933103   -4.4622114  
C   -8.1774138    0.0001577   -2.6568652  
C   -9.2447548    0.7759092   -2.2480020  
O   -9.1429514    1.5248784   -1.1114750  
C  -10.4463378    0.8035108   -2.9951666  
O  -11.4163680    1.6241788   -2.4576822  
C  -10.6042582    0.0670862   -4.1507041  
H  -10.0292041   -1.8325577   -6.4888232  
H   -6.5267369   -1.7958657   -4.1579336  
H   -9.9873972    1.9829598   -1.0097967  
H  -12.1944280    1.5855635   -3.0222496  
H  -11.5364797    0.1082382   -4.7018366  
H   -7.5248450   -2.7957140   -6.2255699  
C    2.5128556    2.1077716    2.9199648  
C    1.9592212    1.6432552    4.0696553  
C    0.8915788    0.7479214    3.6910360  
C    0.8684491    0.7287414    2.2159470  
N    1.8754542    1.5738793    1.8102719  
C    0.0000000    0.0000000    1.4700000  
C   -0.9772830   -0.8200135    2.1664417  
O   -1.8021297   -1.5120829    1.5842315  
C   -0.9711318   -0.8147624    3.7284083  
O   -1.7894187   -1.5009653    4.3257297  
C    0.0140216    0.0115358    4.4216297  
H    2.2638494    1.8988021    5.0689105  
H    0.0117648    0.0094386    5.5031631  
H    3.3327358    2.7953732    2.7900019  
H    2.1123206    1.7707734    0.8551938  
