58

C    4.0802276   -2.0882637    3.2621949  
C    4.9937796   -1.6267400    2.3697300  
C    5.8691407   -0.7311143    3.0883627  
C    5.3872433   -0.7085464    4.4826565  
N    4.3006463   -1.5515642    4.5216028  
C    5.9502223    0.0208343    5.4790316  
C    7.1079099    0.8383566    5.1566144  
O    7.6856475    1.5308626    5.9842353  
C    7.6351481    0.8298875    3.6863243  
O    8.6089598    1.5144452    3.4028934  
C    6.9446511    0.0027517    2.6999616  
H    5.0481203   -1.8841724    1.3269503  
H    5.5812130    0.0231392    6.4952680  
H    3.2643727   -2.7751421    3.1057698  
H    3.7534065   -1.7483568    5.3394350  
C    4.7795901    0.0008674   -1.0815733  
C    5.7862015    0.0008770   -1.9861793  
C    7.0047289    0.0013409   -1.1913895  
C    6.5351378    0.0016825    0.2107760  
N    5.2316823    0.0013264    0.2814340  
C    7.4495164    0.0021404    1.3193780  
C    8.7728604    0.0018632    1.0399218  
O    9.7375503    0.0022374    1.9755576  
C    9.2780074    0.0011447   -0.3647085  
O   10.4956959    0.0010500   -0.5448630  
C    8.3200394    0.0007288   -1.4846285  
H    5.7111080    0.0005128   -3.0601606  
H   10.5714816    0.0018715    1.4718618  
H    8.7261888    0.0000952   -2.4872616  
C    3.3321168    0.0004716   -1.3379341  
C    2.6974177    0.0000118   -2.5332316  
C    1.2800432   -0.0002116   -2.2052842  
C    1.2395033    0.0000644   -0.7271298  
N    2.4394059    0.0005460   -0.2131041  
C    0.0000000    0.0000000    0.0000000  
C   -1.1468704    0.0000635   -0.7169542  
O   -2.3742206    0.0000074   -0.1695488  
C   -1.1388774    0.0001608   -2.2096352  
O   -2.2206238    0.0000906   -2.7970409  
C    0.1454514    0.0001818   -2.9324241  
H    3.1367978   -0.0000649   -3.5160956  
H   -2.9844350    0.0001027   -0.9290164  
H    0.1083567    0.0003684   -4.0135594  
C    2.5528530    2.1414826    2.8079335  
C    2.0663498    1.7338582    4.0032312  
C    0.9804344    0.8229586    3.6752840  
C    0.9495562    0.7966882    2.1971295  
N    1.8690446    1.5676019    1.6831036  
C    0.0000000    0.0000000    1.4700000  
C   -0.8785127   -0.7372425    2.1869543  
O   -1.8187535   -1.5261249    1.6395491  
C   -0.8723269   -0.7321790    3.6796354  
O   -1.7010379   -1.4274584    4.2670412  
C    0.1115397    0.0933559    4.4024240  
H    2.4028853    2.0163452    4.9860947  
H   -2.2861435   -1.9184361    2.3990168  
H    0.0832434    0.0693689    5.4835595  
H    3.3664920    2.8238276    2.6198634  
