60

C    1.1188648    0.0008219   -0.8003803  
C    0.0000000    0.0000000    0.0000000  
C   -1.1323859    0.0008905   -0.8673531  
C   -0.6382653    0.0019685   -2.1969280  
N    0.7324026    0.0038483   -2.1202236  
C   -1.4770902    0.0027330   -3.3154810  
C   -2.8395463    0.0020962   -3.0876863  
O   -3.7039186    0.0024449   -4.1440360  
C   -3.3517862    0.0013949   -1.7684340  
O   -4.7300486    0.0012388   -1.7073134  
C   -2.5248542    0.0009135   -0.6644822  
H    1.3576326   -0.0056167   -2.9057036  
H   -4.5940017    0.0021852   -3.7685142  
H   -4.9934593    0.0007283   -0.7819930  
H   -2.9462580    0.0005616    0.3339644  
H    2.1619896    0.0009347   -0.5342064  
C    1.8844591   -2.1024764   -5.2000019  
C    1.7579335   -1.6369210   -6.4693814  
C    0.6249295   -0.7419050   -6.4785607  
C    0.0979881   -0.7240436   -5.1005897  
N    0.9053934   -1.5695639   -4.3752747  
C   -0.9736279    0.0040475   -4.6965766  
C   -1.6535166    0.8247030   -5.6849142  
O   -2.6280780    1.5162674   -5.4198324  
C   -1.1127759    0.8208485   -7.1503118  
O   -1.6771933    1.5076014   -7.9911827  
C    0.0504565   -0.0048491   -7.4649008  
H    2.3864479   -1.8915802   -7.3040861  
H    0.4187514   -0.0017845   -8.4817951  
H    0.8008852   -1.7673167   -3.3970014  
C    5.2832105   -4.2528709   -7.0222871  
C    4.2002389   -3.4631945   -6.8039788  
C    3.8570241   -3.5959217   -5.4077616  
C    4.8358504   -4.5343611   -4.8263655  
N    5.6723336   -4.8960174   -5.8570890  
C    4.8512348   -4.9213264   -3.5257022  
C    3.8358515   -4.3774037   -2.6393162  
O    3.7655364   -4.6644627   -1.4514805  
C    2.7890462   -3.3820311   -3.2336543  
O    1.9292450   -2.9178099   -2.4971076  
C    2.8745163   -3.0403734   -4.6513346  
H    3.6989123   -2.8570474   -7.5373756  
H    5.5781839   -5.6107774   -3.1193616  
H    5.8296507   -4.4192619   -7.9364028  
H    6.4474577   -5.5280738   -5.7750250  
C    2.4951002    2.0940188    2.9809380  
C    1.9440701    1.6314916    1.8291961  
C    0.8759964    0.7350050    2.2038498  
C    0.8497377    0.7130254    3.6788474  
N    1.8560616    1.5571714    4.0882609  
C   -0.0205033   -0.0168748    4.4215661  
C   -0.9962600   -0.8356168    3.7214979  
O   -1.8224391   -1.5286685    4.3006425  
C   -0.9864710   -0.8277881    2.1595606  
O   -1.8030528   -1.5133726    1.5592035  
C    0.0000000    0.0000000    1.4700000  
H    2.2509283    1.8888011    0.8310761  
H   -0.0229599   -0.0187323    5.5027230  
H    3.3143982    2.7817323    3.1139444  
H    2.0889452    1.7545833    5.0442112  
