58

C    2.8497505   -0.7283608   -3.3359964  
C    3.4914347   -0.5134529   -4.5133372  
C    2.6832183    0.4131987   -5.2702641  
C    1.5096744    0.7227757   -4.4313672  
N    1.6707645   -0.0012351   -3.2725971  
C    0.5071672    1.5634827   -4.7917776  
C    0.5893852    2.2061555   -6.0928339  
O   -0.2632806    2.9796294   -6.5087679  
C    1.8232414    1.8926640   -6.9978898  
O    1.9032044    2.4275843   -8.0954898  
C    2.8399733    0.9695582   -6.4999101  
H   -0.3448590    1.7770150   -4.1614087  
H    3.6912445    0.7579535   -7.1325907  
H    3.1388492   -1.3569186   -2.5094211  
C    1.0965515    0.0001357   -0.8010303  
C    0.0000000    0.0000000    0.0000000  
C   -1.1546560    0.0001466   -0.8669515  
C   -0.6372014    0.0003513   -2.2486280  
N    0.7342874    0.0007332   -2.1395011  
C   -1.4147736    0.0001344   -3.3608717  
C   -2.8576045   -0.0001056   -3.1854464  
O   -3.6427775   -0.0002505   -4.1244904  
C   -3.4275838   -0.0000734   -1.7311669  
O   -4.6406825    0.0000325   -1.5710062  
C   -2.4891865   -0.0001094   -0.6116745  
H   -1.0150446    0.0001604   -4.3654245  
H   -2.8919121   -0.0002923    0.3920864  
H    2.1388272    0.0000662   -0.5261646  
C    5.1533909   -2.3995780   -4.7144298  
C    4.7666285   -1.1155540   -4.9283741  
C    5.8432496   -0.4639916   -5.6363210  
C    6.8964855   -1.4809739   -5.8186152  
N    6.4165400   -2.6318258   -5.2371671  
C    8.0797696   -1.2587178   -6.4448306  
C    8.3329799    0.0709186   -6.9744414  
O    9.3681826    0.3707615   -7.5547427  
C    7.2316207    1.1634924   -6.7925165  
O    7.4336526    2.2866907   -7.2339564  
C    5.9967478    0.8039312   -6.0999448  
H    8.8388705   -2.0186486   -6.5680413  
H    5.2391114    1.5661079   -5.9782964  
H    4.6220054   -3.1956606   -4.2186761  
H    6.9073391   -3.5063534   -5.2002166  
C    0.8400945    0.7047457    2.2710304  
C    0.0000000    0.0000000    1.4700000  
C   -0.8844236   -0.7423113    2.3369512  
C   -0.4878984   -0.4098547    3.7186280  
N    0.5629682    0.4714286    3.6095011  
C   -1.0836927   -0.9095027    4.8308716  
C   -2.1891196   -1.8367527    4.6554461  
O   -2.7906899   -2.3413415    5.5944904  
C   -2.6257283   -2.2031529    3.2011665  
O   -3.5549479   -2.9829990    3.0410059  
C   -1.9068976   -1.5999348    2.0816745  
H   -0.7774656   -0.6525820    5.8354244  
H   -2.2155208   -1.8586617    1.0779135  
H    1.6384792    1.3747609    1.9961646  
H    1.0518368    0.8833920    4.3830260  
