60

C    0.0000000    0.0000000    0.0000000  
C    1.0521665   -0.0011901   -0.8862342  
C    0.4917217   -0.0011956   -2.1979130  
C   -0.9187428    0.0003148   -2.0478683  
N   -1.1833173   -0.0009411   -0.7007911  
C   -1.7951703    0.0010349   -3.1372088  
C   -1.2375840    0.0005224   -4.4010424  
O   -2.0474220    0.0015359   -5.4997576  
C    0.1673578   -0.0013566   -4.5711965  
O    0.5673521   -0.0020688   -5.8915549  
C    1.0325768   -0.0023412   -3.4969890  
H    2.0953059   -0.0030648   -0.6200563  
H   -2.0989774    0.0102371   -0.2891826  
H   -1.4634888    0.0006496   -6.2693593  
H    1.5290706   -0.0033152   -5.9180048  
C    3.4024819   -0.7096509   -3.0037684  
C    2.4861699   -0.0045381   -3.7159922  
C    3.2126683    0.7356038   -4.7205944  
C    4.6375569    0.4014741   -4.5339408  
N    4.6850371   -0.4786080   -3.4774888  
C    5.6492882    0.8988713   -5.2893883  
C    5.3123646    1.8252912   -6.3574540  
O    6.1519756    2.3278822   -7.0928154  
C    3.8097566    2.1934334   -6.5729676  
O    3.5139835    2.9726009   -7.4688899  
C    2.8090505    1.5925986   -5.6946531  
H    6.6879099    0.6407517   -5.1359313  
H    1.7708571    1.8525206   -5.8505993  
H    3.2487385   -1.3784666   -2.1725414  
H    5.5222133   -0.8912444   -3.1088239  
C   -4.4484711    2.1113800   -0.3461917  
C   -5.6480035    1.6479662   -0.7825913  
C   -5.3783988    0.7523418   -1.8825937  
C   -3.9129605    0.7317895   -2.0524732  
N   -3.4082523    1.5764911   -1.0908920  
C   -3.2578657    0.0024038   -2.9908504  
C   -4.0489129   -0.8169045   -3.8939084  
O   -3.5523656   -1.5094683   -4.7725987  
C   -5.6025002   -0.8101993   -3.7322731  
O   -6.2789648   -1.4957986   -4.4869983  
C   -6.1934212    0.0166873   -2.6830241  
H   -6.6117251    1.9044259   -0.3799964  
H   -7.2698069    0.0155974   -2.5775883  
H   -4.2368828    2.7988130    0.4566509  
H   -2.4341534    1.7724822   -0.9503004  
C    0.0000000    0.0000000    1.4700000  
C    1.0662921    0.0000102    2.3034270  
C    0.4961870   -0.0000064    3.6418889  
C   -0.9663858    0.0000850    3.4240247  
N   -1.2632773    0.0000084    2.1528658  
C   -1.8985362    0.0000517    4.5177257  
C   -1.3925775   -0.0004564    5.7720543  
O   -2.1456383   -0.0005410    6.8851312  
C    0.0786232   -0.0009323    6.0245000  
O    0.4683759   -0.0012588    7.1921102  
C    1.0143166   -0.0008442    4.8859032  
H    2.1107198   -0.0000632    2.0421868  
H   -2.9622183    0.0003270    4.3293377  
H   -1.5042274   -0.0009692    7.6184419  
H    2.0724152   -0.0013148    5.1109744  
