58

C    4.3047788   -2.1086500   -1.2859243  
C    5.3774559   -1.6442162   -1.9771117  
C    4.8701585   -0.7486138   -2.9897228  
C    3.4034918   -0.7291862   -2.8306572  
N    3.1250159   -1.5744517   -1.7814350  
C    2.5562217   -0.0001543   -3.6003001  
C    3.1269051    0.8199333   -4.6559103  
O    2.4474939    1.5122577   -5.4024942  
C    4.6776928    0.8144233   -4.8425425  
O    5.1696074    1.5006857   -5.7281637  
C    5.4870227   -0.0121793   -3.9505978  
H    6.4066157   -1.8999864   -1.7981563  
H    6.5600124   -0.0102599   -4.0862903  
H    2.2064273   -1.7712342   -1.4285628  
C    4.2666879   -3.0465534   -0.1546479  
C    5.2950278   -3.6742127    0.4719585  
C    4.7183923   -4.4856053    1.5178875  
C    3.2593504   -4.2777384    1.4487522  
N    3.0511048   -3.3946604    0.4144913  
C    2.3583239   -4.8709477    2.2721346  
C    2.8590006   -5.7742679    3.2948134  
O    2.1277618   -6.3570006    4.0847577  
C    4.4005326   -6.0089960    3.3863933  
O    4.8338041   -6.7671352    4.2435762  
C    5.2717332   -5.3129514    2.4427922  
H    6.3384603   -3.5794589    0.2292951  
H    1.2921275   -4.7049429    2.2044791  
H    6.3378357   -5.4810545    2.5127336  
H    2.1540720   -3.0568250    0.1174278  
C    0.0000000    0.0000000    0.0000000  
C    1.0541688   -0.0001719   -0.8560391  
C    0.5103141   -0.0000449   -2.1935955  
C   -0.9576367    0.0002461   -2.0455733  
N   -1.2018459   -0.0001392   -0.6915970  
C   -1.8348306    0.0008319   -3.0810611  
C   -1.2972842    0.0009739   -4.4314605  
O   -2.0050664    0.0014267   -5.4301321  
C    0.2542628    0.0004190   -4.6117571  
O    0.7184677    0.0002263   -5.7439119  
C    1.0974556    0.0000880   -3.4189127  
H    2.0940752   -0.0005479   -0.5817978  
H   -2.9081050    0.0011669   -2.9507065  
H   -2.1128195    0.0014911   -0.2706793  
C    3.2573670    0.0002920    2.9809380  
C    2.5379467    0.0001709    1.8291961  
C    1.1435042   -0.0000331    2.2038498  
C    1.1092607    0.0000083    3.6788474  
N    2.4227561   -0.0001909    4.0882609  
C   -0.0265533    0.0002524    4.4215661  
C   -1.3003036    0.0002640    3.7214979  
O   -2.3786784    0.0004133    4.3006425  
C   -1.2877726   -0.0000311    2.1595606  
O   -2.3539958   -0.0003306    1.5592035  
C    0.0000000    0.0000000    1.4700000  
H    2.9384090    0.0000368    0.8310761  
H   -0.0296291    0.0004086    5.5027230  
H    4.3270393    0.0004765    3.1139444  
H    2.7280493    0.0013407    5.0442112  
