58

C   10.0698859    0.7287699   -0.9931109  
C   11.3198978    0.5126876   -0.5084921  
C   11.1906737   -0.4138427    0.5913617  
C    9.7526045   -0.7220686    0.7086056  
N    9.1280325    0.0025291   -0.2802107  
C    9.2190665   -1.5622741    1.6311536  
C   10.1213742   -2.2057949    2.5715027  
O    9.7381645   -2.9789084    3.4396886  
C   11.6482205   -1.8937379    2.4658296  
O   12.4175296   -2.4293811    3.2522829  
C   12.1038658   -0.9710601    1.4290534  
H   12.2287409    0.9523341   -0.8790699  
H    8.1612396   -1.7748126    1.7000073  
H   13.1626066   -0.7604503    1.3624524  
H    9.7574756    1.3576214   -1.8109346  
C    6.8354432    0.0008786   -4.0255230  
C    5.5758875    0.0005992   -3.5179857  
C    5.7016160    0.0007904   -2.0795742  
C    7.1480384    0.0012362   -1.7886234  
N    7.7802455    0.0008701   -3.0105904  
C    7.6812949    0.0019200   -0.5406883  
C    6.7698186    0.0020121    0.5914541  
O    7.1520256    0.0025450    1.7543038  
C    5.2340027    0.0012938    0.3067212  
O    4.4569015    0.0010577    1.2519061  
C    4.7795901    0.0008674   -1.0815733  
H    4.6629017    0.0001119   -4.0863788  
H    7.1529573    0.0008730   -5.0556079  
H    8.7747879    0.0025945   -3.1444929  
C    3.3321168    0.0004716   -1.3379341  
C    2.6974177    0.0000118   -2.5332316  
C    1.2800432   -0.0002116   -2.2052842  
C    1.2395033    0.0000644   -0.7271298  
N    2.4394059    0.0005460   -0.2131041  
C    0.0000000    0.0000000    0.0000000  
C   -1.1468704    0.0000635   -0.7169542  
O   -2.3742206    0.0000074   -0.1695488  
C   -1.1388774    0.0001608   -2.2096352  
O   -2.2206238    0.0000906   -2.7970409  
C    0.1454514    0.0001818   -2.9324241  
H    3.1367978   -0.0000649   -3.5160956  
H   -2.9844350    0.0001027   -0.9290164  
H    0.1083567    0.0003684   -4.0135594  
C    0.0000000    0.0000000    1.4700000  
C    1.0662921    0.0000102    2.3034270  
C    0.4961870   -0.0000064    3.6418889  
C   -0.9663858    0.0000850    3.4240247  
N   -1.2632773    0.0000084    2.1528658  
C   -1.8985362    0.0000517    4.5177257  
C   -1.3925775   -0.0004564    5.7720543  
O   -2.1456383   -0.0005410    6.8851312  
C    0.0786232   -0.0009323    6.0245000  
O    0.4683759   -0.0012588    7.1921102  
C    1.0143166   -0.0008442    4.8859032  
H    2.1107198   -0.0000632    2.0421868  
H   -2.9622183    0.0003270    4.3293377  
H   -1.5042274   -0.0009692    7.6184419  
H    2.0724152   -0.0013148    5.1109744  
