58

C    7.6493683   -4.3188424   -0.9840072  
C    6.9458202   -3.4991133   -1.8068919  
C    7.5865647   -3.5497025   -3.0998433  
C    8.7292515   -4.4727390   -2.9617850  
N    8.7120420   -4.9041674   -1.6554679  
C    9.5873284   -4.7894126   -3.9643452  
C    9.3711295   -4.1803334   -5.2661965  
O   10.0889743   -4.4016855   -6.2326342  
C    8.1672371   -3.1995521   -5.4350695  
O    7.9754127   -2.6804482   -6.5263968  
C    7.3114481   -2.9366623   -4.2807876  
H    6.0772405   -2.9244351   -1.5386989  
H   10.4192629   -5.4690041   -3.8420760  
H    7.4810652   -4.5444245    0.0565105  
H    9.3689349   -5.5469556   -1.2525277  
C    6.1812375   -2.0122607   -4.4510957  
C    5.2702188   -1.6303464   -3.5260198  
C    4.3856204   -0.7126512   -4.2273193  
C    4.9238573   -0.6545505   -5.6033678  
N    5.9763887   -1.4143802   -5.7405728  
C    4.3191911    0.1574940   -6.6231955  
C    3.2262696    0.8784133   -6.2838834  
O    2.5612872    1.6787216   -7.1343811  
C    2.6590324    0.8406139   -4.9036757  
O    1.6623426    1.5226358   -4.6656076  
C    3.2973506   -0.0000934   -3.8752374  
H    5.2063280   -1.9339561   -2.4950908  
H    4.7337770    0.1810798   -7.6204273  
H    1.8346683    2.0540003   -6.6049059  
C    3.3321174    0.0004714   -1.3379332  
C    2.6974186    0.0000115   -2.5332308  
C    1.2800441   -0.0002119   -2.2052838  
C    1.2395035    0.0000643   -0.7271293  
N    2.4394063    0.0005458   -0.2131034  
C    0.0000000    0.0000000    0.0000000  
C   -1.1468701    0.0000634   -0.7169542  
O   -2.3742201    0.0000072   -0.1695492  
C   -1.1388767    0.0001606   -2.2096354  
O   -2.2206229    0.0000903   -2.7970413  
C    0.1454526    0.0001815   -2.9324239  
H   -2.9844344    0.0001023   -0.9290168  
H    0.1083580    0.0003680   -4.0135594  
H    4.3940040    0.0007617   -1.1498630  
C    2.4951002    2.0940188    2.9809380  
C    1.9440701    1.6314916    1.8291961  
C    0.8759964    0.7350050    2.2038498  
C    0.8497377    0.7130254    3.6788474  
N    1.8560616    1.5571714    4.0882609  
C   -0.0205033   -0.0168748    4.4215661  
C   -0.9962600   -0.8356168    3.7214979  
O   -1.8224391   -1.5286685    4.3006425  
C   -0.9864710   -0.8277881    2.1595606  
O   -1.8030528   -1.5133726    1.5592035  
C    0.0000000    0.0000000    1.4700000  
H    2.2509283    1.8888011    0.8310761  
H   -0.0229599   -0.0187323    5.5027230  
H    3.3143982    2.7817323    3.1139444  
H    2.0889452    1.7545833    5.0442112  
