58

C    2.3329750   -1.9917716   -8.4465178  
C    3.3117754   -2.8241041   -8.8861168  
C    3.2537459   -2.8172202  -10.3288295  
C    2.1530306   -1.9060943  -10.6963431  
N    1.6357161   -1.4391351   -9.5100782  
C    1.7778710   -1.6282550  -11.9706142  
C    2.5066923   -2.2695502  -13.0523250  
O    2.2449603   -2.0841362  -14.2336022  
C    3.6759211   -3.2384146  -12.6862504  
O    4.2965606   -3.7843795  -13.5884637  
C    3.9870792   -3.4584025  -11.2760592  
H    3.9961939   -3.3796467   -8.2700345  
H    0.9676162   -0.9567472  -12.2185547  
H    4.7982119   -4.1305252  -11.0310316  
H    0.8709134   -0.7944516   -9.4294088  
C    2.5563882   -2.1074458   -5.9371929  
C    1.9637245   -1.6426518   -7.0671445  
C    0.9098263   -0.7472304   -6.6519876  
C    0.9372953   -0.7283017   -5.1769702  
N    1.9574935   -1.5736538   -4.8062060  
C    0.0950446    0.0004351   -4.4015596  
C   -0.9054233    0.8207086   -5.0639424  
O   -1.7097172    1.5127953   -4.4536737  
C   -0.9528377    0.8157262   -6.6252025  
O   -1.7910237    1.5021489   -7.1939980  
C    0.0078422   -0.0105932   -7.3519361  
H   -0.0314997   -0.0083091   -8.4327557  
H    3.3801400   -2.7951867   -5.8355365  
H    2.2269416   -1.7707466   -3.8598449  
C    3.3321173    0.0004713   -1.3379338  
C    2.6974181    0.0000116   -2.5332314  
C    1.2800438   -0.0002119   -2.2052841  
C    1.2395034    0.0000643   -0.7271299  
N    2.4394062    0.0005460   -0.2131038  
C    0.0000000    0.0000000    0.0000000  
C   -1.1468702    0.0000634   -0.7169543  
O   -2.3742203    0.0000074   -0.1695487  
C   -1.1388770    0.0001607   -2.2096355  
O   -2.2206234    0.0000905   -2.7970411  
C    0.1454522    0.0001815   -2.9324241  
H    3.1367984   -0.0000653   -3.5160950  
H   -2.9844346    0.0001026   -0.9290167  
H    4.3940038    0.0007618   -1.1498640  
C    0.8400945    0.7047457    2.2710304  
C    0.0000000    0.0000000    1.4700000  
C   -0.8844236   -0.7423113    2.3369512  
C   -0.4878984   -0.4098547    3.7186280  
N    0.5629682    0.4714286    3.6095011  
C   -1.0836927   -0.9095027    4.8308716  
C   -2.1891196   -1.8367527    4.6554461  
O   -2.7906899   -2.3413415    5.5944904  
C   -2.6257283   -2.2031529    3.2011665  
O   -3.5549479   -2.9829990    3.0410059  
C   -1.9068976   -1.5999348    2.0816745  
H   -0.7774656   -0.6525820    5.8354244  
H   -2.2155208   -1.8586617    1.0779135  
H    1.6384792    1.3747609    1.9961646  
H    1.0518368    0.8833920    4.3830260  
