60

C    3.3041271    0.0001182   -1.5420438  
C    2.5845370   -0.0004777   -0.3695864  
C    1.2040005   -0.0000007   -0.7283596  
C    1.1422371    0.0006041   -2.1454376  
N    2.4348638    0.0026114   -2.6077469  
C   -0.0655184    0.0008800   -2.8497924  
C   -1.2321771    0.0002325   -2.1101402  
O   -2.4392820    0.0001148   -2.7472520  
C   -1.1911210   -0.0000007   -0.6955267  
O   -2.4371524   -0.0002321   -0.1032863  
C    0.0000000    0.0000000    0.0000000  
H    3.0031536   -0.0000658    0.6222571  
H    2.7054626   -0.0071095   -3.5745271  
H   -3.1132993   -0.0000649   -2.0551787  
H   -2.3200279   -0.0004073    0.8516405  
H    4.3686618    0.0004077   -1.7024306  
C    2.3446861   -2.1385757   -5.7825625  
C    1.7992117   -1.7303699   -6.9519234  
C    0.7308343   -0.8198480   -6.5697993  
C    0.7735865   -0.7944096   -5.0919260  
N    1.7176437   -1.5654464   -4.6247560  
C   -0.1387088    0.0017021   -4.3179689  
C   -1.0519394    0.7391884   -4.9898751  
O   -1.9638781    1.5275964   -4.3958877  
C   -1.1200801    0.7349607   -6.4810154  
O   -1.9771145    1.4304203   -7.0260370  
C   -0.1732966   -0.0899940   -7.2523616  
H   -2.4685609    1.9202486   -5.1309196  
H   -0.2553905   -0.0654074   -8.3307339  
H    3.1667825   -2.8208802   -5.6356234  
C    2.5610415   -3.3385122   -8.7609604  
C    2.1913895   -2.1152463   -8.3153624  
C    2.2649661   -1.2522540   -9.4842641  
C    2.7077585   -2.1433133  -10.5781254  
N    2.8828638   -3.3675005  -10.1601621  
C    2.9041754   -1.6631694  -11.9182630  
C    2.6685655   -0.3525221  -12.1549619  
O    2.8112327    0.2305138  -13.3573577  
C    2.2204794    0.5720259  -11.0720992  
O    2.0250434    1.7528928  -11.3594648  
C    2.0262009    0.0554272   -9.7056050  
H    3.2284853   -2.3366251  -12.6981285  
H    2.5723302    1.1635129  -13.2104192  
H    1.7007862    0.7573400   -8.9495268  
H    2.6360272   -4.2555102   -8.1984078  
C    0.8681109    0.7263879    2.2709268  
C    0.6127770    0.5096195    3.5869401  
C   -0.4920590   -0.4175482    3.6542670  
C   -0.8620974   -0.7254003    2.2596025  
N    0.0000000    0.0000000    1.4700000  
C   -1.8641242   -1.5660088    1.8976294  
C   -2.6293522   -2.2103885    2.9520183  
O   -3.5512764   -2.9839180    2.7283916  
C   -2.2549728   -1.8987399    4.4361073  
O   -2.8923672   -2.4351063    5.3323774  
C   -1.1543735   -0.9755647    4.7012123  
H    1.1382914    0.9492124    4.4159191  
H   -2.1192137   -1.7782617    0.8686553  
H   -0.9013378   -0.7652422    5.7314848  
H    1.6172880    1.3558399    1.8188057  
