58

C    0.0072365   -0.7172700   -5.1312248  
C    0.1641333   -0.4988117   -6.4622900  
C   -0.8688542    0.4276950   -6.8614858  
C   -1.6459761    0.7333178   -5.6451523  
N   -1.0641729    0.0073888   -4.6315341  
C   -2.7115371    1.5727277   -5.6042187  
C   -3.1204207    2.2180775   -6.8406948  
O   -4.0675155    2.9906594   -6.9072573  
C   -2.3119544    1.9087878   -8.1408974  
O   -2.6470496    2.4459876   -9.1879827  
C   -1.1818733    0.9867416   -8.0596605  
H    0.9174093   -0.9368705   -7.0926027  
H   -3.2678034    1.7833478   -4.7013802  
H    0.5840379   -1.3468501   -4.4733345  
C    1.1319245    0.0015676   -0.8009266  
C    0.7969918    0.0034958   -2.1169401  
C   -0.6453336    0.0035698   -2.1842670  
C   -1.1266830    0.0015411   -0.7896029  
N    0.0000000    0.0000000    0.0000000  
C   -2.4346131    0.0013918   -0.4276298  
C   -3.4350111    0.0031343   -1.4820188  
O   -4.6384610    0.0030885   -1.2583924  
C   -2.9478953    0.0050447   -2.9661079  
O   -3.7809377    0.0062145   -3.8623779  
C   -1.5113819    0.0053060   -3.2312128  
H    1.4821243    0.0045434   -2.9459189  
H   -2.7664570    0.0000181    0.6013443  
H    2.1104314    0.0009432   -0.3488054  
C    0.5426359   -2.7317014   -9.6352834  
C    1.0823802   -2.2583258  -10.7879613  
C    0.7916637   -0.8449425  -10.8396124  
C    0.0328916   -0.5314437   -9.6137355  
N   -0.0845264   -1.7178697   -8.9270796  
C   -0.4279348    0.7030958   -9.2893038  
C   -0.1588222    1.7959505  -10.2089679  
O   -0.5317938    2.9440755  -10.0064775  
C    0.6427835    1.4867659  -11.5134357  
O    0.8751445    2.3987773  -12.2954240  
C    1.0873105    0.1161282  -11.7534361  
H    1.6223732   -2.8336344  -11.5187423  
H    1.6419322   -0.0895708  -12.6588679  
H    0.5500818   -3.7359409   -9.2437002  
H   -0.5518883   -1.8296086   -8.0460946  
C    0.8175213    0.6860729    2.3021913  
C    0.0000000    0.0000000    1.4700000  
C   -0.8887526   -0.7456559    2.3478473  
C   -0.4549825   -0.3816753    3.7138435  
N    0.5448156    0.4573574    3.6934124  
C   -1.0945674   -0.9182058    4.8835240  
C   -2.1210866   -1.7789155    4.6970523  
O   -2.8083856   -2.3554314    5.6976972  
C   -2.5824069   -2.1655116    3.3310774  
O   -3.5227682   -2.9541547    3.2362962  
C   -1.9100805   -1.6015804    2.1470656  
H   -0.7567140   -0.6349833    5.8697035  
H   -3.4728268   -2.9124471    5.2533954  
H   -2.2742832   -1.9066565    1.1752040  
H    1.6189533    1.3585343    2.0405121  
