60

C   -3.3003308   -0.0121629   -1.4739010  
C   -2.5232623   -0.0092455   -2.6090765  
C   -1.1623112   -0.0039658   -2.1820107  
C   -1.1711803   -0.0041874   -0.7636147  
N   -2.4852194   -0.0072698   -0.3662376  
C    0.0000000    0.0000000    0.0000000  
C    1.2020323    0.0041857   -0.6806468  
O    2.3759119    0.0080268    0.0157763  
C    1.2314571    0.0048526   -2.0955500  
O    2.5054229    0.0096365   -2.6250155  
C    0.0764511    0.0009967   -2.8495191  
H   -2.8919764   -0.0096338   -3.6205321  
H   -2.8035780   -0.0187023    0.5858645  
H    3.0835459    0.0108362   -0.6418796  
H    2.4359887    0.0097408   -3.5845903  
H    0.1304072    0.0018018   -3.9319082  
C   -6.4260389   -0.0257183   -4.5098949  
C   -7.5521987   -0.0295144   -3.7593424  
C   -7.0847699   -0.0267801   -2.3816621  
C   -5.6099337   -0.0213189   -2.4884927  
N   -5.2179277   -0.0205921   -3.7336114  
C   -4.7630180   -0.0172677   -1.3275436  
C   -5.3622243   -0.0182221   -0.1149905  
O   -4.6953486   -0.0148023    1.0517597  
C   -6.8482756   -0.0233185    0.0256712  
O   -7.3250620   -0.0240403    1.1605255  
C   -7.6953354   -0.0274557   -1.1803130  
H   -5.3902864   -0.0165612    1.7345560  
H   -8.7673997   -0.0309758   -1.0357616  
H   -6.3446258   -0.0261375   -5.5852301  
C   -9.4310050   -0.7639652   -5.2985083  
C  -10.7612198   -0.5522953   -5.4711335  
C  -11.1768292    0.3739984   -4.4444474  
C   -9.9710535    0.6868938   -3.6538827  
N   -8.9472575   -0.0350493   -4.2226791  
C   -9.9465192    1.5283024   -2.5893949  
C  -11.1907664    2.1682822   -2.1959363  
O  -11.2720256    2.9421359   -1.2510293  
C  -12.4800249    1.8512561   -3.0188041  
O  -13.5335166    2.3838898   -2.6967533  
C  -12.3812501    0.9277009   -4.1462529  
H  -11.3806501   -0.9947143   -6.2308610  
H   -9.0512009    1.7442863   -2.0231206  
H  -13.2784556    0.7136413   -4.7109888  
H   -8.7634371   -1.3912940   -5.8665762  
C    2.4951002    2.0940188    2.9809380  
C    1.9440701    1.6314916    1.8291961  
C    0.8759964    0.7350050    2.2038498  
C    0.8497377    0.7130254    3.6788474  
N    1.8560616    1.5571714    4.0882609  
C   -0.0205033   -0.0168748    4.4215661  
C   -0.9962600   -0.8356168    3.7214979  
O   -1.8224391   -1.5286685    4.3006425  
C   -0.9864710   -0.8277881    2.1595606  
O   -1.8030528   -1.5133726    1.5592035  
C    0.0000000    0.0000000    1.4700000  
H    2.2509283    1.8888011    0.8310761  
H   -0.0229599   -0.0187323    5.5027230  
H    3.3143982    2.7817323    3.1139444  
H    2.0889452    1.7545833    5.0442112  
