58

C    7.6626494   -0.7007999   -5.2817403  
C    7.0548980    0.0018849   -6.2721684  
C    8.0874666    0.7432638   -6.9569992  
C    9.3556999    0.4125062   -6.2795221  
N    9.0293992   -0.4670030   -5.2731019  
C   10.5678192    0.9119079   -6.6303330  
C   10.6272677    1.8370816   -7.7497327  
O   11.6712287    2.3412889   -8.1424420  
C    9.2964156    2.2016597   -8.4816610  
O    9.3339704    2.9797514   -9.4252841  
C    8.0514980    1.5988992   -8.0118605  
H   11.4861448    0.6562539   -6.1202075  
H    7.1344472    1.8563559   -8.5241667  
H    7.2270375   -1.3696057   -4.5572884  
H    9.6836475   -0.8775445   -4.6324290  
C    3.2973507   -0.0000930   -3.8752373  
C    4.6109361    0.0001676   -4.2009255  
C    4.6367195   -0.0000879   -5.6555160  
C    3.2125798   -0.0006171   -6.0535227  
N    2.4227569   -0.0005418   -5.0142109  
C    2.8079503   -0.0009509   -7.4324215  
C    3.7817678   -0.0003752   -8.3710445  
O    3.5485421   -0.0006033   -9.6945425  
C    5.2278982    0.0005386   -8.0010880  
O    6.0602363    0.0009025   -8.9079694  
C    5.6174391    0.0008216   -6.5797564  
H    5.4578085    0.0005834   -3.5361826  
H    1.7599990   -0.0015423   -7.6945434  
H    4.4333819   -0.0000291  -10.1022329  
C    3.3321175    0.0004715   -1.3379331  
C    2.6974186    0.0000117   -2.5332308  
C    1.2800441   -0.0002117   -2.2052838  
C    1.2395036    0.0000644   -0.7271292  
N    2.4394065    0.0005460   -0.2131033  
C    0.0000000    0.0000000    0.0000000  
C   -1.1468701    0.0000635   -0.7169542  
O   -2.3742199    0.0000073   -0.1695491  
C   -1.1388766    0.0001607   -2.2096354  
O   -2.2206227    0.0000905   -2.7970412  
C    0.1454526    0.0001817   -2.9324239  
H   -2.9844344    0.0001026   -0.9290168  
H    0.1083579    0.0003683   -4.0135594  
H    4.3940038    0.0007619   -1.1498630  
C    0.0000000    0.0000000    1.4700000  
C    1.0662921    0.0000102    2.3034270  
C    0.4961870   -0.0000064    3.6418889  
C   -0.9663858    0.0000850    3.4240247  
N   -1.2632773    0.0000084    2.1528658  
C   -1.8985362    0.0000517    4.5177257  
C   -1.3925775   -0.0004564    5.7720543  
O   -2.1456383   -0.0005410    6.8851312  
C    0.0786232   -0.0009323    6.0245000  
O    0.4683759   -0.0012588    7.1921102  
C    1.0143166   -0.0008442    4.8859032  
H    2.1107198   -0.0000632    2.0421868  
H   -2.9622183    0.0003270    4.3293377  
H   -1.5042274   -0.0009692    7.6184419  
H    2.0724152   -0.0013148    5.1109744  
