60

C    4.7795897    0.0008677   -1.0815734  
C    5.8063524    0.0010479   -1.9702989  
C    7.0285667    0.0013960   -1.2015146  
C    6.6268090    0.0013748    0.2181268  
N    5.2509932    0.0014468    0.2224659  
C    7.4934501    0.0012529    1.2624628  
C    8.9169021    0.0013612    0.9686563  
O    9.7768359    0.0013267    1.8397563  
C    9.3650181    0.0016376   -0.5276712  
O   10.5607793    0.0020372   -0.7873201  
C    8.3375016    0.0014694   -1.5659692  
H    5.7176696    0.0011307   -3.0420955  
H    7.1779191    0.0011093    2.2965562  
H    8.6560847    0.0014573   -2.5995205  
H    4.6776559   -0.0001047    1.0460743  
C    3.3321166    0.0004717   -1.3379342  
C    2.6974176    0.0000121   -2.5332317  
C    1.2800432   -0.0002115   -2.2052842  
C    1.2395033    0.0000645   -0.7271297  
N    2.4394059    0.0005461   -0.2131042  
C    0.0000000    0.0000000    0.0000000  
C   -1.1468704    0.0000636   -0.7169540  
O   -2.3742206    0.0000073   -0.1695488  
C   -1.1388774    0.0001610   -2.2096351  
O   -2.2206238    0.0000908   -2.7970408  
C    0.1454514    0.0001820   -2.9324241  
H    3.1367977   -0.0000646   -3.5160953  
H   -2.9844351    0.0001027   -0.9290163  
C    0.0950440    0.0004357   -4.4015596  
C    1.1321301    0.0004168   -5.2710603  
C    0.5164635    0.0007459   -6.5891857  
C   -0.9377784    0.0008260   -6.3212966  
N   -1.1909063    0.0007257   -5.0407053  
C   -1.9068844    0.0011813   -7.3823906  
C   -1.4442351    0.0018335   -8.6533313  
O   -2.2350211    0.0022179   -9.7399308  
C    0.0174440    0.0021426   -8.9560765  
O    0.3669293    0.0026149  -10.1363649  
C    0.9916303    0.0017243   -7.8502353  
H    2.1849019    0.0002958   -5.0457877  
H   -2.9634810    0.0010256   -7.1576391  
H   -1.6191332    0.0026809  -10.4948046  
H    2.0413888    0.0020825   -8.1114568  
C    0.0000000    0.0000000    1.4700000  
C    1.0521667    0.0011902    2.3562342  
C    0.4917218    0.0011957    3.6679131  
C   -0.9187428   -0.0003148    3.5178682  
N   -1.1833171    0.0009411    2.1707914  
C   -1.7951701   -0.0010350    4.6072090  
C   -1.2375837   -0.0005224    5.8710424  
O   -2.0474215   -0.0015360    6.9697579  
C    0.1673580    0.0013566    6.0411963  
O    0.5673524    0.0020687    7.3615553  
C    1.0325770    0.0023412    4.9669890  
H    2.0953057    0.0030649    2.0900562  
H   -2.0989778   -0.0102372    1.7591824  
H   -2.8710934   -0.0020419    4.4995513  
H   -1.4634884   -0.0006497    7.7393593  
H    1.5290710    0.0033153    7.3880045  
H    2.1042148    0.0039609    5.1284455  
