58

C    7.7746770    0.0004627   -6.4003297  
C    6.6781265   -0.0007178   -5.5992983  
C    5.5234714   -0.0025675   -6.4662485  
C    6.0409249   -0.0023957   -7.8479260  
N    7.4124118   -0.0001247   -7.7387997  
C    5.2633538   -0.0042338   -8.9601683  
C    3.8205245   -0.0063091   -8.7847418  
O    3.0353523   -0.0079945   -9.7237854  
C    3.2505459   -0.0062760   -7.3304621  
O    2.0374480   -0.0077064   -7.1703008  
C    4.1889421   -0.0044724   -6.2109704  
H    5.6630825   -0.0042001   -9.9647219  
H    3.7862174   -0.0046669   -5.2072098  
H    8.8169514    0.0019294   -6.1254645  
H    8.0517134   -0.0010198   -8.5123244  
C    6.6781264    0.0000526   -4.1292983  
C    7.7444181    0.0009683   -3.2958718  
C    7.1743131    0.0014026   -1.9574099  
C    5.7117407    0.0007371   -2.1752742  
N    5.4148494   -0.0001362   -3.4464326  
C    4.7795901    0.0008674   -1.0815733  
C    5.2855489    0.0012391    0.1727555  
O    4.5324883    0.0014069    1.2858327  
C    6.7567496    0.0015421    0.4252013  
O    7.1465024    0.0019988    1.5928113  
C    7.6924429    0.0014446   -0.7133951  
H    8.7888465    0.0012169   -3.5571121  
H    5.1738991    0.0016450    2.0191435  
H    8.7505410    0.0015569   -0.4883243  
C    3.3321168    0.0004716   -1.3379341  
C    2.6974177    0.0000118   -2.5332316  
C    1.2800432   -0.0002116   -2.2052842  
C    1.2395033    0.0000644   -0.7271298  
N    2.4394059    0.0005460   -0.2131041  
C    0.0000000    0.0000000    0.0000000  
C   -1.1468704    0.0000635   -0.7169542  
O   -2.3742206    0.0000074   -0.1695488  
C   -1.1388774    0.0001608   -2.2096352  
O   -2.2206238    0.0000906   -2.7970409  
C    0.1454514    0.0001818   -2.9324241  
H    3.1367978   -0.0000649   -3.5160956  
H   -2.9844350    0.0001027   -0.9290164  
H    0.1083567    0.0003684   -4.0135594  
C    0.8175213    0.6860729    2.3021913  
C    0.0000000    0.0000000    1.4700000  
C   -0.8887526   -0.7456559    2.3478473  
C   -0.4549825   -0.3816753    3.7138435  
N    0.5448156    0.4573574    3.6934124  
C   -1.0945674   -0.9182058    4.8835240  
C   -2.1210866   -1.7789155    4.6970523  
O   -2.8083856   -2.3554314    5.6976972  
C   -2.5824069   -2.1655116    3.3310774  
O   -3.5227682   -2.9541547    3.2362962  
C   -1.9100805   -1.6015804    2.1470656  
H   -0.7567140   -0.6349833    5.8697035  
H   -3.4728268   -2.9124471    5.2533954  
H   -2.2742832   -1.9066565    1.1752040  
H    1.6189533    1.3585343    2.0405121  
