60

C    3.3041276    0.0001178   -1.5420426  
C    2.5845372   -0.0004779   -0.3695848  
C    1.2040005   -0.0000007   -0.7283587  
C    1.1422376    0.0006039   -2.1454367  
N    2.4348645    0.0026112   -2.6077457  
C   -0.0655179    0.0008798   -2.8497914  
C   -1.2321765    0.0002325   -2.1101396  
O   -2.4392815    0.0001147   -2.7472519  
C   -1.1911207   -0.0000007   -0.6955262  
O   -2.4371524   -0.0002320   -0.1032863  
C    0.0000000    0.0000000    0.0000000  
H    3.0031537   -0.0000660    0.6222592  
H    2.7054634   -0.0071097   -3.5745254  
H   -3.1132984   -0.0000649   -2.0551788  
H   -2.3200280   -0.0004071    0.8516414  
H    4.3686622    0.0004072   -1.7024282  
C   -0.1387078    0.0017019   -4.3179679  
C    0.8715321    0.0021967   -5.2254318  
C    0.2617559    0.0029743   -6.5342510  
C   -1.1970046    0.0029205   -6.3133239  
N   -1.3734971    0.0017347   -4.9488687  
C   -2.1246666    0.0039286   -7.3038523  
C   -1.6550222    0.0049216   -8.6793404  
O   -2.4116496    0.0058065   -9.6415329  
C   -0.1143761    0.0047445   -8.9366639  
O    0.2928838    0.0052678  -10.0905268  
C    0.7871616    0.0038971   -7.7872811  
H    1.9238031    0.0018530   -5.0033065  
H   -3.1901194    0.0039990   -7.1202218  
H   -2.2623841    0.0029669   -4.4831159  
C    3.9935798   -2.1392094   -5.7591106  
C    5.0869525   -1.7311348   -6.4443779  
C    4.5764888   -0.8194738   -7.4567023  
C    3.1152015   -0.7933013   -7.2318962  
N    2.7676081   -1.5649241   -6.2380316  
C    2.2350874    0.0040167   -8.0410746  
C    2.7896347    0.7419550   -9.0296388  
O    2.0881538    1.5314751   -9.8606764  
C    4.2609685    0.7370085   -9.2812592  
O    4.6965095    1.4329369  -10.1984332  
C    5.1427296   -0.0891815   -8.4375568  
H    6.1131463   -2.0137860   -6.2827921  
H    2.7555403    1.9241871  -10.4518828  
H    6.2027462   -0.0650860   -8.6520675  
H    3.9487769   -2.8221600   -4.9257176  
C    0.0000000    0.0000000    1.4700000  
C    1.0541688    0.0001722    2.3260392  
C    0.5103138    0.0000454    3.6635956  
C   -0.9576371   -0.0002459    3.5155732  
N   -1.2018458    0.0001392    2.1615969  
C   -1.8348311   -0.0008317    4.5510609  
C   -1.2972847   -0.0009736    5.9014604  
O   -2.0050672   -0.0014265    6.9001319  
C    0.2542623   -0.0004184    6.0817573  
O    0.7184670   -0.0002256    7.2139121  
C    1.0974552   -0.0000873    4.8889129  
H    2.0940752    0.0005483    2.0517982  
H   -2.9081052   -0.0011668    4.4207061  
H    2.1707277    0.0000911    5.0223670  
H   -2.1128194   -0.0014912    1.7406791  
