58

C    1.1319247    0.0015703   -0.8009268  
C    0.7969915    0.0034979   -2.1169403  
C   -0.6453338    0.0035689   -2.1842672  
C   -1.1266834    0.0015391   -0.7896027  
N    0.0000000    0.0000000    0.0000000  
C   -2.4346130    0.0013869   -0.4276293  
C   -3.4350109    0.0031276   -1.4820179  
O   -4.6384608    0.0030793   -1.2583914  
C   -2.9478960    0.0050394   -2.9661070  
O   -3.7809380    0.0062075   -3.8623773  
C   -1.5113826    0.0053038   -3.2312122  
H   -2.7664564    0.0000122    0.6013451  
H   -1.1823532    0.0068367   -4.2614848  
H    2.1104317    0.0009476   -0.3488060  
C    2.8943510   -0.6801080   -3.3710890  
C    1.7334692    0.0049322   -3.2500365  
C    1.6070290    0.7512047   -4.4924496  
C    2.8119081    0.3886741   -5.2692519  
N    3.5702468   -0.4501088   -4.6170586  
C    3.0636185    0.9261730   -6.5780004  
C    2.1528558    1.7864236   -7.0877206  
O    2.2600684    2.3637303   -8.2965480  
C    0.9267354    2.1715622   -6.3284724  
O    0.1408565    2.9598592   -6.8540230  
C    0.6911555    1.6066575   -4.9878349  
H    1.4643993    2.9201331   -8.3770398  
H   -0.2089640    1.9106868   -4.4705525  
H    3.3459581   -1.3526082   -2.6592128  
C    5.1267050   -2.9266142   -7.0058389  
C    6.1476815   -2.5460208   -7.8162898  
C    5.9803565   -1.1343930   -8.0695603  
C    4.7695424   -0.7208111   -7.3349380  
N    4.2993490   -1.8535175   -6.7114129  
C    4.2732623    0.5421936   -7.3197692  
C    4.9786100    1.5622510   -8.0777288  
O    4.6111235    2.7287924   -8.1270799  
C    6.2630555    1.1466145   -8.8633826  
O    6.8651234    1.9967041   -9.5053506  
C    6.7003369   -0.2458730   -8.8032493  
H    6.9287590   -3.1816582   -8.1937742  
H    7.5907230   -0.5254495   -9.3498512  
H    4.9089744   -3.9007898   -6.5990648  
H    3.4822899   -1.8939453   -6.1301838  
C    0.8681109    0.7263879    2.2709268  
C    0.6127770    0.5096195    3.5869401  
C   -0.4920590   -0.4175482    3.6542670  
C   -0.8620974   -0.7254003    2.2596025  
N    0.0000000    0.0000000    1.4700000  
C   -1.8641242   -1.5660088    1.8976294  
C   -2.6293522   -2.2103885    2.9520183  
O   -3.5512764   -2.9839180    2.7283916  
C   -2.2549728   -1.8987399    4.4361073  
O   -2.8923672   -2.4351063    5.3323774  
C   -1.1543735   -0.9755647    4.7012123  
H    1.1382914    0.9492124    4.4159191  
H   -2.1192137   -1.7782617    0.8686553  
H   -0.9013378   -0.7652422    5.7314848  
H    1.6172880    1.3558399    1.8188057  
