58

C   -0.0323591   -0.0097878   -8.8431965  
C    0.7716672   -0.6849939   -9.7044234  
C    0.3481129   -0.3334273  -11.0392789  
C   -0.7766255    0.6087233  -10.8840168  
N   -0.9574597    0.7627419   -9.5288543  
C   -1.4540069    1.1740507  -11.9151641  
C   -1.0483738    0.8315627  -13.2681980  
O   -1.5957506    1.2879868  -14.2633634  
C    0.1401391   -0.1643877  -13.4561447  
O    0.4903939   -0.4604503  -14.5905735  
C    0.7923873   -0.7079790  -12.2674758  
H    1.5701999   -1.3532299   -9.4353172  
H   -2.2761581    1.8629466  -11.7795165  
H    1.6146222   -1.3967478  -12.4062231  
H   -1.6528909    1.3479382   -9.1034510  
C    2.4782024   -2.1081880   -5.8783640  
C    1.9212515   -1.6438944   -7.0265418  
C    0.8545986   -0.7486155   -6.6450159  
C    0.8356633   -0.7292246   -5.1698698  
N    1.8439056   -1.5742007   -4.7669390  
C   -0.0307352   -0.0004646   -4.4215603  
C   -1.0100799    0.8193479   -5.1153371  
O   -1.8333384    1.5114170   -4.5308826  
C   -1.0083719    0.8138718   -6.6773144  
O   -1.8284253    1.4999043   -7.2724040  
C   -0.0251095   -0.0124255   -7.3732162  
H    2.2230620   -1.8995544   -8.0266228  
H    3.2985202   -2.7956869   -5.7506349  
H    2.0835085   -1.7709326   -3.8125105  
C    3.2573670   -0.0002920   -1.5109380  
C    2.5379468   -0.0001709   -0.3591961  
C    1.1435043    0.0000332   -0.7338500  
C    1.1092609   -0.0000082   -2.2088477  
N    2.4227562    0.0001909   -2.6182613  
C   -0.0265532   -0.0002522   -2.9515663  
C   -1.3003035   -0.0002639   -2.2514981  
O   -2.3786784   -0.0004131   -2.8306429  
C   -1.2877725    0.0000312   -0.6895608  
O   -2.3539958    0.0003307   -0.0892036  
C    0.0000000    0.0000000    0.0000000  
H    2.9384091   -0.0000369    0.6389239  
H    4.3270394   -0.0004765   -1.6439446  
H    2.7280494   -0.0013406   -3.5742113  
C    0.0000000    0.0000000    1.4700000  
C    1.0541688    0.0001722    2.3260392  
C    0.5103138    0.0000454    3.6635956  
C   -0.9576371   -0.0002459    3.5155732  
N   -1.2018458    0.0001392    2.1615969  
C   -1.8348311   -0.0008317    4.5510609  
C   -1.2972847   -0.0009736    5.9014604  
O   -2.0050672   -0.0014265    6.9001319  
C    0.2542623   -0.0004184    6.0817573  
O    0.7184670   -0.0002256    7.2139121  
C    1.0974552   -0.0000873    4.8889129  
H    2.0940752    0.0005483    2.0517982  
H   -2.9081052   -0.0011668    4.4207061  
H    2.1707277    0.0000911    5.0223670  
H   -2.1128194   -0.0014912    1.7406791  
