58

C   -1.0937630    0.5315567   -9.1259044  
C   -0.1014977   -0.3116271   -9.5112946  
C   -0.1130247   -0.3434265  -10.9547952  
C   -1.2011260    0.5568254  -11.3818460  
N   -1.7562778    1.0550614  -10.2257937  
C   -1.5349827    0.8001931  -12.6745244  
C   -0.7718411    0.1306193  -13.7146309  
O   -0.9953456    0.2841582  -14.9082684  
C    0.3847717   -0.8273453  -13.2852645  
O    1.0340276   -1.3968846  -14.1520701  
C    0.6502953   -1.0092828  -11.8603966  
H    0.5625960   -0.8500311   -8.8588283  
H   -2.3366801    1.4643015  -12.9663329  
H    1.4529633   -1.6740830  -11.5714534  
H   -2.5231370    1.7011859  -10.1870984  
C    0.4920764   -0.6868679   -5.2544642  
C   -0.2963293   -0.0005341   -4.3948471  
C   -1.2145549    0.7451072   -5.2418306  
C   -0.8279331    0.3808331   -6.6218351  
N    0.1718577   -0.4583450   -6.6355552  
C   -1.5071744    0.9172630   -7.7689881  
C   -2.5265725    1.7781565   -7.5475746  
O   -3.2476979    2.3546071   -8.5241627  
C   -2.9407256    2.1650500   -6.1666507  
O   -3.8771709    2.9538488   -6.0398149  
C   -2.2282746    1.6012170   -5.0062924  
H   -3.8964333    2.9117963   -8.0574334  
H   -2.5588936    1.9065101   -4.0225660  
H    1.3019142   -1.3594050   -5.0203046  
C    3.1301146   -0.0010313   -1.7028256  
C    2.5367765   -0.0002766   -0.4864669  
C    1.1089901    0.0001027   -0.7656184  
C    1.0177865   -0.0004150   -2.2415133  
N    2.1993571   -0.0011612   -2.7963824  
C   -0.2459219   -0.0002879   -2.9257116  
C   -1.3675326   -0.0000606   -2.1698520  
O   -2.6129318    0.0000865   -2.6748483  
C   -1.3083588    0.0000910   -0.6783229  
O   -2.3693264    0.0004206   -0.0541685  
C    0.0000000    0.0000000    0.0000000  
H    3.0096016   -0.0001007    0.4807518  
H   -3.1967444    0.0002093   -1.8949026  
H    4.1849275   -0.0015114   -1.9271979  
C    2.5128556    2.1077716    2.9199648  
C    1.9592212    1.6432552    4.0696553  
C    0.8915788    0.7479214    3.6910360  
C    0.8684491    0.7287414    2.2159470  
N    1.8754542    1.5738793    1.8102719  
C    0.0000000    0.0000000    1.4700000  
C   -0.9772830   -0.8200135    2.1664417  
O   -1.8021297   -1.5120829    1.5842315  
C   -0.9711318   -0.8147624    3.7284083  
O   -1.7894187   -1.5009653    4.3257297  
C    0.0140216    0.0115358    4.4216297  
H    2.2638494    1.8988021    5.0689105  
H    0.0117648    0.0094386    5.5031631  
H    3.3327358    2.7953732    2.7900019  
H    2.1123206    1.7707734    0.8551938  
