58

C    0.0000000    0.0000000    0.0000000  
C    1.0541693   -0.0001722   -0.8560387  
C    0.5103150   -0.0000453   -2.1935956  
C   -0.9576359    0.0002463   -2.0455738  
N   -1.2018452   -0.0001387   -0.6915977  
C   -1.8348290    0.0008322   -3.0810622  
C   -1.2972821    0.0009744   -4.4314615  
O   -2.0050638    0.0014275   -5.4301331  
C    0.2542652    0.0004188   -4.6117576  
O    0.7184705    0.0002260   -5.7439120  
C    1.0974570    0.0000875   -3.4189127  
H    2.0940754   -0.0005486   -0.5817977  
H    2.1707302   -0.0000913   -3.5523661  
H   -2.1128189    0.0014918   -0.2706805  
C   -4.6945328    2.0112733   -0.3161638  
C   -3.5419717    1.6295587   -0.9140565  
C   -3.9513650    0.7131112   -1.9671571  
C   -5.4249846    0.6554386   -1.8589750  
N   -5.8663720    1.4144239   -0.8929997  
C   -6.2212849   -0.1553971   -2.7384849  
C   -5.5748568   -0.8755691   -3.6833755  
O   -6.1915649   -1.6747263   -4.5705397  
C   -4.0887134   -0.8381747   -3.8180605  
O   -3.5674030   -1.5194682   -4.7008375  
C   -3.2941055    0.0012883   -2.9038262  
H   -2.5379802    1.9325465   -0.6705906  
H   -5.4713988   -2.0497083   -5.1089655  
H   -4.8195600    2.6886083    0.5136308  
C   -9.3937995    2.8573683   -1.8882851  
C   -8.1803284    2.2994388   -2.1068777  
C   -8.4515372    0.8879634   -2.3320056  
C   -9.9201402    0.7664508   -2.2094441  
N  -10.4779405    1.9176500   -1.9494649  
C  -10.5952800   -0.4922119   -2.3676910  
C   -9.8377586   -1.5799663   -2.6365537  
O  -10.3346181   -2.8167457   -2.8084479  
C   -8.3534807   -1.4895798   -2.7665974  
O   -7.7273184   -2.5205006   -3.0122462  
C   -7.6843928   -0.1871001   -2.5998861  
H   -7.2198121    2.7856756   -2.1145069  
H  -11.6696650   -0.5519247   -2.2726114  
H   -9.5556198   -3.3746006   -2.9848321  
H   -9.6220400    3.8908792   -1.6815623  
C    0.0000000    0.0000000    1.4700000  
C    1.0541688    0.0001722    2.3260392  
C    0.5103138    0.0000454    3.6635956  
C   -0.9576371   -0.0002459    3.5155732  
N   -1.2018458    0.0001392    2.1615969  
C   -1.8348311   -0.0008317    4.5510609  
C   -1.2972847   -0.0009736    5.9014604  
O   -2.0050672   -0.0014265    6.9001319  
C    0.2542623   -0.0004184    6.0817573  
O    0.7184670   -0.0002256    7.2139121  
C    1.0974552   -0.0000873    4.8889129  
H    2.0940752    0.0005483    2.0517982  
H   -2.9081052   -0.0011668    4.4207061  
H    2.1707277    0.0000911    5.0223670  
H   -2.1128194   -0.0014912    1.7406791  
