58

C   -3.2966998    0.0026943   -7.1907178  
C   -3.9795446    0.0027258   -6.0169215  
C   -5.3850793    0.0034387   -6.3475381  
C   -5.4656910    0.0037934   -7.8207293  
N   -4.1657203    0.0037128   -8.2712462  
C   -6.6243000    0.0040783   -8.5273620  
C   -7.8754050    0.0042587   -7.7875839  
O   -8.9714593    0.0045787   -8.3325303  
C   -7.8137609    0.0041413   -6.2268129  
O   -8.8605771    0.0045978   -5.5932225  
C   -6.5049404    0.0035504   -5.5780909  
H   -3.5478922    0.0024808   -5.0318888  
H   -6.6613739    0.0042060   -9.6078877  
H   -6.4709289    0.0032674   -4.4970880  
H   -3.8906408    0.0023415   -9.2363249  
C    0.0950448    0.0004350   -4.4015596  
C    1.1192393    0.0002596   -5.2932436  
C    0.5298380    0.0006949   -6.6113645  
C   -0.9321738    0.0011706   -6.4130916  
N   -1.1298099    0.0005870   -5.0515376  
C   -1.8443594    0.0020605   -7.4178900  
C   -1.3534356    0.0023585   -8.7859286  
O   -2.0950470    0.0030847   -9.7597423  
C    0.1910164    0.0016124   -9.0193234  
O    0.6161255    0.0015485  -10.1667301  
C    1.0746171    0.0009551   -7.8560944  
H    2.1679381   -0.0003125   -5.0548237  
H    2.1426822    0.0006461   -8.0262737  
H   -2.0258137    0.0022750   -4.5996288  
C    3.3321173    0.0004714   -1.3379336  
C    2.6974184    0.0000115   -2.5332313  
C    1.2800437   -0.0002119   -2.2052840  
C    1.2395034    0.0000643   -0.7271298  
N    2.4394063    0.0005459   -0.2131037  
C    0.0000000    0.0000000    0.0000000  
C   -1.1468702    0.0000634   -0.7169544  
O   -2.3742202    0.0000072   -0.1695489  
C   -1.1388770    0.0001606   -2.2096356  
O   -2.2206231    0.0000903   -2.7970412  
C    0.1454523    0.0001814   -2.9324241  
H    3.1367986   -0.0000653   -3.5160949  
H   -2.9844345    0.0001025   -0.9290168  
H    4.3940040    0.0007618   -1.1498638  
C    2.5528530    2.1414826    2.8079335  
C    2.0663498    1.7338582    4.0032312  
C    0.9804344    0.8229586    3.6752840  
C    0.9495562    0.7966882    2.1971295  
N    1.8690446    1.5676019    1.6831036  
C    0.0000000    0.0000000    1.4700000  
C   -0.8785127   -0.7372425    2.1869543  
O   -1.8187535   -1.5261249    1.6395491  
C   -0.8723269   -0.7321790    3.6796354  
O   -1.7010379   -1.4274584    4.2670412  
C    0.1115397    0.0933559    4.4024240  
H    2.4028853    2.0163452    4.9860947  
H   -2.2861435   -1.9184361    2.3990168  
H    0.0832434    0.0693689    5.4835595  
H    3.3664920    2.8238276    2.6198634  
