60

C    0.0000000    0.0000000    0.0000000  
C    1.0521665   -0.0011901   -0.8862342  
C    0.4917217   -0.0011956   -2.1979130  
C   -0.9187428    0.0003148   -2.0478683  
N   -1.1833173   -0.0009411   -0.7007911  
C   -1.7951703    0.0010349   -3.1372088  
C   -1.2375840    0.0005224   -4.4010424  
O   -2.0474220    0.0015359   -5.4997576  
C    0.1673578   -0.0013566   -4.5711965  
O    0.5673521   -0.0020688   -5.8915549  
C    1.0325768   -0.0023412   -3.4969890  
H    2.0953059   -0.0030648   -0.6200563  
H   -2.0989774    0.0102371   -0.2891826  
H   -1.4634888    0.0006496   -6.2693593  
H    1.5290706   -0.0033152   -5.9180048  
C    3.4024819   -0.7096509   -3.0037684  
C    2.4861699   -0.0045381   -3.7159922  
C    3.2126683    0.7356038   -4.7205944  
C    4.6375569    0.4014741   -4.5339408  
N    4.6850371   -0.4786080   -3.4774888  
C    5.6492882    0.8988713   -5.2893883  
C    5.3123646    1.8252912   -6.3574540  
O    6.1519756    2.3278822   -7.0928154  
C    3.8097566    2.1934334   -6.5729676  
O    3.5139835    2.9726009   -7.4688899  
C    2.8090505    1.5925986   -5.6946531  
H    6.6879099    0.6407517   -5.1359313  
H    1.7708571    1.8525206   -5.8505993  
H    3.2487385   -1.3784666   -2.1725414  
H    5.5222133   -0.8912444   -3.1088239  
C   -3.9677030    0.7294872   -2.0473355  
C   -5.3028008    0.5139591   -2.1703661  
C   -5.4806590   -0.4130819   -3.2629762  
C   -4.1300541   -0.7222113   -3.7700230  
N   -3.2578657    0.0024038   -2.9908504  
C   -3.8704288   -1.5630988   -4.8030803  
C   -4.9963676   -2.2064521   -5.4595048  
O   -4.8663635   -2.9801364   -6.3990857  
C   -6.4355166   -1.8934434   -4.9392352  
O   -7.3912944   -2.4289381   -5.4842077  
C   -6.5888642   -0.9700851   -3.8177424  
H   -6.0749285    0.9542934   -1.5649424  
H   -2.8721634   -1.7762950   -5.1593433  
H   -7.5886279   -0.7588178   -3.4633940  
H   -3.4426508    1.3584747   -1.3469180  
C    3.2573670    0.0002920    2.9809380  
C    2.5379467    0.0001709    1.8291961  
C    1.1435042   -0.0000331    2.2038498  
C    1.1092607    0.0000083    3.6788474  
N    2.4227561   -0.0001909    4.0882609  
C   -0.0265533    0.0002524    4.4215661  
C   -1.3003036    0.0002640    3.7214979  
O   -2.3786784    0.0004133    4.3006425  
C   -1.2877726   -0.0000311    2.1595606  
O   -2.3539958   -0.0003306    1.5592035  
C    0.0000000    0.0000000    1.4700000  
H    2.9384090    0.0000368    0.8310761  
H   -0.0296291    0.0004086    5.5027230  
H    4.3270393    0.0004765    3.1139444  
H    2.7280493    0.0013407    5.0442112  
