58

C   -1.1316571    0.0246538   -0.8009266  
C   -0.7968582    0.0149676   -2.1169403  
C    0.6450786   -0.0185176   -2.1842664  
C    1.1263457   -0.0276400   -0.7896021  
N    0.0000000    0.0000000    0.0000000  
C    2.4339276   -0.0577887   -0.4276286  
C    3.4340172   -0.0827046   -1.4820176  
O    4.6371450   -0.1105367   -1.2583903  
C    2.9469888   -0.0733307   -2.9661066  
O    3.7797802   -0.0937972   -3.8623766  
C    1.5108547   -0.0403151   -3.2312118  
H   -1.4818305    0.0297913   -2.9459195  
H    2.7657135   -0.0641024    0.6013452  
H   -2.1098872    0.0479451   -0.3488062  
C    1.0637180   -0.0320377   -4.6315336  
C   -0.2052775   -0.0042792   -5.1010637  
C   -0.0694615   -0.0090859   -6.5495220  
C    1.3896979   -0.0418450   -6.7869345  
N    2.0590964   -0.0554988   -5.6663508  
C    1.9447592   -0.0558748   -8.1123765  
C    1.0813606   -0.0383799   -9.1533238  
O    1.4599703   -0.0484796  -10.4427400  
C   -0.3965430   -0.0056239   -8.9462283  
O   -1.1228905    0.0090517   -9.9399204  
C   -0.9413211    0.0082844   -7.5769410  
H   -1.1204830    0.0167590   -4.5344659  
H    0.6260553   -0.0309099  -10.9461591  
H   -2.0174779    0.0319596   -7.4694440  
C    5.3639570   -2.1417372   -6.1572021  
C    4.1066028   -1.7323785   -6.4454135  
C    4.2575037   -0.8190043   -7.5676775  
C    5.7117550   -0.7931781   -7.8342648  
N    6.3654947   -1.5666789   -7.0106687  
C    6.2784039    0.0054488   -8.8860211  
C    5.4307461    0.7443750   -9.6375527  
O    5.8214539    1.5351752  -10.6514678  
C    3.9581458    0.7392343   -9.3934579  
O    3.2463348    1.4362957  -10.1164037  
C    3.4012545   -0.0882411   -8.3085242  
H    3.1899231   -2.0153597   -5.9568488  
H    7.3448057    0.0053882   -9.0583467  
H    4.9972772    1.9283091  -10.9910730  
H    5.6791012   -2.8261488   -5.3856855  
C    2.4951002    2.0940188    2.9809380  
C    1.9440701    1.6314916    1.8291961  
C    0.8759964    0.7350050    2.2038498  
C    0.8497377    0.7130254    3.6788474  
N    1.8560616    1.5571714    4.0882609  
C   -0.0205033   -0.0168748    4.4215661  
C   -0.9962600   -0.8356168    3.7214979  
O   -1.8224391   -1.5286685    4.3006425  
C   -0.9864710   -0.8277881    2.1595606  
O   -1.8030528   -1.5133726    1.5592035  
C    0.0000000    0.0000000    1.4700000  
H    2.2509283    1.8888011    0.8310761  
H   -0.0229599   -0.0187323    5.5027230  
H    3.3143982    2.7817323    3.1139444  
H    2.0889452    1.7545833    5.0442112  
