62

C   -4.4706654    2.1247474   -0.3281857  
C   -5.6599553    1.6265075   -0.8075747  
C   -5.3396781    0.7517232   -1.8877483  
C   -3.9276369    0.7559269   -2.0220874  
N   -3.4313039    1.6013255   -1.0610605  
C   -3.2578655    0.0024729   -2.9908506  
C   -4.0275441   -0.7695189   -3.8392616  
O   -3.4248154   -1.5249155   -4.8031639  
C   -5.4377145   -0.7866543   -3.7211792  
O   -6.0625153   -1.6047615   -4.6396925  
C   -6.0991488   -0.0433951   -2.7658801  
H   -6.6380947    1.8651571   -0.4264138  
H   -2.4588016    1.7971671   -0.9065739  
H   -4.1336291   -1.9788775   -5.2772599  
H   -7.0120053   -1.5589523   -4.4914535  
H   -4.2816583    2.8131793    0.4776032  
C    0.0000000    0.0000000    0.0000000  
C    1.0521667   -0.0012127   -0.8862342  
C    0.4917213   -0.0012065   -2.1979130  
C   -0.9187429    0.0003340   -2.0478681  
N   -1.1833171   -0.0009161   -0.7007913  
C   -1.7951703    0.0010729   -3.1372088  
C   -1.2375845    0.0005482   -4.4010422  
O   -2.0474215    0.0015792   -5.4997578  
C    0.1673578   -0.0013607   -4.5711963  
O    0.5673518   -0.0020815   -5.8915554  
C    1.0325766   -0.0023637   -3.4969890  
H    2.0953063   -0.0031096   -0.6200564  
H   -2.0989776    0.0102817   -0.2891822  
H   -1.4634889    0.0006800   -6.2693595  
H    1.5290711   -0.0033483   -5.9180046  
H    2.1042152   -0.0040061   -3.6584455  
C   -8.3861545    0.9662866   -2.4339876  
C   -7.5657098   -0.0884001   -2.6760232  
C   -8.4081967   -1.2513896   -2.8260457  
C   -9.7966774   -0.7844431   -2.6503404  
N   -9.7144182    0.5686608   -2.4153234  
C  -10.8912307   -1.5837501   -2.7193782  
C  -10.6882082   -2.9983826   -2.9842023  
O  -11.6098147   -3.7998803   -3.0650941  
C   -9.2262584   -3.5148427   -3.1733545  
O   -9.0429049   -4.7038988   -3.3964841  
C   -8.1276143   -2.5569843   -3.0767109  
H  -11.9011952   -1.2210934   -2.5876150  
H   -7.1183916   -2.9225871   -3.2091071  
H   -8.1321795    2.0005294   -2.2674701  
H  -10.4986384    1.1744168   -2.2568756  
C    3.3321173   -0.0004715    2.8079335  
C    2.6974184   -0.0000116    4.0032312  
C    1.2800439    0.0002118    3.6752840  
C    1.2395035   -0.0000644    2.1971295  
N    2.4394063   -0.0005460    1.6831036  
C    0.0000000    0.0000000    1.4700000  
C   -1.1468701   -0.0000635    2.1869543  
O   -2.3742202   -0.0000073    1.6395491  
C   -1.1388768   -0.0001607    3.6796354  
O   -2.2206231   -0.0000905    4.2670412  
C    0.1454524   -0.0001816    4.4024240  
H    3.1367986    0.0000651    4.9860947  
H   -2.9844344   -0.0001026    2.3990168  
H    0.1083576   -0.0003682    5.4835595  
H    4.3940039   -0.0007619    2.6198634  
