58

C    0.8077785   -0.7044851   -5.2248787  
C   -0.0307371   -0.0004634   -4.4215605  
C   -0.9183652    0.7408394   -5.2860963  
C   -0.5254412    0.4085800   -6.6688490  
N    0.5266118   -0.4716378   -6.5625881  
C   -1.1248966    0.9074723   -7.7794631  
C   -2.2307458    1.8336431   -7.6010238  
O   -2.8354893    2.3374954   -8.5384236  
C   -2.6635805    2.1998165   -6.1455592  
O   -3.5931194    2.9787574   -5.9828654  
C   -1.9409653    1.5974780   -5.0280323  
H   -2.2469895    1.8560414   -4.0234338  
H    1.6076112   -1.3736630   -4.9521913  
H    1.0136888   -0.8832241   -7.3374429  
C    3.2573663   -0.0002917   -1.5109395  
C    2.5379466   -0.0001711   -0.3591971  
C    1.1435037    0.0000336   -0.7338505  
C    1.1092600   -0.0000078   -2.2088480  
N    2.4227548    0.0001914   -2.6182623  
C   -0.0265546   -0.0002513   -2.9515662  
C   -1.3003044   -0.0002632   -2.2514976  
O   -2.3786797   -0.0004120   -2.8306419  
C   -1.2877728    0.0000315   -0.6895605  
O   -2.3539961    0.0003312   -0.0892028  
C    0.0000000    0.0000000    0.0000000  
H    2.9384092   -0.0000371    0.6389227  
H    4.3270388   -0.0004763   -1.6439464  
H    2.7280480   -0.0013400   -3.5742128  
C    0.1484742   -2.8940662   -9.6296690  
C   -0.2712629   -1.9372801   -8.7622267  
C   -0.3527183   -0.7018985   -9.5052156  
C    0.0568792   -1.0196754  -10.8865331  
N    0.3480611   -2.3643027  -10.8954711  
C    0.1130199   -0.1174168  -11.8987004  
C   -0.2542823    1.2585286  -11.6081876  
O   -0.2362912    2.1451026  -12.4519662  
C   -0.6909638    1.6176247  -10.1521091  
O   -1.0021589    2.7728636   -9.8955117  
C   -0.7120743    0.5583693   -9.1464326  
H   -0.4977744   -2.0805370   -7.7206973  
H    0.4160827   -0.3712865  -12.9049879  
H    0.3289937   -3.9415685   -9.4506674  
H    0.6559777   -2.8815790  -11.6983787  
C    0.8175213    0.6860729    2.3021913  
C    0.0000000    0.0000000    1.4700000  
C   -0.8887526   -0.7456559    2.3478473  
C   -0.4549825   -0.3816753    3.7138435  
N    0.5448156    0.4573574    3.6934124  
C   -1.0945674   -0.9182058    4.8835240  
C   -2.1210866   -1.7789155    4.6970523  
O   -2.8083856   -2.3554314    5.6976972  
C   -2.5824069   -2.1655116    3.3310774  
O   -3.5227682   -2.9541547    3.2362962  
C   -1.9100805   -1.6015804    2.1470656  
H   -0.7567140   -0.6349833    5.8697035  
H   -3.4728268   -2.9124471    5.2533954  
H   -2.2742832   -1.9066565    1.1752040  
H    1.6189533    1.3585343    2.0405121  
