58

C   -1.1316571    0.0246538   -0.8009266  
C   -0.7968582    0.0149676   -2.1169403  
C    0.6450786   -0.0185176   -2.1842664  
C    1.1263457   -0.0276400   -0.7896021  
N    0.0000000    0.0000000    0.0000000  
C    2.4339276   -0.0577887   -0.4276286  
C    3.4340172   -0.0827046   -1.4820176  
O    4.6371450   -0.1105367   -1.2583903  
C    2.9469888   -0.0733307   -2.9661066  
O    3.7797802   -0.0937972   -3.8623766  
C    1.5108547   -0.0403151   -3.2312118  
H   -1.4818305    0.0297913   -2.9459195  
H    2.7657135   -0.0641024    0.6013452  
H   -2.1098872    0.0479451   -0.3488062  
C    1.0637180   -0.0320377   -4.6315336  
C   -0.2052775   -0.0042792   -5.1010637  
C   -0.0694615   -0.0090859   -6.5495220  
C    1.3896979   -0.0418450   -6.7869345  
N    2.0590964   -0.0554988   -5.6663508  
C    1.9447592   -0.0558748   -8.1123765  
C    1.0813606   -0.0383799   -9.1533238  
O    1.4599703   -0.0484796  -10.4427400  
C   -0.3965430   -0.0056239   -8.9462283  
O   -1.1228905    0.0090517   -9.9399204  
C   -0.9413211    0.0082844   -7.5769410  
H   -1.1204830    0.0167590   -4.5344659  
H    0.6260553   -0.0309099  -10.9461591  
H   -2.0174779    0.0319596   -7.4694440  
C    4.3197716   -0.7937335   -7.6083918  
C    3.4012545   -0.0882411   -8.3085242  
C    4.1688735    0.6392784   -9.3075116  
C    5.5721820    0.2446396   -9.0593788  
N    5.6668619   -0.5952840   -8.0646161  
C    6.6575938    0.7562740   -9.8500740  
C    6.3548233    1.6224663  -10.8437413  
O    7.2672664    2.1778718  -11.6592241  
C    4.9483581    2.0397571  -11.1192121  
O    4.7463444    2.8317483  -12.0396263  
C    3.8525117    1.5009936  -10.2941183  
H    7.6735552    0.4508848   -9.6464333  
H    6.7506581    2.7455615  -12.2592216  
H    2.8477024    1.8279566  -10.5258136  
H    4.1526214   -1.4615082   -6.7782645  
C    0.8681109    0.7263879    2.2709268  
C    0.6127770    0.5096195    3.5869401  
C   -0.4920590   -0.4175482    3.6542670  
C   -0.8620974   -0.7254003    2.2596025  
N    0.0000000    0.0000000    1.4700000  
C   -1.8641242   -1.5660088    1.8976294  
C   -2.6293522   -2.2103885    2.9520183  
O   -3.5512764   -2.9839180    2.7283916  
C   -2.2549728   -1.8987399    4.4361073  
O   -2.8923672   -2.4351063    5.3323774  
C   -1.1543735   -0.9755647    4.7012123  
H    1.1382914    0.9492124    4.4159191  
H   -2.1192137   -1.7782617    0.8686553  
H   -0.9013378   -0.7652422    5.7314848  
H    1.6172880    1.3558399    1.8188057  
