58

C    2.8024917   -1.9918333   -7.5328130  
C    3.8756436   -2.8238954   -7.5423749  
C    4.4015477   -2.8172283   -8.8870759  
C    3.5406586   -1.9065243   -9.6657149  
N    2.5905963   -1.4395775   -8.7869477  
C    3.7084211   -1.6289858  -10.9834903  
C    4.8102862   -2.2701828  -11.6815575  
O    5.0446382   -2.0850186  -12.8686090  
C    5.7345200   -3.2386026  -10.8767225  
O    6.6652311   -3.7844813  -11.4538301  
C    5.4535688   -3.4582926   -9.4601577  
H    4.2553819   -3.3791228   -6.7032482  
H    3.0656384   -0.9577854  -11.5359669  
H    6.0983249   -4.1301081   -8.9099966  
H    1.8575578   -0.7951411   -9.0201937  
C    1.9999922   -2.1070891   -5.1447770  
C    1.9105667   -1.6426495   -6.4177158  
C    0.7784252   -0.7475272   -6.4606981  
C    0.2115583   -0.7283876   -5.0986831  
N    0.9973788   -1.5733446   -4.3494007  
C   -0.8712826    0.0001710   -4.7267111  
C   -1.5219797    0.8200163   -5.7351666  
O   -2.5037638    1.5119150   -5.4992068  
C   -0.9387700    0.8148046   -7.1841818  
O   -1.4783588    1.5008667   -8.0417497  
C    0.2330300   -0.0112900   -7.4640108  
H    0.6307994   -0.0091669   -8.4697438  
H    2.7138545   -2.7945380   -4.7208631  
H    0.8643844   -1.7702170   -3.3744131  
C    1.0965514    0.0001359   -0.8010305  
C    0.0000000    0.0000000    0.0000000  
C   -1.1546563    0.0001470   -0.8669513  
C   -0.6372014    0.0003519   -2.2486282  
N    0.7342871    0.0007337   -2.1395014  
C   -1.4147739    0.0001352   -3.3608717  
C   -2.8576049   -0.0001048   -3.1854462  
O   -3.6427779   -0.0002494   -4.1244907  
C   -3.4275840   -0.0000725   -1.7311666  
O   -4.6406831    0.0000333   -1.5710060  
C   -2.4891867   -0.0001091   -0.6116744  
H   -2.8919122   -0.0002918    0.3920866  
H    2.1388272    0.0000663   -0.5261648  
H    1.3735872   -0.0006099   -2.9130262  
C    0.8681109    0.7263879    2.2709268  
C    0.6127770    0.5096195    3.5869401  
C   -0.4920590   -0.4175482    3.6542670  
C   -0.8620974   -0.7254003    2.2596025  
N    0.0000000    0.0000000    1.4700000  
C   -1.8641242   -1.5660088    1.8976294  
C   -2.6293522   -2.2103885    2.9520183  
O   -3.5512764   -2.9839180    2.7283916  
C   -2.2549728   -1.8987399    4.4361073  
O   -2.8923672   -2.4351063    5.3323774  
C   -1.1543735   -0.9755647    4.7012123  
H    1.1382914    0.9492124    4.4159191  
H   -2.1192137   -1.7782617    0.8686553  
H   -0.9013378   -0.7652422    5.7314848  
H    1.6172880    1.3558399    1.8188057  
