58

C    7.0941059   -2.9361411   -4.5384154  
C    7.5308285   -3.6153641   -3.4466262  
C    8.6807984   -4.3838778   -3.8611052  
C    8.8796827   -4.0946108   -5.2941306  
N    7.8849674   -3.2107735   -5.6437908  
C    9.8675417   -4.6283017   -6.0563720  
C   10.7967753   -5.5492323   -5.4231689  
O   11.7199603   -6.0824846   -6.0245606  
C   10.6048487   -5.8701580   -3.9066018  
O   11.3808316   -6.6442984   -3.3627088  
C    9.5027630   -5.2327695   -3.1903642  
H    7.0968047   -3.5819913   -2.4632025  
H    9.9959202   -4.4027960   -7.1059321  
H    9.3768740   -5.4601043   -2.1405094  
H    7.7549049   -2.8232016   -6.5602622  
C    5.9578470   -2.0116383   -4.6613364  
C    5.0861939   -1.6298118   -3.6990431  
C    4.1732077   -0.7119468   -4.3627297  
C    4.6536430   -0.6536620   -5.7600017  
N    5.6994882   -1.4135389   -5.9410642  
C    4.0070656    0.1585847   -6.7536207  
C    2.9292841    0.8795215   -6.3689497  
O    2.2294977    1.6800090   -7.1908744  
C    2.4200484    0.8415393   -4.9663106  
O    1.4341935    1.5235886   -4.6868117  
C    3.1006054    0.0006263   -3.9654951  
H    5.0652943   -1.9335816   -2.6663948  
H    4.3797396    0.1823022   -7.7672580  
H    1.5255996    2.0552509   -6.6315231  
C    3.2798083    0.0005857   -1.4499652  
C    2.5571142    0.0005565   -2.5996556  
C    1.1637432    0.0001548   -2.2210361  
C    1.1336964   -0.0000200   -0.7459473  
N    2.4483512   -0.0001428   -0.3402723  
C    0.0000000    0.0000000    0.0000000  
C   -1.2757368   -0.0000186   -0.6964415  
O   -2.3524598   -0.0000639   -0.1142311  
C   -1.2676497   -0.0000872   -2.2584083  
O   -2.3355766   -0.0004101   -2.8557295  
C    0.0181558    0.0001758   -2.9516296  
H    0.0150788    0.0003319   -4.0331631  
H    4.3498547    0.0008612   -1.3200026  
H    2.7563626    0.0012823    0.6148059  
C    2.5128556    2.1077716    2.9199648  
C    1.9592212    1.6432552    4.0696553  
C    0.8915788    0.7479214    3.6910360  
C    0.8684491    0.7287414    2.2159470  
N    1.8754542    1.5738793    1.8102719  
C    0.0000000    0.0000000    1.4700000  
C   -0.9772830   -0.8200135    2.1664417  
O   -1.8021297   -1.5120829    1.5842315  
C   -0.9711318   -0.8147624    3.7284083  
O   -1.7894187   -1.5009653    4.3257297  
C    0.0140216    0.0115358    4.4216297  
H    2.2638494    1.8988021    5.0689105  
H    0.0117648    0.0094386    5.5031631  
H    3.3327358    2.7953732    2.7900019  
H    2.1123206    1.7707734    0.8551938  
