58

C    8.2934100    0.0026300   -2.1560088  
C    8.5186819    0.0035047   -3.4951606  
C    9.9505421    0.0055275   -3.6811937  
C   10.5452577    0.0057321   -2.3309703  
N    9.4875232    0.0043228   -1.4511479  
C   11.8785810    0.0070295   -2.0780834  
C   12.7886249    0.0085361   -3.2113763  
O   14.0064161    0.0098330   -3.0877491  
C   12.1807886    0.0086008   -4.6502435  
O   12.9370846    0.0101692   -5.6121559  
C   10.7273080    0.0068429   -4.7959899  
H    7.7675246    0.0029943   -4.2648200  
H   12.2941458    0.0070257   -1.0799768  
H   10.3144407    0.0066943   -5.7956226  
H    9.5702771    0.0025355   -0.4510499  
C    5.7595788    0.0007157   -2.0216249  
C    4.7795901    0.0008674   -1.0815733  
C    5.4318892    0.0011976    0.2065811  
C    6.8826348    0.0012554   -0.0619861  
N    7.0143611    0.0005546   -1.4314889  
C    7.8422287    0.0019356    0.8976404  
C    7.4178682    0.0024330    2.2877673  
O    8.2055924    0.0029961    3.2246733  
C    5.8864730    0.0021296    2.5953925  
O    5.5172077    0.0022368    3.7619704  
C    4.9477883    0.0016667    1.4761414  
H    8.9010987    0.0020953    0.6792263  
H    3.8891760    0.0016643    1.6976444  
H    5.6706931    0.0004912   -3.0958635  
C    3.3321168    0.0004716   -1.3379341  
C    2.6974177    0.0000118   -2.5332316  
C    1.2800432   -0.0002116   -2.2052842  
C    1.2395033    0.0000644   -0.7271298  
N    2.4394059    0.0005460   -0.2131041  
C    0.0000000    0.0000000    0.0000000  
C   -1.1468704    0.0000635   -0.7169542  
O   -2.3742206    0.0000074   -0.1695488  
C   -1.1388774    0.0001608   -2.2096352  
O   -2.2206238    0.0000906   -2.7970409  
C    0.1454514    0.0001818   -2.9324241  
H    3.1367978   -0.0000649   -3.5160956  
H   -2.9844350    0.0001027   -0.9290164  
H    0.1083567    0.0003684   -4.0135594  
C    0.0000000    0.0000000    1.4700000  
C    1.0541688    0.0001722    2.3260392  
C    0.5103138    0.0000454    3.6635956  
C   -0.9576371   -0.0002459    3.5155732  
N   -1.2018458    0.0001392    2.1615969  
C   -1.8348311   -0.0008317    4.5510609  
C   -1.2972847   -0.0009736    5.9014604  
O   -2.0050672   -0.0014265    6.9001319  
C    0.2542623   -0.0004184    6.0817573  
O    0.7184670   -0.0002256    7.2139121  
C    1.0974552   -0.0000873    4.8889129  
H    2.0940752    0.0005483    2.0517982  
H   -2.9081052   -0.0011668    4.4207061  
H    2.1707277    0.0000911    5.0223670  
H   -2.1128194   -0.0014912    1.7406791  
