58

C    4.5938588   -0.0516110   -6.5963383  
C    5.7671039   -0.7090563   -6.7843172  
C    6.2587529   -0.3286184   -8.0875380  
C    5.2686807    0.6111187   -8.6473970  
N    4.2841800    0.7363180   -7.6945217  
C    5.3701911    1.1990303   -9.8663151  
C    6.5320035    0.8851351  -10.6812980  
O    6.7144949    1.3632698  -11.7932258  
C    7.5930357   -0.1077544  -10.1084229  
O    8.5752154   -0.3798518  -10.7855831  
C    7.3738157   -0.6772764   -8.7812308  
H    6.2346689   -1.3836866   -6.0894293  
H    4.6327286    1.8856882  -10.2581827  
H    8.1132649   -1.3637413   -8.3917383  
H    3.4676100    1.3129811   -7.7823939  
C    4.5533949   -2.1376043   -2.6578821  
C    4.9399046   -1.7283669   -3.8886194  
C    3.8940259   -0.8167857   -4.3264062  
C    2.9285540   -0.7919270   -3.2066609  
N    3.3097737   -1.5641892   -2.2257060  
C    1.7334695    0.0049281   -3.2500363  
C    1.5131091    0.7436790   -4.3613521  
O    0.4396992    1.5328949   -4.5373375  
C    2.4688038    0.7400642   -5.5079972  
O    2.2042975    1.4366800   -6.4877849  
C    3.6875675   -0.0856734   -5.4394566  
H    5.8254286   -2.0102064   -4.4322095  
H    0.5632902    1.9263771   -5.4199756  
H    5.0606860   -2.8208826   -1.9954926  
C    1.1319246    0.0015678   -0.8009268  
C    0.7969914    0.0034958   -2.1169401  
C   -0.6453340    0.0035696   -2.1842669  
C   -1.1266832    0.0015410   -0.7896025  
N    0.0000000    0.0000000    0.0000000  
C   -2.4346129    0.0013913   -0.4276292  
C   -3.4350111    0.0031335   -1.4820181  
O   -4.6384614    0.0030875   -1.2583914  
C   -2.9478961    0.0050442   -2.9661074  
O   -3.7809382    0.0062135   -3.8623773  
C   -1.5113825    0.0053055   -3.2312122  
H   -2.7664565    0.0000174    0.6013448  
H   -1.1823533    0.0068381   -4.2614848  
H    2.1104316    0.0009435   -0.3488059  
C    2.3971438    2.0127888    3.1728260  
C    1.9431056    1.6308205    1.9564670  
C    0.8496017    0.7127664    2.2356185  
C    0.7794028    0.6545384    3.7115134  
N    1.6840587    1.4146091    4.2663826  
C   -0.1885723   -0.1578550    4.3957118  
C   -1.0476298   -0.8789867    3.6398520  
O   -2.0015663   -1.6796266    4.1448486  
C   -1.0022026   -0.8410666    2.1483229  
O   -1.8147390   -1.5232959    1.5241687  
C    0.0000000    0.0000000    1.4700000  
H    2.3054237    1.9346118    0.9892483  
H   -0.2170646   -0.1815267    5.4753125  
H   -2.4487139   -2.0549881    3.3649027  
H    3.2048689    2.6911772    3.3971983  
