60

C    3.3041270    0.0001178   -1.5420432  
C    2.5845372   -0.0004779   -0.3695853  
C    1.2040007   -0.0000006   -0.7283591  
C    1.1422373    0.0006039   -2.1454374  
N    2.4348636    0.0026110   -2.6077466  
C   -0.0655186    0.0008800   -2.8497915  
C   -1.2321770    0.0002326   -2.1101397  
O   -2.4392818    0.0001149   -2.7472515  
C   -1.1911209   -0.0000006   -0.6955262  
O   -2.4371522   -0.0002319   -0.1032858  
C    0.0000000    0.0000000    0.0000000  
H    3.0031535   -0.0000661    0.6222580  
H    2.7054625   -0.0071097   -3.5745263  
H   -3.1132993   -0.0000646   -2.0551781  
H   -2.3200286   -0.0004070    0.8516413  
C    4.7577214    0.0005130   -1.7610465  
C    5.7612594   -0.0009797   -0.8461777  
C    7.0028643    0.0003067   -1.5832343  
C    6.6377953    0.0027174   -3.0127478  
N    5.2625468    0.0023276   -3.0525136  
C    7.5310403    0.0048719   -4.0344194  
C    8.9464544    0.0045861   -3.7040574  
O    9.8285345    0.0063486   -4.5527232  
C    9.3558925    0.0017971   -2.1966893  
O   10.5445699    0.0012259   -1.9063364  
C    8.3019806   -0.0000949   -1.1851958  
H    5.6450062   -0.0029591    0.2229782  
H    7.2422424    0.0067506   -5.0762934  
H    8.5938435   -0.0018161   -0.1437848  
H    4.7106076    0.0051848   -3.8906083  
C    0.6605675   -0.7024456   -5.1602323  
C   -0.1387086    0.0017020   -4.3179679  
C   -1.0653118    0.7443399   -5.1393883  
C   -0.7380207    0.4127269   -6.5392824  
N    0.3171086   -0.4684296   -6.4831128  
C   -1.3885289    0.9128903   -7.6201989  
C   -2.4839900    1.8398446   -7.3894268  
O   -3.1316444    2.3448509   -8.2970686  
C   -2.8477053    2.2053534   -5.9150050  
O   -3.7679154    2.9849439   -5.7083353  
C   -2.0739367    1.6016380   -4.8330337  
H   -1.1326587    0.6565861   -8.6388987  
H   -2.3322398    1.8597483   -3.8150049  
H    1.4717483   -1.3724717   -4.9258385  
H    0.7669198   -0.8798730   -7.2802521  
C    2.4951002    2.0940188    2.9809380  
C    1.9440701    1.6314916    1.8291961  
C    0.8759964    0.7350050    2.2038498  
C    0.8497377    0.7130254    3.6788474  
N    1.8560616    1.5571714    4.0882609  
C   -0.0205033   -0.0168748    4.4215661  
C   -0.9962600   -0.8356168    3.7214979  
O   -1.8224391   -1.5286685    4.3006425  
C   -0.9864710   -0.8277881    2.1595606  
O   -1.8030528   -1.5133726    1.5592035  
C    0.0000000    0.0000000    1.4700000  
H    2.2509283    1.8888011    0.8310761  
H   -0.0229599   -0.0187323    5.5027230  
H    3.3143982    2.7817323    3.1139444  
H    2.0889452    1.7545833    5.0442112  
