60

C    3.3041272    0.0001175   -1.5420434  
C    2.5845371   -0.0004781   -0.3695851  
C    1.2040007   -0.0000010   -0.7283590  
C    1.1422374    0.0006034   -2.1454375  
N    2.4348638    0.0026106   -2.6077465  
C   -0.0655183    0.0008793   -2.8497921  
C   -1.2321772    0.0002320   -2.1101397  
O   -2.4392815    0.0001142   -2.7472517  
C   -1.1911208   -0.0000010   -0.6955262  
O   -2.4371526   -0.0002321   -0.1032860  
C    0.0000000    0.0000000    0.0000000  
H    3.0031534   -0.0000660    0.6222582  
H   -0.1193550    0.0014839   -3.9297469  
H   -3.1132987   -0.0000652   -2.0551785  
H   -2.3200278   -0.0004072    0.8516410  
H    4.3686624    0.0004070   -1.7024295  
C    5.6086916   -2.0215433   -4.9939693  
C    4.8416738   -1.6314637   -3.9494120  
C    3.8592057   -0.7249419   -4.5234101  
C    4.1890997   -0.6815707   -5.9641988  
N    5.2136949   -1.4397095   -6.2460165  
C    3.4372231    0.1163823   -6.8931980  
C    2.4025652    0.8378960   -6.4051039  
O    1.6159680    1.6259441   -7.1576240  
C    2.0444992    0.8147843   -4.9561681  
O    1.0903368    1.4964963   -4.5819175  
C    2.8310663   -0.0116224   -4.0232753  
H    4.9314389   -1.9229650   -2.9169169  
H    0.9732435    2.0052470   -6.5313751  
H    6.4504502   -2.6955823   -4.9845927  
C    3.7956909    0.1340573   -8.3187117  
C    4.7946240   -0.5269454   -8.9584638  
C    4.7131557   -0.1645065  -10.3537550  
C    3.5767454    0.7685457  -10.4753122  
N    3.0632554    0.9074504   -9.2064847  
C    3.1720004    1.3399351  -11.6378091  
C    3.9043778    1.0140391  -12.8502236  
O    3.6175780    1.4770233  -13.9464418  
C    5.1111665    0.0279481  -12.7449086  
O    5.7351350   -0.2541352  -13.7589856  
C    5.4522057   -0.5234893  -11.4359162  
H    5.5071144   -1.1926149   -8.5047507  
H    2.3358070    2.0219526  -11.7052048  
H    6.2892504   -1.2053478  -11.3715007  
H    2.2786765    1.4836404   -8.9625810  
C    0.0000000    0.0000000    1.4700000  
C    1.0541688    0.0001722    2.3260392  
C    0.5103138    0.0000454    3.6635956  
C   -0.9576371   -0.0002459    3.5155732  
N   -1.2018458    0.0001392    2.1615969  
C   -1.8348311   -0.0008317    4.5510609  
C   -1.2972847   -0.0009736    5.9014604  
O   -2.0050672   -0.0014265    6.9001319  
C    0.2542623   -0.0004184    6.0817573  
O    0.7184670   -0.0002256    7.2139121  
C    1.0974552   -0.0000873    4.8889129  
H    2.0940752    0.0005483    2.0517982  
H   -2.9081052   -0.0011668    4.4207061  
H    2.1707277    0.0000911    5.0223670  
H   -2.1128194   -0.0014912    1.7406791  
