62

C    3.3041272    0.0001173   -1.5420433  
C    2.5845372   -0.0004782   -0.3695856  
C    1.2040006   -0.0000008   -0.7283589  
C    1.1422373    0.0006036   -2.1454374  
N    2.4348640    0.0026108   -2.6077464  
C   -0.0655182    0.0008797   -2.8497919  
C   -1.2321768    0.0002324   -2.1101400  
O   -2.4392817    0.0001147   -2.7472520  
C   -1.1911209   -0.0000008   -0.6955261  
O   -2.4371524   -0.0002319   -0.1032862  
C    0.0000000    0.0000000    0.0000000  
H    3.0031536   -0.0000662    0.6222582  
H    2.7054629   -0.0071101   -3.5745263  
H   -3.1132988   -0.0000649   -2.0551788  
H   -2.3200280   -0.0004072    0.8516410  
H    4.3686618    0.0004067   -1.7024297  
C    2.3129715   -2.1206347   -5.9853336  
C    1.8203209   -1.6593261   -4.7866021  
C    0.7463511   -0.7716032   -5.0917861  
C    0.6289214   -0.7306576   -6.5047474  
N    1.5963345   -1.5595253   -7.0163212  
C   -0.3301682    0.0460722   -7.1617303  
C   -1.1865067    0.7948776   -6.3780517  
O   -2.1420032    1.5708500   -6.9678873  
C   -1.0848071    0.7675248   -4.9667659  
O   -2.0089556    1.5677379   -4.3272726  
C   -0.1387084    0.0017016   -4.3179687  
H    2.1903014   -1.9285748   -3.8121214  
H    1.7490275   -1.7403242   -7.9920147  
H   -2.6234317    2.0034607   -6.2507130  
H   -1.8718971    1.4918035   -3.3780343  
H    3.1197747   -2.8044122   -6.1865215  
C   -0.3489529   -0.9282897   -9.5046745  
C   -0.4587464    0.0945561   -8.6252932  
C   -0.7341479    1.2651662   -9.4440278  
C   -0.7567233    0.7529766  -10.8310161  
N   -0.5316373   -0.5321602  -10.8728422  
C   -1.0020157    1.6130828  -11.9557975  
C   -1.2154520    2.9251519  -11.7062901  
O   -1.4566521    3.8409392  -12.6598080  
C   -1.1993554    3.4723499  -10.3175939  
O   -1.4014167    4.6769361  -10.1647398  
C   -0.9454482    2.5697655   -9.1805817  
H   -1.0126218    1.2117950  -12.9586759  
H   -1.5665640    4.6794595  -12.1761184  
H   -0.9421453    3.0051787   -8.1903117  
H   -0.1470037   -1.9664599   -9.2939775  
C    2.5128556    2.1077716    2.9199648  
C    1.9592212    1.6432552    4.0696553  
C    0.8915788    0.7479214    3.6910360  
C    0.8684491    0.7287414    2.2159470  
N    1.8754542    1.5738793    1.8102719  
C    0.0000000    0.0000000    1.4700000  
C   -0.9772830   -0.8200135    2.1664417  
O   -1.8021297   -1.5120829    1.5842315  
C   -0.9711318   -0.8147624    3.7284083  
O   -1.7894187   -1.5009653    4.3257297  
C    0.0140216    0.0115358    4.4216297  
H    2.2638494    1.8988021    5.0689105  
H    0.0117648    0.0094386    5.5031631  
H    3.3327358    2.7953732    2.7900019  
H    2.1123206    1.7707734    0.8551938  
