58

C    1.7704312   -2.0997832   -5.2515181  
C    1.5928585   -1.6333170   -6.5144327  
C    0.4607457   -0.7379011   -6.4771946  
C   -0.0100424   -0.7207978   -5.0790327  
N    0.8257125   -1.5670940   -4.3875227  
C   -1.0641734    0.0073898   -4.6315339  
C   -1.7831603    0.8289565   -5.5910245  
O   -2.7459474    1.5206786   -5.2862925  
C   -1.3021140    0.8259147   -7.0770897  
O   -1.8998120    1.5134382   -7.8939924  
C   -0.1528626    0.0000282   -7.4390071  
H    2.1870130   -1.8876244   -7.3740370  
H    0.1740157    0.0036592   -8.4699583  
H    0.7607704   -1.7654786   -3.4059559  
C    5.0898715   -4.2526711   -7.2118307  
C    4.0173597   -3.4622026   -6.9492393  
C    3.7317049   -3.5946696   -5.5400944  
C    4.7329081   -4.5338193   -4.9993720  
N    5.5260717   -4.8960932   -6.0635806  
C    4.8014378   -4.9207863   -3.7004246  
C    3.8237282   -4.3761166   -2.7730879  
O    3.8020680   -4.6631159   -1.5833555  
C    2.7541134   -3.3799844   -3.3239507  
O    1.9256393   -2.9151304   -2.5527165  
C    2.7815117   -3.0383990   -4.7439583  
H    3.4867657   -2.8556953   -7.6614411  
H    5.5439658   -5.6107652   -3.3242702  
H    5.5981700   -4.4194675   -8.1476191  
H    6.3034519   -5.5287150   -6.0134100  
C    1.1319248    0.0015675   -0.8009270  
C    0.7969916    0.0034959   -2.1169404  
C   -0.6453336    0.0035703   -2.1842672  
C   -1.1266831    0.0015415   -0.7896027  
N    0.0000000    0.0000000    0.0000000  
C   -2.4346129    0.0013924   -0.4276297  
C   -3.4350110    0.0031352   -1.4820184  
O   -4.6384610    0.0030897   -1.2583919  
C   -2.9478958    0.0050460   -2.9661075  
O   -3.7809377    0.0062160   -3.8623775  
C   -1.5113821    0.0053068   -3.2312125  
H    1.4821240    0.0045436   -2.9459192  
H   -2.7664565    0.0000185    0.6013447  
H    2.1104318    0.0009428   -0.3488058  
C    2.5528530    2.1414826    2.8079335  
C    2.0663498    1.7338582    4.0032312  
C    0.9804344    0.8229586    3.6752840  
C    0.9495562    0.7966882    2.1971295  
N    1.8690446    1.5676019    1.6831036  
C    0.0000000    0.0000000    1.4700000  
C   -0.8785127   -0.7372425    2.1869543  
O   -1.8187535   -1.5261249    1.6395491  
C   -0.8723269   -0.7321790    3.6796354  
O   -1.7010379   -1.4274584    4.2670412  
C    0.1115397    0.0933559    4.4024240  
H    2.4028853    2.0163452    4.9860947  
H   -2.2861435   -1.9184361    2.3990168  
H    0.0832434    0.0693689    5.4835595  
H    3.3664920    2.8238276    2.6198634  
