58

C    3.2573672   -0.0002920   -1.5109380  
C    2.5379470   -0.0001710   -0.3591959  
C    1.1435044    0.0000331   -0.7338498  
C    1.1092609   -0.0000083   -2.2088475  
N    2.4227564    0.0001909   -2.6182609  
C   -0.0265532   -0.0002524   -2.9515660  
C   -1.3003037   -0.0002640   -2.2514978  
O   -2.3786783   -0.0004133   -2.8306423  
C   -1.2877723    0.0000311   -0.6895608  
O   -2.3539957    0.0003306   -0.0892035  
C    0.0000000    0.0000000    0.0000000  
H    2.9384091   -0.0000368    0.6389235  
H    2.7280494   -0.0013407   -3.5742112  
C    4.7161333   -0.0005436   -1.6923256  
C    5.6957078   -0.0010599   -0.7518422  
C    6.9559345   -0.0010600   -1.4565859  
C    6.6279081   -0.0004682   -2.8950537  
N    5.2541457   -0.0005758   -2.9703250  
C    7.5472429    0.0001049   -3.8933156  
C    8.9536524   -0.0000851   -3.5265071  
O    9.8573560    0.0003297   -4.3521096  
C    9.3240208   -0.0009620   -2.0090647  
O   10.5048036   -0.0014356   -1.6881077  
C    8.2443362   -0.0012471   -1.0251271  
H    5.5518792   -0.0015841    0.3139567  
H    7.2854508    0.0006636   -4.9423026  
H    8.5092052   -0.0016496    0.0234763  
H    4.7240374    0.0012975   -3.8223985  
C   -0.0307352   -0.0004647   -4.4215603  
C    1.0331815   -0.0004859   -5.2580170  
C    0.4592709   -0.0007211   -6.5948515  
C   -1.0026761   -0.0009311   -6.3728274  
N   -1.2959500   -0.0007014   -5.1008292  
C   -1.9379342   -0.0011514   -7.4638720  
C   -1.4355461   -0.0007726   -8.7196356  
O   -2.1917704   -0.0009261   -9.8305658  
C    0.0349304   -0.0001822   -8.9762653  
O    0.4213597    0.0000156  -10.1449796  
C    0.9738592   -0.0000098   -7.8403354  
H    2.0783484   -0.0002676   -4.9997494  
H   -3.0010760   -0.0015087   -7.2724587  
H   -1.5524484   -0.0005380  -10.5656984  
H    2.0313131    0.0005368   -8.0684157  
C    0.0000000    0.0000000    1.4700000  
C    1.0541688    0.0001722    2.3260392  
C    0.5103138    0.0000454    3.6635956  
C   -0.9576371   -0.0002459    3.5155732  
N   -1.2018458    0.0001392    2.1615969  
C   -1.8348311   -0.0008317    4.5510609  
C   -1.2972847   -0.0009736    5.9014604  
O   -2.0050672   -0.0014265    6.9001319  
C    0.2542623   -0.0004184    6.0817573  
O    0.7184670   -0.0002256    7.2139121  
C    1.0974552   -0.0000873    4.8889129  
H    2.0940752    0.0005483    2.0517982  
H   -2.9081052   -0.0011668    4.4207061  
H    2.1707277    0.0000911    5.0223670  
H   -2.1128194   -0.0014912    1.7406791  
