58

C    2.0060354   -2.0933382   -5.2079950  
C    1.0681400   -1.6309435   -4.3416125  
C    0.2140992   -0.7346500   -5.0846518  
C    0.7350360   -0.7126394   -6.4648440  
N    1.8215798   -1.5565847   -6.4731476  
C    0.2009226    0.0171139   -7.4767173  
C   -0.9646768    0.8356542   -7.1870517  
O   -1.5183203    1.5285633   -8.0306493  
C   -1.5330622    0.8277891   -5.7321703  
O   -2.5138750    1.5132038   -5.4762933  
C   -0.8712826    0.0001710   -4.7267111  
H    0.9842756   -1.8882191   -3.3007521  
H    0.5983676    0.0189973   -8.4821751  
H    2.8165830   -2.7808932   -5.0286317  
C    3.6766086   -5.2732880   -7.9702829  
C    2.9867888   -4.3553848   -7.2452475  
C    3.1301324   -3.0889168   -7.9237356  
C    3.9659775   -3.3460779   -9.1120203  
N    4.2641646   -4.6888640   -9.0820232  
C    4.3308650   -2.4006282  -10.0146201  
C    3.8697649   -1.0388440   -9.8013935  
O    4.1447095   -0.1164096  -10.5575818  
C    2.9836755   -0.7436704   -8.5493854  
O    2.5898070    0.3991254   -8.3592653  
C    2.6563296   -1.8456642   -7.6481054  
H    2.4400902   -4.5439332   -6.3385036  
H    4.9445257   -2.6103147  -10.8796994  
H    3.8053556   -6.3274703   -7.7858558  
H    4.8209814   -5.1705483   -9.7639187  
C    1.0965514    0.0001359   -0.8010305  
C    0.0000000    0.0000000    0.0000000  
C   -1.1546563    0.0001470   -0.8669513  
C   -0.6372014    0.0003519   -2.2486282  
N    0.7342871    0.0007337   -2.1395014  
C   -1.4147739    0.0001352   -3.3608717  
C   -2.8576049   -0.0001048   -3.1854462  
O   -3.6427779   -0.0002494   -4.1244907  
C   -3.4275840   -0.0000725   -1.7311666  
O   -4.6406831    0.0000333   -1.5710060  
C   -2.4891867   -0.0001091   -0.6116744  
H   -2.8919122   -0.0002918    0.3920866  
H    2.1388272    0.0000663   -0.5261648  
H    1.3735872   -0.0006099   -2.9130262  
C    0.0000000    0.0000000    1.4700000  
C    1.0662921    0.0000102    2.3034270  
C    0.4961870   -0.0000064    3.6418889  
C   -0.9663858    0.0000850    3.4240247  
N   -1.2632773    0.0000084    2.1528658  
C   -1.8985362    0.0000517    4.5177257  
C   -1.3925775   -0.0004564    5.7720543  
O   -2.1456383   -0.0005410    6.8851312  
C    0.0786232   -0.0009323    6.0245000  
O    0.4683759   -0.0012588    7.1921102  
C    1.0143166   -0.0008442    4.8859032  
H    2.1107198   -0.0000632    2.0421868  
H   -2.9622183    0.0003270    4.3293377  
H   -1.5042274   -0.0009692    7.6184419  
H    2.0724152   -0.0013148    5.1109744  
