58

C    1.1319241    0.0015691   -0.8009269  
C    0.7969903    0.0034967   -2.1169402  
C   -0.6453351    0.0035689   -2.1842664  
C   -1.1266840    0.0015398   -0.7896018  
N    0.0000000    0.0000000    0.0000000  
C   -2.4346137    0.0013891   -0.4276279  
C   -3.4350115    0.0031303   -1.4820169  
O   -4.6384623    0.0030831   -1.2583889  
C   -2.9478975    0.0050414   -2.9661059  
O   -3.7809399    0.0062099   -3.8623753  
C   -1.5113838    0.0053042   -3.2312116  
H   -2.7664571    0.0000150    0.6013466  
H   -1.1823548    0.0068368   -4.2614841  
H    2.1104311    0.0009455   -0.3488063  
C    2.9134282   -0.7204922   -3.3148111  
C    3.5548219   -0.5024952   -4.4917419  
C    2.7453621    0.4245025   -5.2469142  
C    1.5714053    0.7309159   -4.4074343  
N    1.7334678    0.0049298   -3.2500368  
C    0.5677703    1.5709580   -4.7662537  
C    0.6491240    2.2162025   -6.0660908  
O   -0.2045788    2.9893173   -6.4805608  
C    1.8833986    1.9060805   -6.9717371  
O    1.9626424    2.4431848   -8.0683229  
C    2.9013691    0.9833984   -6.4755048  
H    4.4883504   -0.9411678   -4.7962173  
H   -0.2845406    1.7821533   -4.1354828  
H    3.2033712   -1.3502253   -2.4894267  
C    5.2894981   -2.6417251   -7.4853365  
C    4.3529900   -1.8354663   -6.9335411  
C    4.6229053   -0.5159422   -7.4835426  
C    5.7878258   -0.7138755   -8.3725684  
N    6.1829576   -1.9579949   -8.3777592  
C    6.3707679    0.3693931   -9.1153969  
C    5.8149707    1.5946229   -8.9767049  
O    6.2561898    2.6949561   -9.6096607  
C    4.6386341    1.8263219   -8.0874865  
O    4.1844796    2.9677521   -8.0093776  
C    4.0587802    0.6989718   -7.3359708  
H    3.5750326   -2.1031229   -6.2391220  
H    7.2219798    0.1961016   -9.7575179  
H    5.6625712    3.4074898   -9.3112212  
H    5.4290049   -3.6999110   -7.3312151  
C    0.0000000    0.0000000    1.4700000  
C    1.0662921    0.0000102    2.3034270  
C    0.4961870   -0.0000064    3.6418889  
C   -0.9663858    0.0000850    3.4240247  
N   -1.2632773    0.0000084    2.1528658  
C   -1.8985362    0.0000517    4.5177257  
C   -1.3925775   -0.0004564    5.7720543  
O   -2.1456383   -0.0005410    6.8851312  
C    0.0786232   -0.0009323    6.0245000  
O    0.4683759   -0.0012588    7.1921102  
C    1.0143166   -0.0008442    4.8859032  
H    2.1107198   -0.0000632    2.0421868  
H   -2.9622183    0.0003270    4.3293377  
H   -1.5042274   -0.0009692    7.6184419  
H    2.0724152   -0.0013148    5.1109744  
