58

C    4.2926942   -2.1403413   -1.5040815  
C    5.3604709   -1.7320206   -2.2284479  
C    4.8134480   -0.8208703   -3.2219623  
C    3.3612070   -0.7952318   -2.9446113  
N    3.0500067   -1.5667026   -1.9386404  
C    2.4521483    0.0014840   -3.7217481  
C    2.9703730    0.7393569   -4.7298756  
O    2.2390463    1.5283419   -5.5352977  
C    4.4316776    0.7349405   -5.0343913  
O    4.8335653    1.4307760   -5.9668723  
C    5.3436396   -0.0906362   -4.2228050  
H    2.8845122    1.9211529   -6.1502979  
H    6.3952201   -0.0661686   -4.4754099  
H    4.2782631   -2.8230632   -0.6694220  
C    7.1175195   -5.6066637   -1.2864181  
C    8.4404835   -5.3221801   -1.2660546  
C    8.5232282   -3.9011393   -1.5665449  
C    7.1183744   -3.4754641   -1.7447871  
N    6.2898381   -4.4709142   -1.5817033  
C    6.7688489   -2.1173124   -2.0583831  
C    7.7769220   -1.2248915   -2.1876429  
O    7.5961825    0.0747072   -2.4781889  
C    9.2047857   -1.6236371   -2.0133797  
O   10.0705106   -0.7586341   -2.1457038  
C    9.5376009   -3.0228846   -1.6920319  
H    9.2591024   -5.9936937   -1.0710998  
H    8.4946969    0.4504752   -2.5031733  
H   10.5837931   -3.2712722   -1.5736385  
H    6.6399380   -6.5575798   -1.1113551  
C    0.0000000    0.0000000    0.0000000  
C    1.0662923   -0.0000101   -0.8334270  
C    0.4961873    0.0000065   -2.1718887  
C   -0.9663854   -0.0000848   -1.9540250  
N   -1.2632773   -0.0000083   -0.6828660  
C   -1.8985359   -0.0000514   -3.0477261  
C   -1.3925770    0.0004566   -4.3020547  
O   -2.1456378    0.0005414   -5.4151314  
C    0.0786240    0.0009326   -4.5545000  
O    0.4683767    0.0012591   -5.7221100  
C    1.0143171    0.0008444   -3.4159031  
H    2.1107200    0.0000633   -0.5721865  
H   -2.9622181   -0.0003268   -2.8593381  
H   -1.5042265    0.0009697   -6.1484419  
C    0.0000000    0.0000000    1.4700000  
C    1.0662921    0.0000102    2.3034270  
C    0.4961870   -0.0000064    3.6418889  
C   -0.9663858    0.0000850    3.4240247  
N   -1.2632773    0.0000084    2.1528658  
C   -1.8985362    0.0000517    4.5177257  
C   -1.3925775   -0.0004564    5.7720543  
O   -2.1456383   -0.0005410    6.8851312  
C    0.0786232   -0.0009323    6.0245000  
O    0.4683759   -0.0012588    7.1921102  
C    1.0143166   -0.0008442    4.8859032  
H    2.1107198   -0.0000632    2.0421868  
H   -2.9622183    0.0003270    4.3293377  
H   -1.5042274   -0.0009692    7.6184419  
H    2.0724152   -0.0013148    5.1109744  
