60

C   -2.7135148    1.8786119   -1.4738977  
C   -2.0745838    1.4363340   -2.6090739  
C   -0.9554665    0.6618714   -2.1820099  
C   -0.9628650    0.6667644   -0.7636138  
N   -2.0422526    1.4161839   -0.3662350  
C    0.0000000    0.0000000    0.0000000  
C    0.9881625   -0.6844192   -0.6806482  
O    1.9530430   -1.3530118    0.0157739  
C    1.0126753   -0.7007104   -2.0955512  
O    2.0601717   -1.4258022   -2.6250186  
C    0.0632633   -0.0429294   -2.8495194  
H   -2.3098751    1.5889858    0.5858674  
H    2.5349703   -1.7556451   -0.6418822  
H    2.0032883   -1.3859836   -3.5845927  
H    0.1079718   -0.0731451   -3.9319087  
H   -3.5941241    2.4885275   -1.3667125  
C   -3.6522820    5.0738313   -4.5522449  
C   -3.1652080    4.1738900   -3.6595304  
C   -2.9538814    2.9397365   -4.3785862  
C   -3.3606539    3.1962877   -5.7734008  
N   -3.7743501    4.5078665   -5.8122142  
C   -3.3111267    2.2767771   -6.7702719  
C   -2.8249385    0.9455300   -6.4478778  
O   -2.7425728    0.0478363   -7.2759253  
C   -2.3890325    0.6515352   -4.9770424  
O   -1.9783124   -0.4657139   -4.6936260  
C   -2.4877705    1.7240018   -3.9901692  
H   -2.9757692    4.3539953   -2.6163196  
H   -3.6141734    2.4855125   -7.7868855  
H   -4.1109842    4.9816177   -6.6303122  
C   -3.9675469    7.1557341   -3.1643354  
C   -4.0344704    6.4771204   -4.3386777  
C   -4.5499081    7.3952707   -5.3266854  
C   -4.7794068    8.6735914   -4.6266730  
N   -4.4070501    8.4617117   -3.3192529  
C   -5.2636051    9.7964238   -5.2153193  
C   -5.5800240    9.7422196   -6.6328790  
O   -6.0211675   10.7002889   -7.2540057  
C   -5.3450581    8.3986443   -7.3940627  
O   -5.6080896    8.3408906   -8.5876868  
C   -4.8183609    7.2563482   -6.6513637  
H   -5.4244451   10.7240218   -4.6837157  
H   -4.6583330    6.3297864   -7.1857770  
H   -3.6343343    6.8115942   -2.1987129  
H   -4.4463985    9.1503653   -2.5903802  
C    0.8175213    0.6860729    2.3021913  
C    0.0000000    0.0000000    1.4700000  
C   -0.8887526   -0.7456559    2.3478473  
C   -0.4549825   -0.3816753    3.7138435  
N    0.5448156    0.4573574    3.6934124  
C   -1.0945674   -0.9182058    4.8835240  
C   -2.1210866   -1.7789155    4.6970523  
O   -2.8083856   -2.3554314    5.6976972  
C   -2.5824069   -2.1655116    3.3310774  
O   -3.5227682   -2.9541547    3.2362962  
C   -1.9100805   -1.6015804    2.1470656  
H   -0.7567140   -0.6349833    5.8697035  
H   -3.4728268   -2.9124471    5.2533954  
H   -2.2742832   -1.9066565    1.1752040  
H    1.6189533    1.3585343    2.0405121  
