58

C    2.4364848   -2.0071540   -6.1860710  
C    2.0236459   -1.6263247   -4.9547657  
C    0.9193444   -0.7104607   -5.1960338  
C    0.7984587   -0.6521218   -6.6686392  
N    1.6851029   -1.4102453   -7.2543875  
C   -0.1940622    0.1584084   -7.3190460  
C   -1.0281632    0.8776513   -6.5339988  
O   -2.0004851    1.6764260   -7.0057934  
C   -0.9315399    0.8395672   -5.0449138  
O   -1.7235844    1.5200257   -4.3930992  
C    0.0950452    0.0004348   -4.4015598  
H    2.4195361   -1.9295415   -4.0006135  
H   -2.4213889    2.0507380   -6.2108826  
H    3.2374215   -2.6838504   -6.4381727  
C    3.3321173    0.0004715   -1.3379334  
C    2.6974184    0.0000114   -2.5332308  
C    1.2800440   -0.0002119   -2.2052841  
C    1.2395036    0.0000643   -0.7271296  
N    2.4394062    0.0005459   -0.2131035  
C    0.0000000    0.0000000    0.0000000  
C   -1.1468701    0.0000634   -0.7169544  
O   -2.3742202    0.0000073   -0.1695492  
C   -1.1388766    0.0001604   -2.2096352  
O   -2.2206230    0.0000901   -2.7970412  
C    0.1454526    0.0001813   -2.9324236  
H    3.1367989   -0.0000655   -3.5160947  
H   -2.9844343    0.0001025   -0.9290173  
H    4.3940040    0.0007616   -1.1498634  
C    0.1575723   -2.8524840  -10.5863570  
C    0.1287776   -2.2951952   -9.3534012  
C   -0.1364598   -0.8837713   -9.5858484  
C   -0.2424041   -0.7615844  -11.0556887  
N   -0.0710146   -1.9123758  -11.6475448  
C   -0.5038891    0.4972357  -11.6976262  
C   -0.6531505    1.5844962  -10.9071074  
O   -0.9005537    2.8213521  -11.3708094  
C   -0.5521960    1.4934238   -9.4206096  
O   -0.6987861    2.5239197   -8.7634869  
C   -0.2832554    0.1907950   -8.7859804  
H    0.2699874   -2.7818213   -8.4034908  
H   -0.5760239    0.5574458  -12.7737686  
H   -0.9547901    3.3787701  -10.5736288  
H    0.3271996   -3.8857569  -10.8443239  
C    2.3971438    2.0127888    3.1728260  
C    1.9431056    1.6308205    1.9564670  
C    0.8496017    0.7127664    2.2356185  
C    0.7794028    0.6545384    3.7115134  
N    1.6840587    1.4146091    4.2663826  
C   -0.1885723   -0.1578550    4.3957118  
C   -1.0476298   -0.8789867    3.6398520  
O   -2.0015663   -1.6796266    4.1448486  
C   -1.0022026   -0.8410666    2.1483229  
O   -1.8147390   -1.5232959    1.5241687  
C    0.0000000    0.0000000    1.4700000  
H    2.3054237    1.9346118    0.9892483  
H   -0.2170646   -0.1815267    5.4753125  
H   -2.4487139   -2.0549881    3.3649027  
H    3.2048689    2.6911772    3.3971983  
