58

C   -1.1313486    0.0361426   -0.8009269  
C   -0.7966658    0.0230574   -2.1169401  
C    0.6448567   -0.0250666   -2.1842672  
C    1.1260065   -0.0390749   -0.7896029  
N    0.0000000    0.0000000    0.0000000  
C    2.4332152   -0.0824983   -0.4276294  
C    3.4330001   -0.1175673   -1.4820183  
O    4.6357835   -0.1576137   -1.2583919  
C    2.9460913   -0.1032490   -2.9661078  
O    3.7786321   -0.1321703   -3.8623777  
C    1.5103665   -0.0556537   -3.2312127  
H   -1.4814523    0.0448349   -2.9459193  
H    2.7649204   -0.0921803    0.6013445  
H   -2.1092919    0.0693649   -0.3488058  
C    1.0633367   -0.0428368   -4.6315339  
C   -0.2053118   -0.0021952   -5.1010638  
C   -0.0695520   -0.0083808   -6.5495224  
C    1.3891995   -0.0559537   -6.7869351  
N    2.0584250   -0.0764032   -5.6663519  
C    1.9440894   -0.0756186   -8.1123771  
C    1.0809129   -0.0493584   -9.1533250  
O    1.4593998   -0.0633017  -10.4427414  
C   -0.3965820   -0.0015983   -8.9462287  
O   -1.1227433    0.0204512   -9.9399207  
C   -0.9411905    0.0178408   -7.5769411  
H   -1.1202560    0.0281344   -4.5344661  
H    3.0141045   -0.1102692   -8.2565174  
H    0.6257063   -0.0372660  -10.9461594  
C   -2.4031587    0.0648588   -7.4308646  
C   -3.1260745    0.0897608   -6.2870322  
C   -4.5138750    0.1334988   -6.7213094  
C   -4.4425337    0.1290432   -8.1982908  
N   -3.2078250    0.0888001   -8.6200303  
C   -5.6228873    0.1655352   -9.0171437  
C   -6.8201019    0.2043094   -8.3890444  
O   -8.0019315    0.2410734   -9.0277679  
C   -6.9249905    0.2094726   -6.9000404  
O   -8.0475019    0.2458470   -6.3961895  
C   -5.6996326    0.1715935   -6.0821240  
H   -2.7624794    0.0796026   -5.2737349  
H   -5.5412179    0.1615458  -10.0942810  
H   -8.6675124    0.2630385   -8.3166615  
H   -5.8183458    0.1765702   -5.0068977  
C    0.8175213    0.6860729    2.3021913  
C    0.0000000    0.0000000    1.4700000  
C   -0.8887526   -0.7456559    2.3478473  
C   -0.4549825   -0.3816753    3.7138435  
N    0.5448156    0.4573574    3.6934124  
C   -1.0945674   -0.9182058    4.8835240  
C   -2.1210866   -1.7789155    4.6970523  
O   -2.8083856   -2.3554314    5.6976972  
C   -2.5824069   -2.1655116    3.3310774  
O   -3.5227682   -2.9541547    3.2362962  
C   -1.9100805   -1.6015804    2.1470656  
H   -0.7567140   -0.6349833    5.8697035  
H   -3.4728268   -2.9124471    5.2533954  
H   -2.2742832   -1.9066565    1.1752040  
H    1.6189533    1.3585343    2.0405121  
