58

C   -3.2798089    0.0016579   -1.4499641  
C   -2.5571155    0.0011927   -2.5996549  
C   -1.1637440    0.0006414   -2.2210358  
C   -1.1336964    0.0007955   -0.7459466  
N   -2.4483508    0.0018177   -0.3402713  
C    0.0000000    0.0000000    0.0000000  
C    1.2757365   -0.0008538   -0.6964419  
O    2.3524585   -0.0015451   -0.1142321  
C    1.2676485   -0.0007796   -2.2584084  
O    2.3355748   -0.0011872   -2.8557301  
C   -0.0181574   -0.0001633   -2.9516296  
H   -2.9547358    0.0014138   -3.5989097  
H   -0.0150804   -0.0003213   -4.0331626  
H   -2.7563631    0.0006030    0.6148069  
C   -6.4690095    0.0024495   -4.4192220  
C   -7.5790620    0.0026612   -3.6450370  
C   -7.0826152    0.0026685   -2.2775427  
C   -5.6103560    0.0023294   -2.4155185  
N   -5.2447516    0.0022804   -3.6686438  
C   -4.7390850    0.0022803   -1.2727270  
C   -5.3125310    0.0029464   -0.0477806  
O   -4.6211383    0.0029785    1.1046155  
C   -6.7952862    0.0036736    0.1242559  
O   -7.2479816    0.0041343    1.2689334  
C   -7.6676533    0.0036657   -1.0635576  
H   -5.3014924    0.0035545    1.8019464  
H   -8.7364289    0.0043198   -0.8963814  
H   -6.4103425    0.0023834   -5.4960378  
C   -8.9836123    0.0029683   -4.0787873  
C   -9.4653026    0.0030246   -5.3435215  
C  -10.9123909    0.0033783   -5.1937373  
C  -11.1357857    0.0033890   -3.7319991  
N  -10.0088275    0.0032300   -3.0732480  
C  -12.4558382    0.0037449   -3.1640677  
C  -13.5050280    0.0044639   -4.0176120  
O  -14.7907509    0.0048571   -3.6265140  
C  -13.3121288    0.0048441   -5.4977978  
O  -14.3127488    0.0053752   -6.2147219  
C  -11.9481336    0.0044237   -6.0558671  
H   -8.9075166    0.0029380   -6.2643639  
H  -12.5896978    0.0035375   -2.0921578  
H  -15.3021518    0.0053737   -4.4557435  
H  -11.8509723    0.0048346   -7.1332661  
C    0.8175213    0.6860729    2.3021913  
C    0.0000000    0.0000000    1.4700000  
C   -0.8887526   -0.7456559    2.3478473  
C   -0.4549825   -0.3816753    3.7138435  
N    0.5448156    0.4573574    3.6934124  
C   -1.0945674   -0.9182058    4.8835240  
C   -2.1210866   -1.7789155    4.6970523  
O   -2.8083856   -2.3554314    5.6976972  
C   -2.5824069   -2.1655116    3.3310774  
O   -3.5227682   -2.9541547    3.2362962  
C   -1.9100805   -1.6015804    2.1470656  
H   -0.7567140   -0.6349833    5.8697035  
H   -3.4728268   -2.9124471    5.2533954  
H   -2.2742832   -1.9066565    1.1752040  
H    1.6189533    1.3585343    2.0405121  
