58

C    0.0000000    0.0000000    0.0000000  
C    1.0541693   -0.0001721   -0.8560389  
C    0.5103146   -0.0000453   -2.1935956  
C   -0.9576361    0.0002459   -2.0455734  
N   -1.2018454   -0.0001390   -0.6915973  
C   -1.8348302    0.0008319   -3.0810614  
C   -1.2972832    0.0009738   -4.4314609  
O   -2.0050656    0.0014267   -5.4301325  
C    0.2542641    0.0004187   -4.6117571  
O    0.7184691    0.0002259   -5.7439122  
C    1.0974562    0.0000874   -3.4189126  
H    2.0940753   -0.0005483   -0.5817979  
H    2.1707291   -0.0000911   -3.5523664  
H   -2.1128190    0.0014913   -0.2706797  
C   -4.3137495    2.1424312   -0.2077343  
C   -5.5591243    1.7353211   -0.5466770  
C   -5.3648100    0.8246403   -1.6644436  
C   -3.9011707    0.7979208   -1.8733231  
N   -3.2797683    1.5684038   -1.0223210  
C   -3.2941063    0.0012876   -2.9038251  
C   -4.1120047   -0.7354735   -3.6896749  
O   -3.6822278   -1.5242476   -4.6892580  
C   -5.5930489   -0.7299487   -3.5035615  
O   -6.2763249   -1.4248014   -4.2555819  
C   -6.1916574    0.0955196   -2.4395156  
H   -4.4926424   -1.9161854   -5.0617706  
H   -7.2683261    0.0718761   -2.3372602  
H   -4.0287176    2.8244777    0.5774679  
C   -7.2110730    3.3449013    0.5113583  
C   -6.8358058    2.1213106    0.0713809  
C   -7.9759838    1.2593149    0.3424121  
C   -8.9779641    2.1512465    0.9645680  
N   -8.5352592    3.3750448    1.0661531  
C  -10.2656903    1.6722272    1.3857425  
C  -10.5401167    0.3618220    1.1937440  
O  -11.7013220   -0.2201996    1.5385535  
C   -9.5499038   -0.5635879    0.5682389  
O   -9.8673234   -1.7441751    0.4244376  
C   -8.2358086   -0.0481369    0.1446957  
H  -10.9785515    2.3463033    1.8378044  
H  -11.5979132   -1.1532869    1.2781553  
H   -7.5466018   -0.7506496   -0.3044152  
H   -6.6431536    4.2614016    0.4897169  
C    3.1301144    0.0010313    3.1728260  
C    2.5367765    0.0002768    1.9564670  
C    1.1089900   -0.0001027    2.2356185  
C    1.0177864    0.0004150    3.7115134  
N    2.1993570    0.0011613    4.2663826  
C   -0.2459220    0.0002880    4.3957118  
C   -1.3675327    0.0000606    3.6398520  
O   -2.6129319   -0.0000866    4.1448486  
C   -1.3083589   -0.0000910    2.1483229  
O   -2.3693264   -0.0004206    1.5241687  
C    0.0000000    0.0000000    1.4700000  
H    3.0096015    0.0001008    0.9892483  
H   -0.2829642    0.0004689    5.4753125  
H   -3.1967446   -0.0002093    3.3649027  
H    4.1849273    0.0015113    3.3971983  
