58

C    3.2798089    0.0005856   -1.4499646  
C    2.5571149    0.0005566   -2.5996552  
C    1.1637439    0.0001548   -2.2210361  
C    1.1336965   -0.0000200   -0.7459471  
N    2.4483514   -0.0001428   -0.3402718  
C    0.0000000    0.0000000    0.0000000  
C   -1.2757365   -0.0000186   -0.6964416  
O   -2.3524596   -0.0000639   -0.1142316  
C   -1.2676491   -0.0000873   -2.2584087  
O   -2.3355755   -0.0004099   -2.8557302  
C    0.0181562    0.0001760   -2.9516294  
H    0.0150795    0.0003319   -4.0331630  
H    4.3498551    0.0008612   -1.3200017  
H    2.7563627    0.0012822    0.6148065  
C    5.9736436   -2.1043580   -4.3829112  
C    5.8838299   -1.6403862   -5.6559934  
C    4.7509396   -0.7462252   -5.6992513  
C    4.1840563   -0.7271402   -4.3372414  
N    4.9705839   -1.5712081   -3.5876993  
C    3.1006062    0.0006262   -3.9654946  
C    2.4492231    0.8196157   -4.9742024  
O    1.4668602    1.5107652   -4.7384563  
C    3.0324371    0.8144455   -6.4232158  
O    2.4922738    1.4997915   -7.2809950  
C    4.2049283   -0.0107542   -6.7027910  
H    6.5365805   -1.8955559   -6.4717252  
H    6.6880814   -2.7910790   -3.9587849  
H    4.8377545   -1.7678913   -2.6126515  
C    5.8149030   -3.2341545   -9.2129725  
C    6.1197060   -2.5203144  -10.3272447  
C    5.7525768   -1.1492240  -10.0623621  
C    5.2050029   -1.1225973   -8.6926013  
N    5.2703514   -2.4178316   -8.2332684  
C    4.7455645   -0.0078373   -8.0697601  
C    4.7933792    1.2496307   -8.7970999  
O    4.4034027    2.3086081   -8.3229830  
C    5.3690962    1.2447552  -10.2491086  
O    5.4141102    2.2973640  -10.8714033  
C    5.8342395   -0.0198263  -10.8133144  
H    6.5521829   -2.9098200  -11.2316022  
H    6.2316458   -0.0146234  -11.8191798  
H    5.9420771   -4.2879309   -9.0251653  
H    4.9706906   -2.7227454   -7.3253707  
C    0.0000000    0.0000000    1.4700000  
C    1.0662921    0.0000102    2.3034270  
C    0.4961870   -0.0000064    3.6418889  
C   -0.9663858    0.0000850    3.4240247  
N   -1.2632773    0.0000084    2.1528658  
C   -1.8985362    0.0000517    4.5177257  
C   -1.3925775   -0.0004564    5.7720543  
O   -2.1456383   -0.0005410    6.8851312  
C    0.0786232   -0.0009323    6.0245000  
O    0.4683759   -0.0012588    7.1921102  
C    1.0143166   -0.0008442    4.8859032  
H    2.1107198   -0.0000632    2.0421868  
H   -2.9622183    0.0003270    4.3293377  
H   -1.5042274   -0.0009692    7.6184419  
H    2.0724152   -0.0013148    5.1109744  
