62

C    0.0000000    0.0000000    0.0000000  
C   -1.0521661   -0.0016538   -0.8862343  
C   -0.4917231   -0.0001333   -2.1979132  
C    0.9187399    0.0021685   -2.0478684  
N    1.1833105    0.0041394   -0.7007914  
C    1.7951667    0.0038172   -3.1372092  
C    1.2375807    0.0028227   -4.4010426  
O    2.0474180    0.0039981   -5.4997578  
C   -0.1673610    0.0009044   -4.5711964  
O   -0.5673558    0.0005354   -5.8915554  
C   -1.0325794   -0.0004496   -3.4969891  
H   -2.0953062   -0.0025985   -0.6200564  
H    2.0989968   -0.0045638   -0.2891829  
H    2.8710889    0.0057184   -3.0295514  
H    1.4634847    0.0033061   -6.2693595  
H   -1.5290744   -0.0008175   -5.9180049  
C   -2.4861732   -0.0021816   -3.7159923  
C   -3.4897101   -0.0035377   -2.8011223  
C   -4.7313140   -0.0049723   -3.5381794  
C   -4.3662463   -0.0043654   -4.9676955  
N   -2.9909993   -0.0022646   -5.0074605  
C   -5.2594907   -0.0057387   -5.9893685  
C   -6.6749026   -0.0077367   -5.6590061  
O   -7.5569816   -0.0090172   -6.5076735  
C   -7.0843393   -0.0081590   -4.1516350  
O   -8.2730160   -0.0095290   -3.8612812  
C   -6.0304283   -0.0068382   -3.1401404  
H   -3.3734565   -0.0033513   -1.7319644  
H   -4.9706926   -0.0053910   -7.0312447  
H   -2.4390593   -0.0029499   -5.8455594  
C   -4.4089106    2.1188006    0.4434334  
C   -4.6230301    1.6565468   -0.8344327  
C   -5.7366442    0.7672459   -0.7743670  
C   -6.1641840    0.7263554    0.5774703  
N   -5.3353724    1.5567744    1.2902770  
C   -7.2438866   -0.0517201    1.0059903  
C   -7.9042062   -0.8019533    0.0524152  
O   -8.9655276   -1.5792771    0.4162532  
C   -7.4923571   -0.7746793   -1.3012665  
O   -8.2506761   -1.5763993   -2.1292405  
C   -6.4271208   -0.0075288   -1.7246777  
H   -4.0467072    1.9261958   -1.7028418  
H   -5.4029329    1.7379660    2.2754605  
H   -7.5746105   -0.0873493    2.0348510  
H   -9.2754497   -2.0127359   -0.3895543  
H   -7.9068001   -1.5004138   -3.0245500  
H   -3.6677310    2.8038344    0.8180536  
C    3.1301144    0.0010313    3.1728260  
C    2.5367765    0.0002768    1.9564670  
C    1.1089900   -0.0001027    2.2356185  
C    1.0177864    0.0004150    3.7115134  
N    2.1993570    0.0011613    4.2663826  
C   -0.2459220    0.0002880    4.3957118  
C   -1.3675327    0.0000606    3.6398520  
O   -2.6129319   -0.0000866    4.1448486  
C   -1.3083589   -0.0000910    2.1483229  
O   -2.3693264   -0.0004206    1.5241687  
C    0.0000000    0.0000000    1.4700000  
H    3.0096015    0.0001008    0.9892483  
H   -0.2829642    0.0004689    5.4753125  
H   -3.1967446   -0.0002093    3.3649027  
H    4.1849273    0.0015113    3.3971983  
