62

C   -4.7630506   -0.0017261   -1.3275389  
C   -5.7496382   -0.0041248   -2.2862394  
C   -6.9989995   -0.0038895   -1.5979835  
C   -6.7092697   -0.0009933   -0.2094684  
N   -5.3425445   -0.0016914   -0.0803276  
C   -7.7059384    0.0003208    0.7710617  
C   -9.0190065   -0.0010117    0.3420785  
O  -10.0316333    0.0005299    1.2572836  
C   -9.3281955   -0.0042756   -1.0389385  
O  -10.6818176   -0.0056693   -1.3054849  
C   -8.3454697   -0.0058468   -2.0068093  
H   -5.5886403   -0.0069392   -3.3506946  
H   -4.8418176    0.0104574    0.7897908  
H   -7.4916930    0.0023831    1.8309189  
H  -10.8555486   -0.0010899    0.7528775  
H  -10.8038881   -0.0078436   -2.2597896  
C   -3.3003548   -0.0013941   -1.4738977  
C   -2.5232815   -0.0010120   -2.6090739  
C   -1.1623206   -0.0001731   -2.1820097  
C   -1.1711886   -0.0003658   -0.7636136  
N   -2.4852304    0.0008394   -0.3662353  
C    0.0000000    0.0000000    0.0000000  
C    1.2020380    0.0002638   -0.6806477  
O    2.3759255    0.0002744    0.0157743  
C    1.2314650    0.0008347   -2.0955509  
O    2.5054380    0.0014616   -2.6250181  
C    0.0764505    0.0007474   -2.8495190  
H   -2.8919962   -0.0001972   -3.6205292  
H   -2.8036244   -0.0095543    0.5858671  
H    3.0835632    0.0007749   -0.6418820  
H    2.4360040    0.0017925   -3.5845923  
H    0.1304089    0.0013765   -3.9319086  
C   -6.8036509   -2.0261799   -5.6681601  
C   -6.9438691   -1.6412590   -4.3782944  
C   -8.0731152   -0.7240380   -4.3812300  
C   -8.5052808   -0.6694733   -5.7943259  
N   -7.7649094   -1.4308003   -6.5534184  
C   -9.6127226    0.1411004   -6.2205057  
C  -10.2592928    0.8639920   -5.2777923  
O  -11.3089143    1.6632577   -5.5337447  
C   -9.8472923    0.8297707   -3.8434824  
O  -10.4812419    1.5134398   -3.0397880  
C   -8.7081089   -0.0094864   -3.4313725  
H   -6.3539197   -1.9426085   -3.5296343  
H   -9.9066815    0.1620954   -7.2597633  
H  -11.5501099    2.0404923   -4.6684863  
H   -6.0757432   -2.7050189   -6.0832520  
C    2.3971438    2.0127888    3.1728260  
C    1.9431056    1.6308205    1.9564670  
C    0.8496017    0.7127664    2.2356185  
C    0.7794028    0.6545384    3.7115134  
N    1.6840587    1.4146091    4.2663826  
C   -0.1885723   -0.1578550    4.3957118  
C   -1.0476298   -0.8789867    3.6398520  
O   -2.0015663   -1.6796266    4.1448486  
C   -1.0022026   -0.8410666    2.1483229  
O   -1.8147390   -1.5232959    1.5241687  
C    0.0000000    0.0000000    1.4700000  
H    2.3054237    1.9346118    0.9892483  
H   -0.2170646   -0.1815267    5.4753125  
H   -2.4487139   -2.0549881    3.3649027  
H    3.2048689    2.6911772    3.3971983  
