60

C    1.1243411    0.0100026   -0.7919004  
C    0.7474071    0.0234613   -2.1148551  
C   -0.6787384    0.0234422   -2.1414704  
C   -1.1201745    0.0098483   -0.7935555  
N    0.0000000    0.0000000    0.0000000  
C   -2.4730816    0.0063472   -0.4408241  
C   -3.3971960    0.0170656   -1.4675060  
O   -4.7313522    0.0145808   -1.1793467  
C   -2.9763656    0.0303221   -2.8186324  
O   -4.0166481    0.0394731   -3.7247626  
C   -1.6418570    0.0335101   -3.1673484  
H    1.4178713    0.0311102   -2.9571212  
H   -2.8160166   -0.0041379    0.5845965  
H   -5.1938821    0.0230372   -2.0274390  
H   -3.6464680    0.0481939   -4.6127343  
H    2.1062466    0.0053018   -0.3505411  
C   -0.1936758   -0.6738947   -5.1271223  
C   -0.0848703   -0.4442870   -6.4611074  
C   -1.1307898    0.4861841   -6.8148177  
C   -1.8630904    0.7819826   -5.5686117  
N   -1.2456339    0.0471604   -4.5828770  
C   -2.9257077    1.6216592   -5.4820511  
C   -3.3784995    2.2776848   -6.6974298  
O   -4.3266797    3.0513724   -6.7231437  
C   -2.6179146    1.9789096   -8.0286130  
O   -2.9902086    2.5251438   -9.0583151  
C   -1.4864716    1.0555280   -7.9961202  
H    0.6446949   -0.8774561   -7.1219504  
H   -3.4487332    1.8249756   -4.5579212  
H    0.4059922   -1.3093613   -4.4958771  
C   -0.7778009    0.7818322   -9.2546023  
C    0.2855555   -0.0316339   -9.4524004  
C    0.5771040    0.0711330  -10.8739973  
C   -0.4354308    1.0145590  -11.3948672  
N   -1.2324002    1.4345800  -10.4501915  
C   -0.4864985    1.3864220  -12.7820214  
C    0.4324336    0.8409122  -13.6110663  
O    0.5018540    1.0986444  -14.9281830  
C    1.4672310   -0.1139852  -13.1155598  
O    2.2721454   -0.5717472  -13.9266007  
C    1.4988194   -0.4797184  -11.6882668  
H    0.8076719   -0.6277250   -8.7236025  
H   -1.2374468    2.0779607  -13.1352364  
H    1.2536009    0.5664577  -15.2456834  
H    2.2641083   -1.1744906  -11.3691206  
C    2.3971438    2.0127888    3.1728260  
C    1.9431056    1.6308205    1.9564670  
C    0.8496017    0.7127664    2.2356185  
C    0.7794028    0.6545384    3.7115134  
N    1.6840587    1.4146091    4.2663826  
C   -0.1885723   -0.1578550    4.3957118  
C   -1.0476298   -0.8789867    3.6398520  
O   -2.0015663   -1.6796266    4.1448486  
C   -1.0022026   -0.8410666    2.1483229  
O   -1.8147390   -1.5232959    1.5241687  
C    0.0000000    0.0000000    1.4700000  
H    2.3054237    1.9346118    0.9892483  
H   -0.2170646   -0.1815267    5.4753125  
H   -2.4487139   -2.0549881    3.3649027  
H    3.2048689    2.6911772    3.3971983  
