58

C   -3.2567594   -0.0629032   -1.5109386  
C   -2.5374724   -0.0490669   -0.3591963  
C   -1.1432883   -0.0222179   -0.7338497  
C   -1.1090517   -0.0215123   -2.2088474  
N   -2.4222962   -0.0471941   -2.6182611  
C    0.0265437    0.0007672   -2.9515658  
C    1.3000540    0.0254904   -2.2514976  
O    2.3782233    0.0465607   -2.8306421  
C    1.2875311    0.0249523   -0.6895607  
O    2.3535590    0.0453384   -0.0892030  
C    0.0000000    0.0000000    0.0000000  
H   -2.9378566   -0.0569703    0.6389241  
H    0.0296159    0.0009830   -4.0327230  
H   -4.3262340   -0.0834711   -1.6439444  
C   -2.8694636   -0.0536273   -4.0185828  
C   -4.1385451   -0.0770932   -4.4881141  
C   -4.0027197   -0.0723656   -5.9365717  
C   -2.5434658   -0.0441226   -6.1739824  
N   -1.8740185   -0.0331153   -5.0533986  
C   -1.9883658   -0.0316080   -7.4994234  
C   -2.8518018   -0.0470141   -8.5403726  
O   -2.4731635   -0.0379659   -9.8297881  
C   -4.3297854   -0.0759532   -8.3332799  
O   -5.0561688   -0.0886373   -9.3269733  
C   -4.8746037   -0.0882826   -6.9639934  
H   -5.0538095   -0.0954456   -3.9215175  
H   -3.3071171   -0.0535309  -10.3332081  
H   -5.9508139   -0.1094145   -6.8564989  
C    1.3387563   -2.0643852   -5.4271038  
C    0.1150651   -1.6249201   -5.8189272  
C    0.3264547   -0.7227427   -6.9262778  
C    1.7840560   -0.6722908   -7.1490854  
N    2.3403240   -1.5070621   -6.2074844  
C    2.3897670    0.0707020   -8.1097003  
C    1.5500683    0.8744956   -8.9822578  
O    2.0002902    1.5775422   -9.8774259  
C    0.0038499    0.8364902   -8.7641536  
O   -0.7132356    1.5092846   -9.4924369  
C   -0.5317876   -0.0031942   -7.6955685  
H   -0.8280232   -1.9010769   -5.3819657  
H    3.4606888    0.0934538   -8.2563931  
H    1.5931616   -2.7483383   -4.6337718  
H    3.3224356   -1.6856580   -6.1044939  
C    2.3971438    2.0127888    3.1728260  
C    1.9431056    1.6308205    1.9564670  
C    0.8496017    0.7127664    2.2356185  
C    0.7794028    0.6545384    3.7115134  
N    1.6840587    1.4146091    4.2663826  
C   -0.1885723   -0.1578550    4.3957118  
C   -1.0476298   -0.8789867    3.6398520  
O   -2.0015663   -1.6796266    4.1448486  
C   -1.0022026   -0.8410666    2.1483229  
O   -1.8147390   -1.5232959    1.5241687  
C    0.0000000    0.0000000    1.4700000  
H    2.3054237    1.9346118    0.9892483  
H   -0.2170646   -0.1815267    5.4753125  
H   -2.4487139   -2.0549881    3.3649027  
H    3.2048689    2.6911772    3.3971983  
