58

C    1.1319248    0.0015696   -0.8009268  
C    0.7969912    0.0034971   -2.1169400  
C   -0.6453339    0.0035684   -2.1842669  
C   -1.1266833    0.0015392   -0.7896024  
N    0.0000000    0.0000000    0.0000000  
C   -2.4346126    0.0013873   -0.4276294  
C   -3.4350110    0.0031282   -1.4820179  
O   -4.6384612    0.0030804   -1.2583909  
C   -2.9478963    0.0050398   -2.9661070  
O   -3.7809381    0.0062078   -3.8623773  
C   -1.5113830    0.0053032   -3.2312123  
H   -2.7664562    0.0000130    0.6013450  
H   -1.1823533    0.0068362   -4.2614848  
H    2.1104315    0.0009468   -0.3488058  
C    4.5953966   -2.1014890   -2.7684681  
C    4.9007896   -1.6358374   -4.0070072  
C    3.8360934   -0.7408463   -4.3946268  
C    2.8785335   -0.7231045   -3.2723281  
N    3.3968165   -1.5686630   -2.3187544  
C    1.7334691    0.0049309   -3.2500364  
C    1.4233467    0.8256481   -4.4088217  
O    0.4162238    1.5171702   -4.4849913  
C    2.4231572    0.8219202   -5.6088924  
O    2.1725267    1.5087261   -6.5900873  
C    3.6246487   -0.0037263   -5.5162700  
H    4.3119091   -0.0005742   -6.3513669  
H    5.1449916   -2.7892376   -2.1465060  
H    2.9710736   -1.7664948   -1.4318201  
C    7.2275233   -5.3612374   -4.7634110  
C    6.2884630   -4.5093815   -4.2900321  
C    6.6261707   -3.2187505   -4.8703121  
C    7.8290403   -3.4815665   -5.6892241  
N    8.1861953   -4.7357532   -5.6305284  
C    8.4820644   -2.4427695   -6.4372525  
C    7.9570530   -1.1980820   -6.3705419  
O    8.4634368   -0.1342574   -7.0169885  
C    6.7437966   -0.9012057   -5.5532078  
O    6.3208525    0.2547045   -5.5386964  
C    6.0920755   -1.9838117   -4.7948222  
H    5.4678869   -4.7296512   -3.6288125  
H    9.3597531   -2.6631701   -7.0271653  
H    7.8769356    0.6051132   -6.7751187  
H    7.3268768   -6.4166945   -4.5656442  
C    2.5528530    2.1414826    2.8079335  
C    2.0663498    1.7338582    4.0032312  
C    0.9804344    0.8229586    3.6752840  
C    0.9495562    0.7966882    2.1971295  
N    1.8690446    1.5676019    1.6831036  
C    0.0000000    0.0000000    1.4700000  
C   -0.8785127   -0.7372425    2.1869543  
O   -1.8187535   -1.5261249    1.6395491  
C   -0.8723269   -0.7321790    3.6796354  
O   -1.7010379   -1.4274584    4.2670412  
C    0.1115397    0.0933559    4.4024240  
H    2.4028853    2.0163452    4.9860947  
H   -2.2861435   -1.9184361    2.3990168  
H    0.0832434    0.0693689    5.4835595  
H    3.3664920    2.8238276    2.6198634  
