58

C    1.1319245    0.0015659   -0.8009266  
C    0.7969913    0.0034943   -2.1169399  
C   -0.6453341    0.0035703   -2.1842667  
C   -1.1266833    0.0015426   -0.7896025  
N    0.0000000    0.0000000    0.0000000  
C   -2.4346128    0.0013952   -0.4276292  
C   -3.4350114    0.0031389   -1.4820179  
O   -4.6384616    0.0030949   -1.2583905  
C   -2.9478961    0.0050487   -2.9661070  
O   -3.7809384    0.0062193   -3.8623769  
C   -1.5113826    0.0053076   -3.2312119  
H    1.4821233    0.0045411   -2.9459192  
H   -2.7664564    0.0000217    0.6013448  
H    2.1104318    0.0009400   -0.3488059  
C    1.7765330   -2.1310632   -5.1320087  
C    1.6763794   -1.7219621   -6.4181598  
C    0.5413895   -0.8120097   -6.4350133  
C    0.0622632   -0.7878466   -5.0362862  
N    0.7824472   -1.5590795   -4.2678304  
C   -1.0641743    0.0073898   -4.6315336  
C   -1.6835604    0.7452570   -5.5808738  
O   -2.7464411    1.5329463   -5.3445022  
C   -1.2235550    0.7423104   -7.0009253  
O   -1.8348757    1.4380535   -7.8117578  
C   -0.0657297   -0.0817633   -7.3911396  
H    2.2962143   -2.0029075   -7.2523957  
H   -2.9609637    1.9261248   -6.2096857  
H    0.2362019   -0.0562578   -8.4296082  
C    5.2268065   -4.4843762   -6.6882767  
C    4.1627744   -3.6496880   -6.6362117  
C    3.7391484   -3.6683735   -5.2445616  
C    4.6837830   -4.5915843   -4.5797834  
N    5.5581771   -5.0729727   -5.4210265  
C    4.6001810   -4.8845072   -3.1753994  
C    3.6177946   -4.2822101   -2.4672400  
O    3.4226099   -4.4638063   -1.1500586  
C    2.6492980   -3.3452780   -3.1093727  
O    1.7804735   -2.8331016   -2.4036531  
C    2.7558489   -3.0610478   -4.5515184  
H    3.7201019   -3.0903115   -7.4425712  
H    5.3037138   -5.5632655   -2.7157922  
H    2.6537680   -3.9057826   -0.9340835  
H    5.8267614   -4.7428365   -7.5463134  
C    2.5528530    2.1414826    2.8079335  
C    2.0663498    1.7338582    4.0032312  
C    0.9804344    0.8229586    3.6752840  
C    0.9495562    0.7966882    2.1971295  
N    1.8690446    1.5676019    1.6831036  
C    0.0000000    0.0000000    1.4700000  
C   -0.8785127   -0.7372425    2.1869543  
O   -1.8187535   -1.5261249    1.6395491  
C   -0.8723269   -0.7321790    3.6796354  
O   -1.7010379   -1.4274584    4.2670412  
C    0.1115397    0.0933559    4.4024240  
H    2.4028853    2.0163452    4.9860947  
H   -2.2861435   -1.9184361    2.3990168  
H    0.0832434    0.0693689    5.4835595  
H    3.3664920    2.8238276    2.6198634  
