60

C    3.3003554    0.0005280   -1.4738974  
C    2.5232825    0.0003502   -2.6090734  
C    1.1623211   -0.0001316   -2.1820095  
C    1.1711890    0.0000585   -0.7636129  
N    2.4852304   -0.0014918   -0.3662346  
C    0.0000000    0.0000000    0.0000000  
C   -1.2020380    0.0000521   -0.6806481  
O   -2.3759249    0.0003491    0.0157740  
C   -1.2314649   -0.0005113   -2.0955512  
O   -2.5054378   -0.0008036   -2.6250186  
C   -0.0764500   -0.0007270   -2.8495193  
H    2.8036266    0.0088186    0.5858674  
H   -3.0835635    0.0000345   -0.6418823  
H   -2.4360032   -0.0011526   -3.5845929  
H   -0.1304078   -0.0013418   -3.9319085  
H    4.3715556    0.0004898   -1.3667116  
C    5.8843142   -2.1416048   -4.3706048  
C    5.8364461   -1.7353556   -5.6606626  
C    4.7035130   -0.8249887   -5.7254231  
C    4.1682360   -0.7974898   -4.3472701  
N    4.8563813   -1.5672820   -3.5486053  
C    3.0267452   -0.0008945   -3.9901689  
C    2.4466124    0.7350853   -4.9654196  
O    1.3754307    1.5237296   -4.7739743  
C    2.9636567    0.7287625   -6.3656999  
O    2.3859619    1.4229262   -7.2021366  
C    4.1359079   -0.0966501   -6.7069414  
H    6.4893666   -2.0184236   -6.4685255  
H    1.1962584    1.9150484   -5.6479989  
H    4.4795931   -0.0735996   -7.7324069  
C    6.8389017   -3.0706748   -3.7489195  
C    7.8826388   -3.7306927   -4.3137769  
C    8.4995145   -4.5146997   -3.2699224  
C    7.7240294   -4.2554988   -2.0418225  
N    6.7320284   -3.3718687   -2.3996236  
C    7.9902425   -4.8112782   -0.8327141  
C    9.1157887   -5.7256072   -0.7343037  
O    9.4365566   -6.2771585    0.3103009  
C    9.9510688   -6.0144495   -2.0222022  
O   10.9011599   -6.7822997   -1.9515280  
C    9.5667859   -5.3555704   -3.2680178  
H    8.1859198   -3.6745826   -5.3440620  
H    7.4088121   -4.6078738    0.0558097  
H   10.1501350   -5.5610547   -4.1552639  
H    6.0362229   -3.0041545   -1.7769773  
C    2.3971438    2.0127888    3.1728260  
C    1.9431056    1.6308205    1.9564670  
C    0.8496017    0.7127664    2.2356185  
C    0.7794028    0.6545384    3.7115134  
N    1.6840587    1.4146091    4.2663826  
C   -0.1885723   -0.1578550    4.3957118  
C   -1.0476298   -0.8789867    3.6398520  
O   -2.0015663   -1.6796266    4.1448486  
C   -1.0022026   -0.8410666    2.1483229  
O   -1.8147390   -1.5232959    1.5241687  
C    0.0000000    0.0000000    1.4700000  
H    2.3054237    1.9346118    0.9892483  
H   -0.2170646   -0.1815267    5.4753125  
H   -2.4487139   -2.0549881    3.3649027  
H    3.2048689    2.6911772    3.3971983  
