60

C   -1.1188202    0.0099960   -0.8003807  
C    0.0000000    0.0000000    0.0000000  
C    1.1323246   -0.0118385   -0.8673530  
C    0.6382171   -0.0081390   -2.1969278  
N   -0.7324049    0.0032336   -2.1202236  
C    1.4769959   -0.0170131   -3.3154808  
C    2.8393942   -0.0295491   -3.0876856  
O    3.7037234   -0.0382546   -4.1440352  
C    3.3516164   -0.0338005   -1.7684332  
O    4.7298162   -0.0469702   -1.7073127  
C    2.5247273   -0.0253245   -0.6644821  
H   -1.3575139    0.0187433   -2.9057040  
H    4.5937670   -0.0466009   -3.7685134  
H    4.9932198   -0.0490068   -0.7819915  
H    2.9461146   -0.0290470    0.3339656  
H   -2.1618973    0.0199686   -0.5342064  
C    0.9735448   -0.0134597   -4.6965766  
C   -0.3100005   -0.0016216   -5.1397996  
C   -0.2571536   -0.0034661   -6.5827269  
C    1.1726450   -0.0174786   -6.9464170  
N    1.8657918   -0.0225896   -5.7579677  
C    1.6421054   -0.0235466   -8.2197093  
C    0.6746019   -0.0155307   -9.3043328  
O    0.9975142   -0.0200127  -10.4850140  
C   -0.8447841   -0.0004154   -8.9423339  
O   -1.6686365    0.0067400   -9.8470310  
C   -1.2284116    0.0047081   -7.5328466  
H   -1.1930419    0.0075582   -4.5259861  
H    2.6950632   -0.0339673   -8.4648250  
H    2.8657727   -0.0335303   -5.6745056  
C   -2.6610089    0.0186688   -7.2036500  
C   -3.2591915    0.0258296   -5.9845515  
C   -4.6845087    0.0389944   -6.2150563  
C   -4.8689930    0.0388865   -7.6788718  
N   -3.6041528    0.0266772   -8.2200928  
C   -6.0745804    0.0490845   -8.3018959  
C   -7.2702418    0.0611854   -7.4755895  
O   -8.4020103    0.0709832   -7.9417485  
C   -7.0984874    0.0617732   -5.9230731  
O   -8.0978784    0.0722156   -5.2171206  
C   -5.7471634    0.0498629   -5.3684261  
H   -2.7590445    0.0224754   -5.0324718  
H   -6.1878985    0.0486734   -9.3771017  
H   -5.6368683    0.0501468   -4.2925268  
H   -3.3979665    0.0220357   -9.2021891  
C    2.3971438    2.0127888    3.1728260  
C    1.9431056    1.6308205    1.9564670  
C    0.8496017    0.7127664    2.2356185  
C    0.7794028    0.6545384    3.7115134  
N    1.6840587    1.4146091    4.2663826  
C   -0.1885723   -0.1578550    4.3957118  
C   -1.0476298   -0.8789867    3.6398520  
O   -2.0015663   -1.6796266    4.1448486  
C   -1.0022026   -0.8410666    2.1483229  
O   -1.8147390   -1.5232959    1.5241687  
C    0.0000000    0.0000000    1.4700000  
H    2.3054237    1.9346118    0.9892483  
H   -0.2170646   -0.1815267    5.4753125  
H   -2.4487139   -2.0549881    3.3649027  
H    3.2048689    2.6911772    3.3971983  
