58

C    6.7688485   -2.1173129   -2.0583825  
C    7.2971435   -2.9614516   -1.1419144  
C    8.7239614   -2.9777237   -1.4255082  
C    8.8858275   -2.0624710   -2.5755937  
N    7.7431964   -1.5550253   -2.9509369  
C   10.1698872   -1.8021340   -3.1659320  
C   11.2434946   -2.4273982   -2.6313807  
O   12.5007451   -2.2771878   -3.0817127  
C   11.1126265   -3.3564831   -1.4704173  
O   12.1325728   -3.8909696   -1.0353829  
C    9.7846469   -3.6071740   -0.8825824  
H    6.7822111   -3.5057809   -0.3688516  
H   10.2588923   -1.1288123   -4.0059474  
H   13.0408417   -2.8454351   -2.5033154  
H    9.7322287   -4.2866846   -0.0424945  
C    4.2926938   -2.1403418   -1.5040809  
C    5.3604705   -1.7320209   -2.2284474  
C    4.8134481   -0.8208707   -3.2219619  
C    3.3612071   -0.7952320   -2.9446110  
N    3.0500067   -1.5667026   -1.9386404  
C    2.4521483    0.0014840   -3.7217481  
C    2.9703733    0.7393567   -4.7298754  
O    2.2390468    1.5283419   -5.5352978  
C    4.4316781    0.7349404   -5.0343912  
O    4.8335664    1.4307754   -5.9668718  
C    5.3436397   -0.0906368   -4.2228043  
H    2.8845127    1.9211529   -6.1502980  
H    6.3952202   -0.0661691   -4.4754093  
H    4.2782621   -2.8230632   -0.6694219  
C    0.0000000    0.0000000    0.0000000  
C    1.0662923   -0.0000101   -0.8334270  
C    0.4961873    0.0000065   -2.1718887  
C   -0.9663854   -0.0000848   -1.9540250  
N   -1.2632773   -0.0000083   -0.6828660  
C   -1.8985359   -0.0000514   -3.0477261  
C   -1.3925770    0.0004566   -4.3020547  
O   -2.1456378    0.0005414   -5.4151314  
C    0.0786240    0.0009326   -4.5545000  
O    0.4683767    0.0012591   -5.7221100  
C    1.0143171    0.0008444   -3.4159031  
H    2.1107200    0.0000633   -0.5721865  
H   -2.9622181   -0.0003268   -2.8593381  
H   -1.5042265    0.0009697   -6.1484419  
C    1.0672568    0.0000697    2.3021913  
C    0.0000000    0.0000000    1.4700000  
C   -1.1601224    0.0000736    2.3478473  
C   -0.5938729    0.0000769    3.7138435  
N    0.7113367    0.0001554    3.6934124  
C   -1.4286986    0.0001879    4.8835240  
C   -2.7683114    0.0006799    4.6970523  
O   -3.6653903    0.0008304    5.6976972  
C   -3.3702025    0.0010610    3.3310774  
O   -4.5974910    0.0013779    3.2362962  
C   -2.4926826    0.0008943    2.1470656  
H   -0.9878360   -0.0000190    5.8697035  
H   -4.5324246    0.0012261    5.2533954  
H   -2.9677772    0.0012974    1.1752040  
H    2.1134392    0.0000545    2.0405121  
