58

C    6.6317365    0.0027575   -4.3241616  
C    5.4016570    0.0020952   -3.7488541  
C    5.6054510    0.0015082   -2.3194127  
C    7.0655596    0.0019147   -2.1075798  
N    7.6303533    0.0022710   -3.3621307  
C    7.6659163    0.0019587   -0.8905029  
C    6.8173803    0.0013542    0.2895489  
O    7.2622819    0.0012813    1.4298841  
C    5.2683488    0.0006643    0.0887881  
O    4.5438178   -0.0001546    1.0748482  
C    4.7390840    0.0009613   -1.2727298  
H    4.4591013    0.0018433   -4.2667372  
H    8.7388159    0.0023901   -0.7570955  
H    6.8927419    0.0033431   -5.3699948  
C   10.0874602    2.0996490   -6.3721245  
C    9.0601231    1.6354553   -5.6150401  
C    9.6298441    0.7406242   -4.6354837  
C   11.0837361    0.7214323   -4.8857226  
N   11.2958893    1.5654473   -5.9513301  
C   11.9776597   -0.0062994   -4.1694739  
C   11.4742171   -0.8254824   -3.0795107  
O   12.1991370   -1.5167112   -2.3759523  
C    9.9380317   -0.8205895   -2.7968157  
O    9.5024820   -1.5065702   -1.8819457  
C    9.0743780    0.0050258   -3.6372403  
H    8.0216954    1.8906203   -5.7298142  
H   13.0401759   -0.0061285   -4.3693974  
H   10.0634062    2.7868805   -7.2021991  
H   12.1909671    1.7644428   -6.3591079  
C    3.2798077    0.0005856   -1.4499661  
C    2.5571132    0.0005565   -2.5996564  
C    1.1637425    0.0001547   -2.2210366  
C    1.1336959   -0.0000200   -0.7459475  
N    2.4483509   -0.0001429   -0.3402730  
C    0.0000000    0.0000000    0.0000000  
C   -1.2757370   -0.0000187   -0.6964411  
O   -2.3524597   -0.0000640   -0.1142306  
C   -1.2676502   -0.0000874   -2.2584078  
O   -2.3355774   -0.0004102   -2.8557287  
C    0.0181551    0.0001758   -2.9516297  
H    2.9547342    0.0006074   -3.5989118  
H    0.0150776    0.0003317   -4.0331632  
H    2.7563626    0.0012823    0.6148051  
C    0.0000000    0.0000000    1.4700000  
C    1.0662921    0.0000102    2.3034270  
C    0.4961870   -0.0000064    3.6418889  
C   -0.9663858    0.0000850    3.4240247  
N   -1.2632773    0.0000084    2.1528658  
C   -1.8985362    0.0000517    4.5177257  
C   -1.3925775   -0.0004564    5.7720543  
O   -2.1456383   -0.0005410    6.8851312  
C    0.0786232   -0.0009323    6.0245000  
O    0.4683759   -0.0012588    7.1921102  
C    1.0143166   -0.0008442    4.8859032  
H    2.1107198   -0.0000632    2.0421868  
H   -2.9622183    0.0003270    4.3293377  
H   -1.5042274   -0.0009692    7.6184419  
H    2.0724152   -0.0013148    5.1109744  
