60

C    0.0000000    0.0000000    0.0000000  
C    1.0521665   -0.0011901   -0.8862342  
C    0.4917217   -0.0011956   -2.1979130  
C   -0.9187428    0.0003148   -2.0478683  
N   -1.1833173   -0.0009411   -0.7007911  
C   -1.7951703    0.0010349   -3.1372088  
C   -1.2375840    0.0005224   -4.4010424  
O   -2.0474220    0.0015359   -5.4997576  
C    0.1673578   -0.0013566   -4.5711965  
O    0.5673521   -0.0020688   -5.8915549  
C    1.0325768   -0.0023412   -3.4969890  
H    2.0953059   -0.0030648   -0.6200563  
H   -2.0989774    0.0102371   -0.2891826  
H   -1.4634888    0.0006496   -6.2693593  
H    1.5290706   -0.0033152   -5.9180048  
C    4.1863640   -2.1477870   -1.3902886  
C    5.2964368   -1.7419934   -2.0495674  
C    4.8117026   -0.8307029   -3.0747898  
C    3.3454837   -0.8022263   -2.8851137  
N    2.9730533   -1.5722878   -1.8990659  
C    2.4861699   -0.0045381   -3.7159922  
C    3.0653192    0.7315528   -4.6917436  
O    2.3850996    1.5211673   -5.5401841  
C    4.5422543    0.7242590   -4.9080075  
O    5.0006586    1.4185848   -5.8151998  
C    5.4023448   -0.1022663   -4.0425458  
H    6.3180545   -2.0259186   -1.8631281  
H    3.0670330    1.9123007   -6.1156272  
H    6.4672337   -0.0798976   -4.2316032  
H    4.1206112   -2.8297766   -0.5574982  
C   -4.7116853    2.0166393   -0.4361493  
C   -3.5469323    1.6335646   -1.0090230  
C   -3.9344256    0.7158339   -2.0692677  
C   -5.4100300    0.6589843   -1.9921705  
N   -5.8713626    1.4195192   -1.0367917  
C   -6.1879609   -0.1527158   -2.8871859  
C   -5.5220602   -0.8745016   -3.8172057  
O   -6.1202713   -1.6746160   -4.7160947  
C   -4.0333848   -0.8379730   -3.9205074  
O   -3.4938673   -1.5207365   -4.7911251  
C   -3.2578657    0.0024038   -2.9908504  
H   -2.5481629    1.9364342   -0.7448157  
H   -7.2650558   -0.1753806   -2.8080468  
H   -5.3890707   -2.0506778   -5.2386612  
H   -4.8538898    2.6951898    0.3898775  
C    0.0000000    0.0000000    1.4700000  
C    1.0662921    0.0000102    2.3034270  
C    0.4961870   -0.0000064    3.6418889  
C   -0.9663858    0.0000850    3.4240247  
N   -1.2632773    0.0000084    2.1528658  
C   -1.8985362    0.0000517    4.5177257  
C   -1.3925775   -0.0004564    5.7720543  
O   -2.1456383   -0.0005410    6.8851312  
C    0.0786232   -0.0009323    6.0245000  
O    0.4683759   -0.0012588    7.1921102  
C    1.0143166   -0.0008442    4.8859032  
H    2.1107198   -0.0000632    2.0421868  
H   -2.9622183    0.0003270    4.3293377  
H   -1.5042274   -0.0009692    7.6184419  
H    2.0724152   -0.0013148    5.1109744  
