60

C    3.1301152   -0.0010311   -1.7028248  
C    2.5367767   -0.0002766   -0.4864663  
C    1.1089906    0.0001028   -0.7656180  
C    1.0177872   -0.0004148   -2.2415129  
N    2.1993581   -0.0011610   -2.7963816  
C   -0.2459210   -0.0002877   -2.9257117  
C   -1.3675316   -0.0000605   -2.1698524  
O   -2.6129307    0.0000866   -2.6748494  
C   -1.3083586    0.0000911   -0.6783233  
O   -2.3693263    0.0004206   -0.0541693  
C    0.0000000    0.0000000    0.0000000  
H    3.0096017   -0.0001007    0.4807526  
H   -3.1967436    0.0002093   -1.8949037  
C    6.5698743   -0.0006425    0.9721619  
C    7.6069603   -0.0018566    0.1026619  
C    6.9912940   -0.0024303   -1.2154638  
C    5.5370518   -0.0015104   -0.9475758  
N    5.2839239   -0.0003800    0.3330159  
C    4.5679462   -0.0016852   -2.0086697  
C    5.0305956   -0.0023423   -3.2796100  
O    4.2398098   -0.0025845   -4.3662092  
C    6.4922748   -0.0029066   -3.5823555  
O    6.8417601   -0.0036168   -4.7626434  
C    7.4664608   -0.0027577   -2.4765134  
H    8.6597310   -0.0022169    0.3279342  
H    4.8556983   -0.0030409   -5.1210829  
H    8.5162200   -0.0030652   -2.7377351  
H    6.6068536    0.0001033    2.0499396  
C    2.2088393   -2.1426203   -5.8191629  
C    1.6816931   -1.7351239   -6.9971451  
C    0.6077920   -0.8240078   -6.6323119  
C    0.6276223   -0.7974852   -5.1539723  
N    1.5640858   -1.5684496   -4.6716451  
C   -0.2963280   -0.0005339   -4.3948472  
C   -1.1988032    0.7367192   -5.0813824  
O   -2.1196076    1.5258332   -4.5021939  
C   -1.2438065    0.7314048   -6.5733968  
O   -2.0920731    1.4267091   -7.1321601  
C   -0.2854213   -0.0943976   -7.3293548  
H    1.9842874   -2.0178255   -7.9909217  
H   -2.6127091    1.9180867   -5.2452560  
H   -0.3507702   -0.0705874   -8.4088886  
H    3.0283512   -2.8250548   -5.6589855  
C    2.5311839    2.1237619    3.0120429  
C    1.9795631    1.6616747    1.8395852  
C    0.9223175    0.7739173    2.1983588  
C    0.8753926    0.7337535    3.6154372  
N    1.8668922    1.5631002    4.0777464  
C   -0.0496243   -0.0427881    4.3197917  
C   -0.9437528   -0.7922060    3.5801400  
O   -1.8685244   -1.5680278    4.2172520  
C   -0.9124520   -0.7656372    2.1655264  
O   -1.8671164   -1.5663939    1.5732860  
C    0.0000000    0.0000000    1.4700000  
H    2.3005065    1.9304404    0.8477417  
H    2.0679347    1.7444845    5.0445261  
H   -0.0904770   -0.0778569    5.3997470  
H   -2.3849669   -2.0011402    3.5251786  
H   -1.7775064   -1.4909735    0.6183591  
H    3.3468514    2.8078103    3.1724291  
