58

C    6.1745025   -2.1408797   -4.0544035  
C    6.2180772   -1.7334915   -5.3442541  
C    5.0926408   -0.8229053   -5.4882165  
C    4.4611845   -0.7965389   -4.1513728  
N    5.0910257   -1.5671311   -3.3066964  
C    3.2973506   -0.0000934   -3.8752374  
C    2.7877443    0.7368257   -4.8884429  
O    1.7057650    1.5254557   -4.7725804  
C    3.4025814    0.7316575   -6.2486301  
O    2.8855803    1.4266384   -7.1232350  
C    4.5959741   -0.0936237   -6.5067946  
H    1.5889228    1.9175678   -5.6567454  
H    5.0113655   -0.0697227   -7.5053482  
H    6.8407163   -2.8229593   -3.5505179  
C    8.0159794   -5.6080386   -6.2061871  
C    8.8117135   -5.3240100   -7.2634070  
C    8.6170746   -3.9032282   -7.5083430  
C    7.6452352   -3.4771900   -6.4784871  
N    7.2893042   -4.4722209   -5.7121860  
C    7.1853687   -2.1191541   -6.3818051  
C    7.6744428   -1.2271902   -7.2731764  
O    7.3326622    0.0722504   -7.2992581  
C    8.6566116   -1.6263103   -8.3239884  
O    9.0593595   -0.7617162   -9.1021223  
C    9.1129142   -3.0254302   -8.4025712  
H    9.4517906   -5.9956656   -7.8095359  
H    7.8416609    0.4476799   -8.0402881  
H    9.8250234   -3.2740993   -9.1780039  
H    7.8764674   -6.5586514   -5.7164474  
C    3.3321174    0.0004714   -1.3379332  
C    2.6974186    0.0000115   -2.5332308  
C    1.2800441   -0.0002119   -2.2052838  
C    1.2395035    0.0000643   -0.7271293  
N    2.4394063    0.0005458   -0.2131034  
C    0.0000000    0.0000000    0.0000000  
C   -1.1468701    0.0000634   -0.7169542  
O   -2.3742201    0.0000072   -0.1695492  
C   -1.1388767    0.0001606   -2.2096354  
O   -2.2206229    0.0000903   -2.7970413  
C    0.1454526    0.0001815   -2.9324239  
H   -2.9844344    0.0001023   -0.9290168  
H    0.1083580    0.0003680   -4.0135594  
H    4.3940040    0.0007617   -1.1498630  
C    0.8175213    0.6860729    2.3021913  
C    0.0000000    0.0000000    1.4700000  
C   -0.8887526   -0.7456559    2.3478473  
C   -0.4549825   -0.3816753    3.7138435  
N    0.5448156    0.4573574    3.6934124  
C   -1.0945674   -0.9182058    4.8835240  
C   -2.1210866   -1.7789155    4.6970523  
O   -2.8083856   -2.3554314    5.6976972  
C   -2.5824069   -2.1655116    3.3310774  
O   -3.5227682   -2.9541547    3.2362962  
C   -1.9100805   -1.6015804    2.1470656  
H   -0.7567140   -0.6349833    5.8697035  
H   -3.4728268   -2.9124471    5.2533954  
H   -2.2742832   -1.9066565    1.1752040  
H    1.6189533    1.3585343    2.0405121  
