58

C    3.2573678   -0.0002919   -1.5109373  
C    2.5379468   -0.0001706   -0.3591954  
C    1.1435045    0.0000332   -0.7338494  
C    1.1092616   -0.0000083   -2.2088474  
N    2.4227573    0.0001909   -2.6182603  
C   -0.0265521   -0.0002524   -2.9515662  
C   -1.3003027   -0.0002640   -2.2514981  
O   -2.3786774   -0.0004131   -2.8306438  
C   -1.2877723    0.0000312   -0.6895612  
O   -2.3539951    0.0003306   -0.0892047  
C    0.0000000    0.0000000    0.0000000  
H    2.9384090   -0.0000365    0.6389246  
H   -0.0296275   -0.0004088   -4.0327232  
H    4.3270401   -0.0004765   -1.6439427  
C    3.9018586   -0.6890598   -4.5615347  
C    2.8699655   -0.0020526   -4.0185813  
C    2.2904561    0.7418983   -5.1263747  
C    3.1192068    0.3760112   -6.2950844  
N    4.0653378   -0.4625798   -5.9701355  
C    2.8658217    0.9104935   -7.6047448  
C    1.8312933    1.7710660   -7.7407617  
O    1.4810339    2.3457724   -8.9039780  
C    0.9763066    2.1595573   -6.5804890  
O    0.0517412    2.9479590   -6.7775250  
C    1.2565191    1.5977096   -5.2471726  
H    0.7129611    2.9031933   -8.6837540  
H    0.6139389    1.9041193   -4.4326584  
H    4.5856444   -1.3607925   -4.0673834  
C    4.1990827   -0.7530300   -8.9807789  
C    4.9509061   -0.7840273  -10.1112105  
C    4.9582220    0.5560344  -10.6488135  
C    4.1432137    1.3761668   -9.7323353  
N    3.7120263    0.5232212   -8.7426628  
C    3.9061557    2.7027629   -9.8924982  
C    4.4926895    3.3671098  -11.0445208  
O    4.3376372    4.5589248  -11.2765508  
C    5.3592051    2.5179658  -12.0283447  
O    5.8579052    3.0663020  -13.0019394  
C    5.5434002    1.0958666  -11.7498520  
H    5.4439277   -1.6471748  -10.5217229  
H    3.3054570    3.2859494   -9.2084199  
H    6.1449149    0.5150201  -12.4357978  
H    3.9596795   -1.5552013   -8.3017373  
C    0.0000000    0.0000000    1.4700000  
C    1.0662921    0.0000102    2.3034270  
C    0.4961870   -0.0000064    3.6418889  
C   -0.9663858    0.0000850    3.4240247  
N   -1.2632773    0.0000084    2.1528658  
C   -1.8985362    0.0000517    4.5177257  
C   -1.3925775   -0.0004564    5.7720543  
O   -2.1456383   -0.0005410    6.8851312  
C    0.0786232   -0.0009323    6.0245000  
O    0.4683759   -0.0012588    7.1921102  
C    1.0143166   -0.0008442    4.8859032  
H    2.1107198   -0.0000632    2.0421868  
H   -2.9622183    0.0003270    4.3293377  
H   -1.5042274   -0.0009692    7.6184419  
H    2.0724152   -0.0013148    5.1109744  
