58

C    1.9999920   -2.1070891   -5.1447765  
C    1.9105668   -1.6426496   -6.4177157  
C    0.7784255   -0.7475274   -6.4606980  
C    0.2115580   -0.7283875   -5.0986827  
N    0.9973788   -1.5733446   -4.3494007  
C   -0.8712826    0.0001710   -4.7267111  
C   -1.5219795    0.8200162   -5.7351665  
O   -2.5037636    1.5119150   -5.4992073  
C   -0.9387696    0.8148043   -7.1841817  
O   -1.4783588    1.5008667   -8.0417497  
C    0.2330301   -0.0112901   -7.4640107  
H    0.6307995   -0.0091670   -8.4697438  
H    2.7138545   -2.7945383   -4.7208621  
H    0.8643844   -1.7702170   -3.3744131  
C    3.7452023   -5.4509271   -7.6070318  
C    4.4289894   -5.0376981   -8.7050987  
C    4.1724000   -3.6245776   -8.8537208  
C    3.2766763   -3.2456857   -7.7442564  
N    3.0554773   -4.3978557   -7.0256022  
C    2.8024918   -1.9918335   -7.5328129  
C    3.2007426   -0.9457206   -8.4599470  
O    2.8269389    0.2151174   -8.3549349  
C    4.1485679   -1.3244445   -9.6423180  
O    4.4903942   -0.4522027  -10.4294713  
C    4.5938838   -2.7101704   -9.7660514  
H    5.0429043   -5.6526660   -9.3387692  
H    5.2501711   -2.9641236  -10.5873428  
H    3.6869494   -6.4362077   -7.1737664  
H    2.4829819   -4.4632099   -6.2040028  
C    1.0965514    0.0001359   -0.8010305  
C    0.0000000    0.0000000    0.0000000  
C   -1.1546563    0.0001470   -0.8669513  
C   -0.6372014    0.0003519   -2.2486282  
N    0.7342871    0.0007337   -2.1395014  
C   -1.4147739    0.0001352   -3.3608717  
C   -2.8576049   -0.0001048   -3.1854462  
O   -3.6427779   -0.0002494   -4.1244907  
C   -3.4275840   -0.0000725   -1.7311666  
O   -4.6406831    0.0000333   -1.5710060  
C   -2.4891867   -0.0001091   -0.6116744  
H   -2.8919122   -0.0002918    0.3920866  
H    2.1388272    0.0000663   -0.5261648  
H    1.3735872   -0.0006099   -2.9130262  
C    0.0000000    0.0000000    1.4700000  
C    1.0662921    0.0000102    2.3034270  
C    0.4961870   -0.0000064    3.6418889  
C   -0.9663858    0.0000850    3.4240247  
N   -1.2632773    0.0000084    2.1528658  
C   -1.8985362    0.0000517    4.5177257  
C   -1.3925775   -0.0004564    5.7720543  
O   -2.1456383   -0.0005410    6.8851312  
C    0.0786232   -0.0009323    6.0245000  
O    0.4683759   -0.0012588    7.1921102  
C    1.0143166   -0.0008442    4.8859032  
H    2.1107198   -0.0000632    2.0421868  
H   -2.9622183    0.0003270    4.3293377  
H   -1.5042274   -0.0009692    7.6184419  
H    2.0724152   -0.0013148    5.1109744  
