64

C    3.8706493   -0.7380878   -4.5561747  
C    2.8310662   -0.0116220   -4.0232752  
C    2.2320928    0.7087010   -5.0988984  
C    2.9547298    0.3789711   -6.2740583  
N    3.9438703   -0.5000829   -5.9087061  
C    2.6394088    0.9080278   -7.5292320  
C    1.5750126    1.7857026   -7.5994170  
O    1.2238685    2.3314677   -8.8001884  
C    0.8420581    2.1272704   -6.4379842  
O   -0.1887473    3.0138617   -6.6719458  
C    1.1527393    1.6059352   -5.1993504  
H    3.1863418    0.6608349   -8.4286543  
H    0.4674999    2.9071620   -8.6277091  
H   -0.6323004    3.1917833   -5.8369553  
H    0.5733114    1.8862637   -4.3274808  
H    4.5665932   -1.4060752   -4.0782489  
C    5.6579938   -4.6209935   -6.1724117  
C    4.9416883   -3.5092442   -5.7937450  
C    5.2985853   -2.4587482   -6.6902290  
C    6.2442591   -2.9932663   -7.6023237  
N    6.4413679   -4.3076152   -7.2584439  
C    6.8153832   -2.2364031   -8.6298279  
C    6.4245104   -0.9159739   -8.7387456  
O    6.9506851   -0.1318647   -9.7243048  
C    5.4825261   -0.3643895   -7.8380586  
O    5.1965548    0.9639043   -8.0772230  
C    4.9188919   -1.1103923   -6.8239961  
H    4.2481696   -3.4610096   -4.9717365  
H    7.0521449   -4.9467033   -7.7343627  
H    7.5367694   -2.6378418   -9.3281475  
H    6.5494049    0.7409623   -9.6222641  
H    4.5529808    1.2585701   -7.4256182  
H    5.6731562   -5.6123037   -5.7528481  
C    3.3041270    0.0001177   -1.5420434  
C    2.5845372   -0.0004781   -0.3695856  
C    1.2040006   -0.0000008   -0.7283592  
C    1.1422371    0.0006037   -2.1454375  
N    2.4348636    0.0026109   -2.6077467  
C   -0.0655183    0.0008798   -2.8497920  
C   -1.2321770    0.0002326   -2.1101400  
O   -2.4392818    0.0001147   -2.7472520  
C   -1.1911210   -0.0000007   -0.6955263  
O   -2.4371527   -0.0002320   -0.1032859  
C    0.0000000    0.0000000    0.0000000  
H    3.0031533   -0.0000660    0.6222577  
H   -0.1193553    0.0014844   -3.9297472  
H   -3.1132989   -0.0000648   -2.0551784  
H   -2.3200282   -0.0004069    0.8516410  
H    4.3686624    0.0004070   -1.7024294  
C    0.0000000    0.0000000    1.4700000  
C    1.0662921    0.0000102    2.3034270  
C    0.4961870   -0.0000064    3.6418889  
C   -0.9663858    0.0000850    3.4240247  
N   -1.2632773    0.0000084    2.1528658  
C   -1.8985362    0.0000517    4.5177257  
C   -1.3925775   -0.0004564    5.7720543  
O   -2.1456383   -0.0005410    6.8851312  
C    0.0786232   -0.0009323    6.0245000  
O    0.4683759   -0.0012588    7.1921102  
C    1.0143166   -0.0008442    4.8859032  
H    2.1107198   -0.0000632    2.0421868  
H   -2.9622183    0.0003270    4.3293377  
H   -1.5042274   -0.0009692    7.6184419  
H    2.0724152   -0.0013148    5.1109744  
