60

C    3.3003547    0.0005275   -1.4738980  
C    2.5232816    0.0003495   -2.6090742  
C    1.1623206   -0.0001320   -2.1820096  
C    1.1711889    0.0000583   -0.7636136  
N    2.4852300   -0.0014920   -0.3662353  
C    0.0000000    0.0000000    0.0000000  
C   -1.2020382    0.0000519   -0.6806479  
O   -2.3759247    0.0003494    0.0157745  
C   -1.2314650   -0.0005113   -2.0955508  
O   -2.5054383   -0.0008037   -2.6250181  
C   -0.0764510   -0.0007273   -2.8495192  
H    2.8919962   -0.0005621   -3.6205295  
H    2.8036265    0.0088181    0.5858667  
H   -3.0835641    0.0000347   -0.6418820  
H   -2.4360047   -0.0011529   -3.5845921  
C    6.5907968    0.0004118   -4.4182867  
C    5.3731496    0.0003983   -3.8171125  
C    5.6071060    0.0003103   -2.3922969  
C    7.0713653    0.0003027   -2.2113673  
N    7.6095207   -0.0000327   -3.4775735  
C    7.6973073    0.0006258   -1.0072490  
C    6.8738985    0.0007804    0.1904707  
O    7.3427981    0.0010092    1.3211495  
C    5.3209696    0.0005394    0.0224896  
O    4.6174382    0.0003600    1.0236411  
C    4.7630506    0.0004754   -1.3275394  
H    4.4198603    0.0002623   -4.3149615  
H    8.7727856    0.0007440   -0.8965445  
H    6.8296430    0.0004925   -5.4694015  
H    8.5911171    0.0014367   -3.6861718  
C   -0.1496409   -0.0015614   -4.3176961  
C    0.8738332   -0.0018840   -5.2031785  
C    0.2377946   -0.0027127   -6.5115952  
C   -1.2121170   -0.0029007   -6.2211811  
N   -1.4453505   -0.0021475   -4.9368173  
C   -2.1975656   -0.0036284   -7.2671145  
C   -1.7546863   -0.0037559   -8.5450784  
O   -2.5622321   -0.0044162   -9.6192807  
C   -0.2978794   -0.0032017   -8.8704614  
O    0.0332557   -0.0034791  -10.0560289  
C    0.6933431   -0.0025028   -7.7798645  
H    1.9299725   -0.0015051   -4.9942637  
H   -3.2505489   -0.0039569   -7.0260003  
H   -1.9581276   -0.0043076  -10.3836173  
H    1.7389231   -0.0020006   -8.0573383  
C    0.8400945    0.7047457    2.2710304  
C    0.0000000    0.0000000    1.4700000  
C   -0.8844236   -0.7423113    2.3369512  
C   -0.4878984   -0.4098547    3.7186280  
N    0.5629682    0.4714286    3.6095011  
C   -1.0836927   -0.9095027    4.8308716  
C   -2.1891196   -1.8367527    4.6554461  
O   -2.7906899   -2.3413415    5.5944904  
C   -2.6257283   -2.2031529    3.2011665  
O   -3.5549479   -2.9829990    3.0410059  
C   -1.9068976   -1.5999348    2.0816745  
H   -0.7774656   -0.6525820    5.8354244  
H   -2.2155208   -1.8586617    1.0779135  
H    1.6384792    1.3747609    1.9961646  
H    1.0518368    0.8833920    4.3830260  
