58

C    0.0000000    0.0000000    0.0000000  
C    1.0662919   -0.0000101   -0.8334274  
C    0.4961866    0.0000066   -2.1718887  
C   -0.9663861   -0.0000848   -1.9540244  
N   -1.2632774   -0.0000083   -0.6828655  
C   -1.8985365   -0.0000514   -3.0477254  
C   -1.3925782    0.0004568   -4.3020539  
O   -2.1456391    0.0005413   -5.4151308  
C    0.0786225    0.0009327   -4.5544999  
O    0.4683751    0.0012594   -5.7221099  
C    1.0143161    0.0008446   -3.4159033  
H    2.1107197    0.0000634   -0.5721869  
H   -1.5042286    0.0009697   -6.1484420  
C    4.6180729   -2.0061846   -1.7279419  
C    3.3335591   -1.6255747   -1.9196175  
C    3.3783508   -0.7093970   -3.0488257  
C    4.8072956   -0.6506551   -3.4246589  
N    5.5388544   -1.4088314   -2.6539582  
C    5.2744730    0.1602677   -4.5151799  
C    4.3558404    0.8795011   -5.1993965  
O    4.6506679    1.6786180   -6.2388815  
C    2.9064336    0.8410150   -4.8445744  
O    2.1263347    1.5214885   -5.5106242  
C    2.4521478    0.0014842   -3.7217489  
H    2.4631338   -1.9291251   -1.3634758  
H    6.3245009    0.1843571   -4.7677083  
H    3.7944552    2.0528232   -6.5146054  
H    5.0061343   -2.6829996   -0.9834262  
C   -4.6051151    2.0113808   -0.1334475  
C   -3.4864974    1.6298265   -0.7927584  
C   -3.9518794    0.7119511   -1.8210695  
C   -5.4173873    0.6533629   -1.6328191  
N   -5.8061460    1.4130854   -0.6450550  
C   -6.2597398   -0.1589838   -2.4668584  
C   -5.6651265   -0.8797265   -3.4447643  
O   -6.3285778   -1.6802772   -4.2962290  
C   -4.1885399   -0.8414366   -3.6601389  
O   -3.7155092   -1.5233212   -4.5692569  
C   -3.3460099   -0.0004261   -2.7913641  
H   -2.4709780    1.9337815   -0.6045893  
H   -7.3277603   -0.1829242   -2.3066428  
H   -5.6384853   -2.0553379   -4.8726443  
H   -4.6853282    2.6895275    0.7012118  
C    1.1319247   -0.0015655    2.2709268  
C    0.7969915   -0.0034943    3.5869401  
C   -0.6453339   -0.0035710    3.6542670  
C   -1.1266833   -0.0015433    2.2596025  
N    0.0000000    0.0000000    1.4700000  
C   -2.4346130   -0.0013964    1.8976294  
C   -3.4350110   -0.0031408    2.9520183  
O   -4.6384611   -0.0030974    2.7283916  
C   -2.9478959   -0.0050506    4.4361073  
O   -3.7809380   -0.0062218    5.3323774  
C   -1.5113823   -0.0053090    4.7012123  
H    1.4821238   -0.0045407    4.4159191  
H   -2.7664565   -0.0000232    0.8686553  
H   -1.1823530   -0.0068408    5.7314848  
H    2.1104316   -0.0009391    1.8188057  
