60

C    3.3041267    0.0001175   -1.5420439  
C    2.5845368   -0.0004781   -0.3695855  
C    1.2040004   -0.0000009   -0.7283591  
C    1.1422366    0.0006033   -2.1454373  
N    2.4348631    0.0026106   -2.6077468  
C   -0.0655195    0.0008790   -2.8497916  
C   -1.2321775    0.0002319   -2.1101396  
O   -2.4392826    0.0001138   -2.7472509  
C   -1.1911215   -0.0000009   -0.6955257  
O   -2.4371529   -0.0002324   -0.1032853  
C    0.0000000    0.0000000    0.0000000  
H    3.0031533   -0.0000656    0.6222577  
H   -0.1193557    0.0014834   -3.9297466  
H   -3.1132997   -0.0000652   -2.0551780  
H   -2.3200283   -0.0004072    0.8516422  
H    4.3686616    0.0004071   -1.7024304  
C    5.6502431   -2.1159097   -4.7187993  
C    5.4250913   -1.6663857   -5.9802706  
C    4.2912953   -0.7748314   -5.9133920  
C    3.8713705   -0.7415302   -4.4994102  
N    4.7351834   -1.5757177   -3.8279578  
C    2.8310651   -0.0116226   -4.0232758  
C    2.0743447    0.7948327   -4.9664298  
O    1.1203075    1.4867869   -4.6358048  
C    2.5012788    0.7745008   -6.4688011  
O    1.8714958    1.4492139   -7.2721669  
C    3.6401530   -0.0516395   -6.8616244  
H    5.9888030   -1.9294834   -6.8575520  
H    3.9294718   -0.0600297   -7.9037130  
H    4.7066616   -1.7617126   -2.8422400  
C    8.8123282   -4.1765294   -6.8965412  
C    9.4257654   -4.8762094   -5.9138301  
C    8.6894624   -4.5467789   -4.7031141  
C    7.6363376   -3.6101444   -5.1505835  
N    7.7033086   -3.3893794   -6.4354057  
C    6.6829948   -3.0441132   -4.2363450  
C    6.7771899   -3.3980050   -2.9343380  
O    5.9544469   -2.9465111   -1.9724195  
C    7.8286702   -4.3412939   -2.4518903  
O    7.8551842   -4.6188956   -1.2529515  
C    8.7949941   -4.9084146   -3.4092394  
H   10.2731961   -5.5346368   -5.9999129  
H    6.2700912   -3.3735337   -1.1556123  
H    9.5411895   -5.5880234   -3.0199388  
H    9.0591423   -4.1495381   -7.9459831  
C    2.5528530    2.1414826    2.8079335  
C    2.0663498    1.7338582    4.0032312  
C    0.9804344    0.8229586    3.6752840  
C    0.9495562    0.7966882    2.1971295  
N    1.8690446    1.5676019    1.6831036  
C    0.0000000    0.0000000    1.4700000  
C   -0.8785127   -0.7372425    2.1869543  
O   -1.8187535   -1.5261249    1.6395491  
C   -0.8723269   -0.7321790    3.6796354  
O   -1.7010379   -1.4274584    4.2670412  
C    0.1115397    0.0933559    4.4024240  
H    2.4028853    2.0163452    4.9860947  
H   -2.2861435   -1.9184361    2.3990168  
H    0.0832434    0.0693689    5.4835595  
H    3.3664920    2.8238276    2.6198634  
