60

C    3.3041271    0.0001182   -1.5420442  
C    2.5845371   -0.0004779   -0.3695863  
C    1.2040003   -0.0000007   -0.7283596  
C    1.1422369    0.0006038   -2.1454378  
N    2.4348636    0.0026114   -2.6077473  
C   -0.0655186    0.0008799   -2.8497919  
C   -1.2321772    0.0002325   -2.1101399  
O   -2.4392823    0.0001149   -2.7472518  
C   -1.1911211   -0.0000006   -0.6955264  
O   -2.4371523   -0.0002321   -0.1032858  
C    0.0000000    0.0000000    0.0000000  
H    3.0031536   -0.0000657    0.6222570  
H    2.7054624   -0.0071095   -3.5745269  
H   -3.1132991   -0.0000650   -2.0551783  
H   -2.3200275   -0.0004074    0.8516409  
H    4.3686617    0.0004077   -1.7024309  
C    2.2991546   -2.1048093   -5.8924441  
C    1.6888945   -1.6397490   -7.0128799  
C    0.6412926   -0.7448179   -6.5810650  
C    0.6916325   -0.7264669   -5.1066432  
N    1.7177143   -1.5716515   -4.7520888  
C   -0.1387090    0.0017019   -4.3179688  
C   -1.1495790    0.8219302   -4.9644229  
O   -1.9445189    1.5135262   -4.3414740  
C   -1.2212040    0.8175535   -6.5247614  
O   -2.0683196    1.5039441   -7.0802108  
C   -0.2716628   -0.0081808   -7.2666419  
H    1.9434313   -1.8946825   -8.0262075  
H   -0.3277661   -0.0054791   -8.3467199  
H    2.0018693   -1.7690373   -3.8101010  
C    4.5925579   -4.1516252   -8.9808653  
C    5.4808576   -4.8650143   -8.2504010  
C    5.1688448   -4.5470033   -6.8654760  
C    4.0349866   -3.6012897   -6.9465690  
N    3.6927082   -3.3657871   -8.1840555  
C    3.4248458   -3.0424254   -5.7716290  
C    3.9244555   -3.4118462   -4.5702744  
O    3.4524608   -2.9685539   -3.3926694  
C    5.0677964   -4.3646159   -4.4555545  
O    5.4710909   -4.6562968   -3.3297230  
C    5.6765715   -4.9241151   -5.6755050  
H    6.2524767   -5.5255446   -8.6073026  
H    4.0077104   -3.4062586   -2.7223972  
H    6.5027627   -5.6109993   -5.5496923  
H    4.4940690   -4.1133004  -10.0540863  
C    2.3971438    2.0127888    3.1728260  
C    1.9431056    1.6308205    1.9564670  
C    0.8496017    0.7127664    2.2356185  
C    0.7794028    0.6545384    3.7115134  
N    1.6840587    1.4146091    4.2663826  
C   -0.1885723   -0.1578550    4.3957118  
C   -1.0476298   -0.8789867    3.6398520  
O   -2.0015663   -1.6796266    4.1448486  
C   -1.0022026   -0.8410666    2.1483229  
O   -1.8147390   -1.5232959    1.5241687  
C    0.0000000    0.0000000    1.4700000  
H    2.3054237    1.9346118    0.9892483  
H   -0.2170646   -0.1815267    5.4753125  
H   -2.4487139   -2.0549881    3.3649027  
H    3.2048689    2.6911772    3.3971983  
