60

C    3.3041270    0.0001178   -1.5420432  
C    2.5845372   -0.0004779   -0.3695853  
C    1.2040007   -0.0000006   -0.7283591  
C    1.1422373    0.0006039   -2.1454374  
N    2.4348636    0.0026110   -2.6077466  
C   -0.0655186    0.0008800   -2.8497915  
C   -1.2321770    0.0002326   -2.1101397  
O   -2.4392818    0.0001149   -2.7472515  
C   -1.1911209   -0.0000006   -0.6955262  
O   -2.4371522   -0.0002319   -0.1032858  
C    0.0000000    0.0000000    0.0000000  
H    3.0031535   -0.0000661    0.6222580  
H    2.7054625   -0.0071097   -3.5745263  
H   -3.1132993   -0.0000646   -2.0551781  
H   -2.3200286   -0.0004070    0.8516413  
C    6.7370859   -0.0008254    1.2348660  
C    5.4910171   -0.0006932    0.6950625  
C    5.6537425    0.0002335   -0.7396342  
C    7.1071773    0.0006038   -0.9932431  
N    7.7077095    0.0003272    0.2445987  
C    7.6723918    0.0010659   -2.2270332  
C    6.7903710    0.0014341   -3.3822708  
O    7.2023938    0.0019214   -4.5348932  
C    5.2477322    0.0013038   -3.1371792  
O    4.4952266    0.0019173   -4.1020607  
C    4.7577214    0.0005130   -1.7610465  
H    4.5636978   -0.0010059    1.2397576  
H    8.7410255    0.0012018   -2.3911475  
H    7.0279700   -0.0014511    2.2727843  
H    8.6984747   -0.0010834    0.4040643  
C   -0.1387086    0.0017020   -4.3179679  
C    0.8847655    0.0023483   -5.2034512  
C    0.2487267    0.0030115   -6.5118679  
C   -1.2011849    0.0025370   -6.2214536  
N   -1.4344183    0.0018498   -4.9370897  
C   -2.1866335    0.0030154   -7.2673870  
C   -1.7437544    0.0043153   -8.5453508  
O   -2.5513001    0.0048878   -9.6195531  
C   -0.2869474    0.0051952   -8.8707331  
O    0.0441876    0.0062442  -10.0563002  
C    0.7042752    0.0046375   -7.7801357  
H    1.9409049    0.0024622   -4.9945357  
H   -3.2396166    0.0024447   -7.0262734  
H   -1.9471957    0.0058406  -10.3838892  
H    1.7498553    0.0054230   -8.0576089  
C    2.3971438    2.0127888    3.1728260  
C    1.9431056    1.6308205    1.9564670  
C    0.8496017    0.7127664    2.2356185  
C    0.7794028    0.6545384    3.7115134  
N    1.6840587    1.4146091    4.2663826  
C   -0.1885723   -0.1578550    4.3957118  
C   -1.0476298   -0.8789867    3.6398520  
O   -2.0015663   -1.6796266    4.1448486  
C   -1.0022026   -0.8410666    2.1483229  
O   -1.8147390   -1.5232959    1.5241687  
C    0.0000000    0.0000000    1.4700000  
H    2.3054237    1.9346118    0.9892483  
H   -0.2170646   -0.1815267    5.4753125  
H   -2.4487139   -2.0549881    3.3649027  
H    3.2048689    2.6911772    3.3971983  
