58

C    3.2798084    0.0005856   -1.4499652  
C    2.5571142    0.0005566   -2.5996557  
C    1.1637434    0.0001548   -2.2210362  
C    1.1336961   -0.0000200   -0.7459473  
N    2.4483514   -0.0001428   -0.3402724  
C    0.0000000    0.0000000    0.0000000  
C   -1.2757374   -0.0000187   -0.6964415  
O   -2.3524597   -0.0000640   -0.1142311  
C   -1.2676496   -0.0000874   -2.2584083  
O   -2.3355767   -0.0004101   -2.8557296  
C    0.0181557    0.0001759   -2.9516298  
H    2.9547349    0.0006074   -3.5989107  
H    2.7563629    0.0012824    0.6148060  
C    2.5092669   -2.0880364   -5.9399682  
C    1.9605213   -1.6268628   -4.7865938  
C    0.8894588   -0.7326236   -5.1580732  
C    0.8589563   -0.7104880   -6.6329865  
N    1.8659262   -1.5524065   -7.0453886  
C   -0.0149630    0.0176439   -7.3731172  
C   -0.9904844    0.8341824   -6.6701530  
O   -1.8197981    1.5255371   -7.2468408  
C   -0.9762349    0.8261497   -5.1082511  
O   -1.7925795    1.5098877   -4.5054701  
C    0.0139735    0.0003878   -4.4216240  
H    2.2707712   -1.8836547   -3.7893898  
H   -0.0204999    0.0196520   -8.4542629  
H    3.3296614   -2.7739652   -6.0754077  
H    2.0965136   -1.7491787   -8.0020273  
C    6.8068821    0.0035024   -4.1747007  
C    5.5278590    0.0022333   -3.7323464  
C    5.6328276    0.0014351   -2.2813190  
C    7.0869593    0.0022987   -2.0128334  
N    7.7802410    0.0035925   -3.1188841  
C    7.6138026    0.0019128   -0.6758509  
C    6.7282256    0.0011072    0.3464443  
O    7.0793821    0.0006616    1.6436451  
C    5.2547120    0.0005947    0.1078701  
O    4.5071917   -0.0002587    1.0858440  
C    4.7390849    0.0009614   -1.2727288  
H    4.6247041    0.0019724   -4.3183387  
H    8.6810610    0.0023570   -0.5089126  
H    6.2347360    0.0001391    2.1291616  
H    7.1567951    0.0044019   -5.1947661  
C    0.0000000    0.0000000    1.4700000  
C    1.0662921    0.0000102    2.3034270  
C    0.4961870   -0.0000064    3.6418889  
C   -0.9663858    0.0000850    3.4240247  
N   -1.2632773    0.0000084    2.1528658  
C   -1.8985362    0.0000517    4.5177257  
C   -1.3925775   -0.0004564    5.7720543  
O   -2.1456383   -0.0005410    6.8851312  
C    0.0786232   -0.0009323    6.0245000  
O    0.4683759   -0.0012588    7.1921102  
C    1.0143166   -0.0008442    4.8859032  
H    2.1107198   -0.0000632    2.0421868  
H   -2.9622183    0.0003270    4.3293377  
H   -1.5042274   -0.0009692    7.6184419  
H    2.0724152   -0.0013148    5.1109744  
