64

C    6.5582207    0.0029727   -4.4647477  
C    7.6103886    0.0023859   -3.5785137  
C    7.0499433    0.0016138   -2.2668352  
C    5.6394780    0.0014821   -2.4168803  
N    5.3749053    0.0042714   -3.7639549  
C    4.7630507    0.0004755   -1.3275395  
C    5.3206372   -0.0007212   -0.0637069  
O    4.5107990   -0.0020885    1.0350076  
C    6.7255801   -0.0002356    0.1064473  
O    7.1255749   -0.0011497    1.4268057  
C    7.5907994    0.0010304   -0.9677590  
H    8.6535289    0.0036054   -3.8446907  
H    4.4592348   -0.0057080   -4.1755737  
H    5.0947322   -0.0024568    1.8046094  
H    8.0872937   -0.0007699    1.4532563  
H    8.6624383    0.0015567   -0.8063019  
C    9.8585746    0.0034590   -7.4086476  
C    9.0815015    0.0050581   -8.5438223  
C    7.7205400    0.0053541   -8.1167574  
C    7.7294088    0.0041655   -6.6983619  
N    9.0434491    0.0010818   -6.3009863  
C    6.5582208    0.0043936   -5.9347473  
C    5.3561829    0.0061549   -6.6153939  
O    4.1822971    0.0068060   -5.9189698  
C    5.3267550    0.0069851   -8.0302957  
O    4.0527818    0.0083188   -8.5597628  
C    6.4817685    0.0064877   -8.7842664  
H    9.4502141    0.0048017   -9.5552788  
H    9.3618550    0.0101930   -5.3488754  
H    3.4746584    0.0077461   -6.5766259  
H    4.1222156    0.0088366   -9.5193361  
H    6.4278099    0.0069662   -9.8666550  
H   10.9297750    0.0023804   -7.3014634  
C    3.3003548    0.0005276   -1.4738982  
C    2.5232817    0.0003497   -2.6090743  
C    1.1623204   -0.0001319   -2.1820101  
C    1.1711886    0.0000583   -0.7636140  
N    2.4852302   -0.0014919   -0.3662356  
C    0.0000000    0.0000000    0.0000000  
C   -1.2020379    0.0000520   -0.6806479  
O   -2.3759249    0.0003495    0.0157742  
C   -1.2314652   -0.0005112   -2.0955511  
O   -2.5054384   -0.0008036   -2.6250184  
C   -0.0764510   -0.0007271   -2.8495195  
H    2.8919962   -0.0005619   -3.6205297  
H    2.8036267    0.0088181    0.5858667  
H   -3.0835636    0.0000348   -0.6418823  
H   -2.4360038   -0.0011526   -3.5845925  
H   -0.1304090   -0.0013420   -3.9319089  
C    0.8175213    0.6860729    2.3021913  
C    0.0000000    0.0000000    1.4700000  
C   -0.8887526   -0.7456559    2.3478473  
C   -0.4549825   -0.3816753    3.7138435  
N    0.5448156    0.4573574    3.6934124  
C   -1.0945674   -0.9182058    4.8835240  
C   -2.1210866   -1.7789155    4.6970523  
O   -2.8083856   -2.3554314    5.6976972  
C   -2.5824069   -2.1655116    3.3310774  
O   -3.5227682   -2.9541547    3.2362962  
C   -1.9100805   -1.6015804    2.1470656  
H   -0.7567140   -0.6349833    5.8697035  
H   -3.4728268   -2.9124471    5.2533954  
H   -2.2742832   -1.9066565    1.1752040  
H    1.6189533    1.3585343    2.0405121  
