58

C    2.4782020   -2.1081877   -5.8783644  
C    1.9212515   -1.6438944   -7.0265418  
C    0.8545983   -0.7486153   -6.6450159  
C    0.8356633   -0.7292246   -5.1698703  
N    1.8439054   -1.5742006   -4.7669400  
C   -0.0307352   -0.0004646   -4.4215603  
C   -1.0100802    0.8193482   -5.1153371  
O   -1.8333384    1.5114170   -4.5308821  
C   -1.0083722    0.8138721   -6.6773144  
O   -1.8284257    1.4999046   -7.2724040  
C   -0.0251097   -0.0124253   -7.3732162  
H    2.2230616   -1.8995541   -8.0266228  
H    3.2985202   -2.7956869   -5.7506359  
H    2.0835083   -1.7709324   -3.8125110  
C    0.5327409   -3.2137176  -10.3626914  
C    0.4120234   -2.5075574   -9.2090707  
C    0.1651502   -1.1341437   -9.5800473  
C    0.1518129   -1.0977945  -11.0549351  
N    0.3809809   -2.3900449  -11.4678033  
C   -0.0518341    0.0216041  -11.7946499  
C   -0.2723944    1.2742405  -11.0912376  
O   -0.4650401    2.3368184  -11.6675323  
C   -0.2621968    1.2591538   -9.5293551  
O   -0.4464469    2.3077320   -8.9262006  
C   -0.0323596   -0.0097875   -8.8431965  
H    0.4875032   -2.9035447   -8.2120203  
H   -0.0578609    0.0265447  -12.8757841  
H    0.7200155   -4.2665095  -10.4985126  
H    0.4284474   -2.6891330  -12.4245373  
C    3.2573670   -0.0002920   -1.5109380  
C    2.5379468   -0.0001709   -0.3591961  
C    1.1435043    0.0000332   -0.7338500  
C    1.1092609   -0.0000082   -2.2088477  
N    2.4227562    0.0001909   -2.6182613  
C   -0.0265532   -0.0002522   -2.9515663  
C   -1.3003035   -0.0002639   -2.2514981  
O   -2.3786784   -0.0004131   -2.8306429  
C   -1.2877725    0.0000312   -0.6895608  
O   -2.3539958    0.0003307   -0.0892036  
C    0.0000000    0.0000000    0.0000000  
H    2.9384091   -0.0000369    0.6389239  
H    4.3270394   -0.0004765   -1.6439446  
H    2.7280494   -0.0013406   -3.5742113  
C    0.8175213    0.6860729    2.3021913  
C    0.0000000    0.0000000    1.4700000  
C   -0.8887526   -0.7456559    2.3478473  
C   -0.4549825   -0.3816753    3.7138435  
N    0.5448156    0.4573574    3.6934124  
C   -1.0945674   -0.9182058    4.8835240  
C   -2.1210866   -1.7789155    4.6970523  
O   -2.8083856   -2.3554314    5.6976972  
C   -2.5824069   -2.1655116    3.3310774  
O   -3.5227682   -2.9541547    3.2362962  
C   -1.9100805   -1.6015804    2.1470656  
H   -0.7567140   -0.6349833    5.8697035  
H   -3.4728268   -2.9124471    5.2533954  
H   -2.2742832   -1.9066565    1.1752040  
H    1.6189533    1.3585343    2.0405121  
