58

C   -0.9325306    0.5768984   -0.8010308  
C    0.0000000    0.0000000    0.0000000  
C    0.9817912   -0.6077148   -0.8669512  
C    0.5416624   -0.3356007   -2.2486281  
N   -0.6247918    0.3857630   -2.1395010  
C    1.2029897   -0.7445816   -3.3608714  
C    2.4300359   -1.5036066   -3.1854460  
O    3.0977881   -1.9166479   -4.1244900  
C    2.9147042   -1.8035612   -1.7311661  
O    3.9462143   -2.4419935   -1.5710055  
C    2.1167518   -1.3097373   -0.6116741  
H    2.4593080   -1.5214992    0.3920865  
H   -1.8187992    1.1254113   -0.5261645  
H   -1.1677174    0.7233102   -2.9130259  
C   -0.6073545    2.8345451   -5.2072024  
C   -0.0524537    1.9480662   -4.3409952  
C    0.2034499    0.7369773   -5.0843738  
C   -0.2510822    0.9923931   -6.4645744  
N   -0.7321662    2.2813399   -6.4725583  
C   -0.1798377    0.0911814   -7.4767238  
C    0.3818035   -1.2177757   -7.1873681  
O    0.4889899   -2.0979536   -8.0312275  
C    0.8692606   -1.5101808   -5.7324837  
O    1.3436254   -2.6087704   -5.4768661  
C    0.7408096   -0.4586229   -4.7267109  
H    0.1538676    2.1225735   -3.3000376  
H   -0.5187954    0.2987196   -8.4821821  
H   -1.1131866    2.7489105   -7.2745860  
C   -1.0109404    4.9087476   -3.8022384  
C   -1.0552853    4.2130415   -4.9622409  
C   -1.6464916    5.1283471   -5.9261861  
C   -1.9046925    6.3643724   -5.1566679  
N   -1.5341223    6.2416465   -3.9110332  
C   -2.4940030    7.5275393   -5.7606886  
C   -2.8106087    7.4591648   -7.0738600  
O   -3.3657501    8.4687727   -7.7656340  
C   -2.5620117    6.2261185   -7.8775747  
O   -2.8753674    6.2347523   -9.0679334  
C   -1.9564693    5.0461044   -7.2350717  
H   -2.6716538    8.4172710   -5.1744058  
H   -3.4719863    8.1210768   -8.6694998  
H   -1.7925566    4.1725828   -7.8517746  
H   -0.6392363    4.5803181   -2.8446669  
C    2.5528530    2.1414826    2.8079335  
C    2.0663498    1.7338582    4.0032312  
C    0.9804344    0.8229586    3.6752840  
C    0.9495562    0.7966882    2.1971295  
N    1.8690446    1.5676019    1.6831036  
C    0.0000000    0.0000000    1.4700000  
C   -0.8785127   -0.7372425    2.1869543  
O   -1.8187535   -1.5261249    1.6395491  
C   -0.8723269   -0.7321790    3.6796354  
O   -1.7010379   -1.4274584    4.2670412  
C    0.1115397    0.0933559    4.4024240  
H    2.4028853    2.0163452    4.9860947  
H   -2.2861435   -1.9184361    2.3990168  
H    0.0832434    0.0693689    5.4835595  
H    3.3664920    2.8238276    2.6198634  
