58

C   -1.1319185    0.0039065   -0.8009265  
C   -0.7969986    0.0003587   -2.1169399  
C    0.6453096   -0.0066905   -2.1842666  
C    1.1266632   -0.0069899   -0.7896019  
N    0.0000000    0.0000000    0.0000000  
C    2.4345780   -0.0131657   -0.4276288  
C    3.4349559   -0.0197462   -1.4820178  
O    4.6383927   -0.0255204   -1.2583902  
C    2.9478379   -0.0193009   -2.9661066  
O    3.7808645   -0.0244992   -3.8623763  
C    1.5113395   -0.0126151   -3.2312122  
H    2.7664242   -0.0133968    0.6013454  
H    1.1823071   -0.0125561   -4.2614844  
H   -2.1104111    0.0092632   -0.3488058  
C   -1.7334723    0.0034555   -3.2500363  
C   -3.0863160    0.0092246   -3.2131614  
C   -3.4995527    0.0098873   -4.6080576  
C   -2.2334018    0.0040289   -5.3718712  
N   -1.1947562    0.0001597   -4.5811822  
C   -2.2116454    0.0028000   -6.8087468  
C   -3.4007218    0.0068339   -7.4532741  
O   -3.5293526    0.0062670   -8.7909942  
C   -4.6955553    0.0124132   -6.7106195  
O   -5.7398141    0.0160097   -7.3623332  
C   -4.6914412    0.0136155   -5.2368807  
H   -3.7249420    0.0125219   -2.3464303  
H   -4.4909183    0.0097917   -8.9476234  
H   -5.6504141    0.0175915   -4.7362963  
C    0.1917323   -0.6930111   -7.2315279  
C   -0.9326075   -0.0027996   -7.5332679  
C   -0.6039290    0.7405651   -8.7398659  
C    0.7969884    0.3708671   -9.0353963  
N    1.2687086   -0.4692721   -8.1546949  
C    1.5015806    0.9036996  -10.1688542  
C    0.8367496    1.7663357  -10.9708471  
O    1.3709041    2.3398540  -12.0625410  
C   -0.5776394    2.1586818  -10.6993173  
O   -1.1205081    2.9488000  -11.4714760  
C   -1.2786710    1.5984643   -9.5302854  
H    2.5250624    0.6163202  -10.3607085  
H    0.6590097    2.8993495  -12.4221571  
H   -2.3025962    1.9076740   -9.3684322  
H    0.3564257   -1.3654252   -6.4046607  
C    0.0000000    0.0000000    1.4700000  
C    1.0662921    0.0000102    2.3034270  
C    0.4961870   -0.0000064    3.6418889  
C   -0.9663858    0.0000850    3.4240247  
N   -1.2632773    0.0000084    2.1528658  
C   -1.8985362    0.0000517    4.5177257  
C   -1.3925775   -0.0004564    5.7720543  
O   -2.1456383   -0.0005410    6.8851312  
C    0.0786232   -0.0009323    6.0245000  
O    0.4683759   -0.0012588    7.1921102  
C    1.0143166   -0.0008442    4.8859032  
H    2.1107198   -0.0000632    2.0421868  
H   -2.9622183    0.0003270    4.3293377  
H   -1.5042274   -0.0009692    7.6184419  
H    2.0724152   -0.0013148    5.1109744  
