58

C    6.8847521   -0.0023785    0.6986611  
C    5.5715632   -0.0012904    0.3713798  
C    5.5475443   -0.0015350   -1.0832412  
C    6.9721656   -0.0027414   -1.4795200  
N    7.7607267   -0.0033210   -0.4392506  
C    7.3784668   -0.0033612   -2.8579266  
C    6.4057885   -0.0031903   -3.7977300  
O    6.6406195   -0.0037039   -5.1209441  
C    4.9592109   -0.0023543   -3.4295277  
O    4.1279730   -0.0021183   -4.3374177  
C    4.5679461   -0.0016854   -2.0086701  
H    4.7238856   -0.0005185    1.0350950  
H    8.4267357   -0.0040357   -3.1187772  
H    5.7562748   -0.0034384   -5.5297074  
C    5.3170047    0.0020815    4.8707820  
C    5.3639044    0.0019152    3.5182362  
C    6.7816942   -0.0005472    3.1920974  
C    7.4657038   -0.0015311    4.5030946  
N    6.6122667   -0.0000791    5.4908365  
C    8.8984784   -0.0040046    4.6137172  
C    9.6153409   -0.0058194    3.4667914  
O   10.9584544   -0.0082020    3.4211781  
C    8.9542237   -0.0052611    2.1284768  
O    9.6692992   -0.0068808    1.1265360  
C    7.4830558   -0.0026655    2.0413944  
H    4.5383488    0.0032029    2.8271991  
H    9.3717209   -0.0044687    5.5847750  
H   11.1742762   -0.0090668    2.4711402  
H    4.4448363    0.0036169    5.5050478  
C    3.1301149   -0.0010311   -1.7028252  
C    2.5367768   -0.0002767   -0.4864665  
C    1.1089904    0.0001028   -0.7656183  
C    1.0177872   -0.0004148   -2.2415132  
N    2.1993578   -0.0011611   -2.7963820  
C   -0.2459209   -0.0002877   -2.9257118  
C   -1.3675319   -0.0000605   -2.1698524  
O   -2.6129313    0.0000867   -2.6748490  
C   -1.3083584    0.0000910   -0.6783232  
O   -2.3693261    0.0004206   -0.0541692  
C    0.0000000    0.0000000    0.0000000  
H    3.0096017   -0.0001007    0.4807525  
H   -0.2829630   -0.0004687   -4.0053125  
H   -3.1967441    0.0002094   -1.8949034  
C    0.8175213    0.6860729    2.3021913  
C    0.0000000    0.0000000    1.4700000  
C   -0.8887526   -0.7456559    2.3478473  
C   -0.4549825   -0.3816753    3.7138435  
N    0.5448156    0.4573574    3.6934124  
C   -1.0945674   -0.9182058    4.8835240  
C   -2.1210866   -1.7789155    4.6970523  
O   -2.8083856   -2.3554314    5.6976972  
C   -2.5824069   -2.1655116    3.3310774  
O   -3.5227682   -2.9541547    3.2362962  
C   -1.9100805   -1.6015804    2.1470656  
H   -0.7567140   -0.6349833    5.8697035  
H   -3.4728268   -2.9124471    5.2533954  
H   -2.2742832   -1.9066565    1.1752040  
H    1.6189533    1.3585343    2.0405121  
