58

C   -4.5679472    0.0002284   -2.0086696  
C   -5.6049860   -0.0000947   -1.1391126  
C   -6.7955425    0.0003043   -1.9752187  
C   -6.2781469    0.0009758   -3.3604572  
N   -4.9730346    0.0008537   -3.3863771  
C   -7.1539729    0.0014763   -4.4997616  
C   -8.4861207    0.0009243   -4.2658479  
O   -9.4181600    0.0013015   -5.2340133  
C   -9.0391375   -0.0001308   -2.8793658  
O  -10.2622871   -0.0004643   -2.7410725  
C   -8.1201348   -0.0005838   -1.7272548  
H   -5.5667635   -0.0006378   -0.0631876  
H   -6.7483999    0.0021694   -5.5009708  
H  -10.2688737    0.0007037   -4.7592098  
C   -3.1301156    0.0000327   -1.7028248  
C   -2.5367769   -0.0005325   -0.4864662  
C   -1.1089907   -0.0004564   -0.7656183  
C   -1.0177879    0.0000903   -2.2415131  
N   -2.1993583    0.0004597   -2.7963817  
C    0.2459205    0.0003663   -2.9257120  
C    1.3675313    0.0004968   -2.1698528  
O    2.6129309    0.0007469   -2.6748495  
C    1.3083582    0.0003263   -0.6783234  
O    2.3693254    0.0003351   -0.0541696  
C    0.0000000    0.0000000    0.0000000  
H   -3.0096020   -0.0008593    0.4807529  
H    0.2829623    0.0005591   -4.0053127  
H    3.1967435    0.0008104   -1.8949040  
C   -8.7184386   -0.0017815   -0.3845219  
C   -8.0836748   -0.0022950    0.8107410  
C   -9.1491884   -0.0034851    1.8012856  
C  -10.3964647   -0.0034293    1.0070019  
N  -10.1502787   -0.0025135   -0.2749422  
C  -11.6930600   -0.0044894    1.6266197  
C  -11.7414278   -0.0059457    2.9782833  
O  -12.8823249   -0.0070469    3.6884915  
C  -10.5003462   -0.0064130    3.8076653  
O  -10.6195647   -0.0076340    5.0328209  
C   -9.1822418   -0.0052609    3.1484807  
H   -7.0233421   -0.0020034    0.9972099  
H  -12.5879767   -0.0042156    1.0216134  
H  -12.5949091   -0.0079791    4.6193748  
H   -8.3073548   -0.0057608    3.7847219  
C    0.8175213    0.6860729    2.3021913  
C    0.0000000    0.0000000    1.4700000  
C   -0.8887526   -0.7456559    2.3478473  
C   -0.4549825   -0.3816753    3.7138435  
N    0.5448156    0.4573574    3.6934124  
C   -1.0945674   -0.9182058    4.8835240  
C   -2.1210866   -1.7789155    4.6970523  
O   -2.8083856   -2.3554314    5.6976972  
C   -2.5824069   -2.1655116    3.3310774  
O   -3.5227682   -2.9541547    3.2362962  
C   -1.9100805   -1.6015804    2.1470656  
H   -0.7567140   -0.6349833    5.8697035  
H   -3.4728268   -2.9124471    5.2533954  
H   -2.2742832   -1.9066565    1.1752040  
H    1.6189533    1.3585343    2.0405121  
