60

C    3.3003547    0.0005275   -1.4738980  
C    2.5232816    0.0003495   -2.6090742  
C    1.1623206   -0.0001320   -2.1820096  
C    1.1711889    0.0000583   -0.7636136  
N    2.4852300   -0.0014920   -0.3662353  
C    0.0000000    0.0000000    0.0000000  
C   -1.2020382    0.0000519   -0.6806479  
O   -2.3759247    0.0003494    0.0157745  
C   -1.2314650   -0.0005113   -2.0955508  
O   -2.5054383   -0.0008037   -2.6250181  
C   -0.0764510   -0.0007273   -2.8495192  
H    2.8919962   -0.0005621   -3.6205295  
H    2.8036265    0.0088181    0.5858667  
H   -3.0835641    0.0000347   -0.6418820  
H   -2.4360047   -0.0011529   -3.5845921  
C    5.6692781    0.0003509   -2.3388886  
C    4.7630506    0.0004754   -1.3275394  
C    5.5107324    0.0002563   -0.0923034  
C    6.9370640    0.0000210   -0.4696224  
N    6.9650293   -0.0003075   -1.8451613  
C    7.9663628    0.0001703    0.4148255  
C    7.6481554    0.0003646    1.8330215  
O    8.5043584    0.0004476    2.7077878  
C    6.1443525    0.0003633    2.2553745  
O    5.8642069    0.0002193    3.4465004  
C    5.1238538    0.0004732    1.2101796  
H    9.0057225    0.0001229    0.1170994  
H    4.0849828    0.0006771    1.5109657  
H    5.4995504    0.0004676   -3.4033520  
H    7.7983621    0.0010317   -2.4042699  
C    2.3338141   -2.1434184   -5.7798768  
C    1.7883286   -1.7365457   -6.9496967  
C    0.7199257   -0.8256236   -6.5685990  
C    0.7626769   -0.7985191   -5.0907552  
N    1.7067554   -1.5690026   -4.6227165  
C   -0.1496409   -0.0015614   -4.3176961  
C   -1.0628921    0.7351418   -4.9904330  
O   -1.9748529    1.5241932   -4.3973342  
C   -1.1310322    0.7292322   -6.4815671  
O   -1.9880859    1.4240534   -7.0273727  
C   -0.1842253   -0.0965645   -7.2519836  
H    2.0755614   -2.0195396   -7.9479388  
H   -2.4795466    1.9160029   -5.1328082  
H   -0.2663195   -0.0731952   -8.3303829  
H    3.1559296   -2.8255340   -5.6321685  
C    2.4951002    2.0940188    2.9809380  
C    1.9440701    1.6314916    1.8291961  
C    0.8759964    0.7350050    2.2038498  
C    0.8497377    0.7130254    3.6788474  
N    1.8560616    1.5571714    4.0882609  
C   -0.0205033   -0.0168748    4.4215661  
C   -0.9962600   -0.8356168    3.7214979  
O   -1.8224391   -1.5286685    4.3006425  
C   -0.9864710   -0.8277881    2.1595606  
O   -1.8030528   -1.5133726    1.5592035  
C    0.0000000    0.0000000    1.4700000  
H    2.2509283    1.8888011    0.8310761  
H   -0.0229599   -0.0187323    5.5027230  
H    3.3143982    2.7817323    3.1139444  
H    2.0889452    1.7545833    5.0442112  
