60

C    0.0000000    0.0000000    0.0000000  
C    1.0521665   -0.0011901   -0.8862342  
C    0.4917217   -0.0011956   -2.1979130  
C   -0.9187428    0.0003148   -2.0478683  
N   -1.1833173   -0.0009411   -0.7007911  
C   -1.7951703    0.0010349   -3.1372088  
C   -1.2375840    0.0005224   -4.4010424  
O   -2.0474220    0.0015359   -5.4997576  
C    0.1673578   -0.0013566   -4.5711965  
O    0.5673521   -0.0020688   -5.8915549  
C    1.0325768   -0.0023412   -3.4969890  
H    2.0953059   -0.0030648   -0.6200563  
H   -2.0989774    0.0102371   -0.2891826  
H   -1.4634888    0.0006496   -6.2693593  
H    1.5290706   -0.0033152   -5.9180048  
C    2.4861699   -0.0045381   -3.7159922  
C    3.4897063   -0.0058943   -2.8011220  
C    4.7313100   -0.0078157   -3.5381794  
C    4.3662418   -0.0074358   -4.9676951  
N    2.9909941   -0.0058195   -5.0074603  
C    5.2594863   -0.0084768   -5.9893686  
C    6.6748994   -0.0103045   -5.6590062  
O    7.5569778   -0.0114081   -6.5076735  
C    7.0843358   -0.0109888   -4.1516353  
O    8.2730116   -0.0128317   -3.8612813  
C    6.0304251   -0.0094611   -3.1401403  
H    3.3734533   -0.0057666   -1.7319644  
H    4.9706892   -0.0080439   -7.0312444  
H    6.3222879   -0.0097419   -2.0987280  
H    2.4390576   -0.0036423   -5.8455591  
C   -4.0038864    0.6892042   -2.0945595  
C   -3.2578657    0.0024038   -2.9908504  
C   -4.2205332   -0.7423831   -3.7877590  
C   -5.5362146   -0.3771557   -3.2201536  
N   -5.4155589    0.4618000   -2.2273873  
C   -6.7642619   -0.9125598   -3.7400842  
C   -6.6817234   -1.7733838   -4.7800382  
O   -7.7463630   -2.3489278   -5.3642738  
C   -5.3688274   -2.1612250   -5.3750535  
O   -5.3688780   -2.9499018   -6.3201514  
C   -4.1232342   -1.5984354   -4.8239725  
H   -7.7116387   -0.6284386   -3.3057319  
H   -7.3709427   -2.9063189   -6.0696299  
H   -3.1927479   -1.9043954   -5.2831165  
H   -3.6630872    1.3613755   -1.3231872  
C    0.0000000    0.0000000    1.4700000  
C    1.0662921    0.0000102    2.3034270  
C    0.4961870   -0.0000064    3.6418889  
C   -0.9663858    0.0000850    3.4240247  
N   -1.2632773    0.0000084    2.1528658  
C   -1.8985362    0.0000517    4.5177257  
C   -1.3925775   -0.0004564    5.7720543  
O   -2.1456383   -0.0005410    6.8851312  
C    0.0786232   -0.0009323    6.0245000  
O    0.4683759   -0.0012588    7.1921102  
C    1.0143166   -0.0008442    4.8859032  
H    2.1107198   -0.0000632    2.0421868  
H   -2.9622183    0.0003270    4.3293377  
H   -1.5042274   -0.0009692    7.6184419  
H    2.0724152   -0.0013148    5.1109744  
