58

C   -3.2573639   -0.0045762   -1.5109380  
C   -2.5379441   -0.0036221   -0.3591960  
C   -1.1435029   -0.0017421   -0.7338497  
C   -1.1092596   -0.0016495   -2.2088471  
N   -2.4227533   -0.0038118   -2.6182607  
C    0.0265529    0.0002921   -2.9515664  
C    1.3003023    0.0022074   -2.2514976  
O    2.3786749    0.0039683   -2.8306422  
C    1.2877710    0.0018935   -0.6895606  
O    2.3539936    0.0031875   -0.0892031  
C    0.0000000    0.0000000    0.0000000  
H   -2.9384056   -0.0043548    0.6389239  
H    0.0296287    0.0004529   -4.0327229  
H   -2.7280481   -0.0027365   -3.5742115  
C   -6.7921713   -0.0111223    1.2037511  
C   -5.5118950   -0.0096336    0.7650374  
C   -5.6127357   -0.0088218   -0.6862831  
C   -7.0660970   -0.0101409   -0.9589044  
N   -7.7625224   -0.0114116    0.1451703  
C   -7.5891352   -0.0097871   -2.2973801  
C   -6.7006548   -0.0077991   -3.3171510  
O   -7.0481200   -0.0072504   -4.6153451  
C   -5.2278265   -0.0060586   -3.0743856  
O   -4.4775282   -0.0044118   -4.0502290  
C   -4.7161290   -0.0065049   -1.6923257  
H   -4.6104111   -0.0090564    1.3535966  
H   -8.6559145   -0.0109821   -2.4673540  
H   -6.2020976   -0.0057129   -5.0984568  
C   -7.2730958   -0.0124377    2.5928551  
C   -6.5381472   -0.0124204    3.7292657  
C   -7.5147687   -0.0140373    4.8075548  
C   -8.8255781   -0.0147837    4.1231844  
N   -8.6902591   -0.0139324    2.8248478  
C  -10.0642455   -0.0164539    4.8517345  
C   -9.9964957   -0.0177272    6.2025651  
O  -11.0722683   -0.0193396    7.0080166  
C   -8.6888467   -0.0173901    6.9224369  
O   -8.7025374   -0.0184862    8.1533033  
C   -7.4321432   -0.0156224    6.1526205  
H   -5.4657281   -0.0115225    3.8240974  
H  -11.0077590   -0.0167612    4.3257196  
H  -10.7060644   -0.0199711    7.9108161  
H   -6.5059070   -0.0155472    6.7114730  
C    0.0000000    0.0000000    1.4700000  
C    1.0662921    0.0000102    2.3034270  
C    0.4961870   -0.0000064    3.6418889  
C   -0.9663858    0.0000850    3.4240247  
N   -1.2632773    0.0000084    2.1528658  
C   -1.8985362    0.0000517    4.5177257  
C   -1.3925775   -0.0004564    5.7720543  
O   -2.1456383   -0.0005410    6.8851312  
C    0.0786232   -0.0009323    6.0245000  
O    0.4683759   -0.0012588    7.1921102  
C    1.0143166   -0.0008442    4.8859032  
H    2.1107198   -0.0000632    2.0421868  
H   -2.9622183    0.0003270    4.3293377  
H   -1.5042274   -0.0009692    7.6184419  
H    2.0724152   -0.0013148    5.1109744  
