64

C    1.5862969   -2.0670326   -5.3411836  
C    1.3189956   -1.5555212   -6.5899324  
C    0.1997469   -0.6822143   -6.4513058  
C   -0.1759083   -0.7009551   -5.0836590  
N    0.6852545   -1.5532115   -4.4381554  
C   -1.2456329    0.0471727   -4.5828766  
C   -1.9487576    0.8286865   -5.4789959  
O   -3.0021411    1.5794496   -5.0433908  
C   -1.5894389    0.8603676   -6.8474630  
O   -2.3865851    1.6866030   -7.6124701  
C   -0.5344143    0.1223711   -7.3422463  
H    0.6698561   -1.7594943   -3.4557139  
H   -3.3470230    2.0416476   -5.8184352  
H   -2.0769434    1.6504685   -8.5226465  
H   -0.2828471    0.1667449   -8.3954426  
H    2.3474954   -2.7588388   -5.0234745  
C    3.0135395   -5.3420575   -8.1227530  
C    3.5384242   -4.8395654   -9.2908573  
C    3.2370707   -3.4456122   -9.3169646  
C    2.5210254   -3.1522512   -8.1282082  
N    2.4010758   -4.3262417   -7.4267980  
C    2.0618370   -1.8683177   -7.8192597  
C    2.3306485   -0.8621423   -8.7267441  
O    1.9055519    0.4101466   -8.4745785  
C    3.0433222   -1.1351466   -9.9185427  
O    3.2309410   -0.0279882  -10.7200053  
C    3.4963883   -2.4015934  -10.2241052  
H    4.0718254   -5.4080247  -10.0333725  
H    1.9487353   -4.4265185   -6.5361164  
H    2.1933543    0.9477367   -9.2238656  
H    3.7198898   -0.2987269  -11.5030987  
H    4.0394527   -2.5803644  -11.1447583  
H    3.0263464   -6.3449732   -7.7316588  
C    1.1243410    0.0099923   -0.7919003  
C    0.7474076    0.0234544   -2.1148543  
C   -0.6787381    0.0234490   -2.1414700  
C   -1.1201745    0.0098592   -0.7935546  
N    0.0000000    0.0000000    0.0000000  
C   -2.4730816    0.0063709   -0.4408240  
C   -3.3971958    0.0170982   -1.4675058  
O   -4.7313517    0.0146259   -1.1793471  
C   -2.9763648    0.0303504   -2.8186324  
O   -4.0166480    0.0395118   -3.7247624  
C   -1.6418562    0.0335260   -3.1673481  
H    1.4178717    0.0310972   -2.9571209  
H   -2.8160166   -0.0041111    0.5845966  
H   -5.1938818    0.0230867   -2.0274384  
H   -3.6464675    0.0482293   -4.6127343  
H    2.1062467    0.0052819   -0.3505407  
C    0.8175213    0.6860729    2.3021913  
C    0.0000000    0.0000000    1.4700000  
C   -0.8887526   -0.7456559    2.3478473  
C   -0.4549825   -0.3816753    3.7138435  
N    0.5448156    0.4573574    3.6934124  
C   -1.0945674   -0.9182058    4.8835240  
C   -2.1210866   -1.7789155    4.6970523  
O   -2.8083856   -2.3554314    5.6976972  
C   -2.5824069   -2.1655116    3.3310774  
O   -3.5227682   -2.9541547    3.2362962  
C   -1.9100805   -1.6015804    2.1470656  
H   -0.7567140   -0.6349833    5.8697035  
H   -3.4728268   -2.9124471    5.2533954  
H   -2.2742832   -1.9066565    1.1752040  
H    1.6189533    1.3585343    2.0405121  
