60

C    0.0000000    0.0000000    0.0000000  
C    0.7157253    0.7712285   -0.8862348  
C    0.3349575    0.3599928   -2.1979133  
C   -0.6244343   -0.6739225   -2.0478684  
N   -0.8032671   -0.8689095   -0.7007915  
C   -1.2204156   -1.3165195   -3.1372092  
C   -0.8412103   -0.9077341   -4.4010425  
O   -1.3921657   -1.5012715   -5.4997578  
C    0.1146993    0.1218780   -4.5711965  
O    0.3869820    0.4148937   -5.8915553  
C    0.7032601    0.7560717   -3.4969896  
H    1.4258193    1.5353675   -0.6200570  
H   -1.4335774   -1.5331889   -0.2891825  
H   -1.9521470   -2.1053040   -3.0295510  
H   -0.9947863   -1.0734075   -6.2693592  
H    1.0412974    1.1197166   -5.9180052  
C    2.8323914    2.0144584   -3.0037690  
C    1.6924573    1.8211663   -3.7159928  
C    1.6429613    2.8571005   -4.7205950  
C    2.8562154    3.6756148   -4.5339418  
N    3.5342421    3.1125177   -3.4774897  
C    3.1786254    4.7559184   -5.2893894  
C    2.2699469    5.1381161   -6.3574547  
O    2.4716063    6.0956534   -7.0928162  
C    0.9789329    4.2856831   -6.5729684  
O    0.2062602    4.5980306   -7.4688907  
C    0.7399117    3.1431928   -5.6946535  
H   -0.1561671    2.5580027   -5.8506001  
H    3.2186860    1.4472478   -2.1725423  
H    4.4058036    3.4464546   -3.1088248  
C    4.3955757    5.5536645   -5.0807416  
C    5.3787732    5.3900060   -4.1584547  
C    6.3444327    6.4400019   -4.3817125  
C    5.8395925    7.2345089   -5.5177964  
N    4.6553096    6.6450082   -5.8957548  
C    6.4681753    8.3194653   -6.0368883  
C    7.7259836    8.7320987   -5.4367313  
O    8.3682568    9.6960546   -5.8324251  
C    8.2794362    7.9051404   -4.2327232  
O    9.3376424    8.2428375   -3.7194764  
C    7.5116059    6.7551988   -3.7616367  
H    5.4226483    4.6213391   -3.4075617  
H    6.0806859    8.8884215   -6.8705853  
H    7.9015836    6.1880188   -2.9274012  
H    4.0688839    6.9603422   -6.6465656  
C    0.0000000    0.0000000    1.4700000  
C    1.0662921    0.0000102    2.3034270  
C    0.4961870   -0.0000064    3.6418889  
C   -0.9663858    0.0000850    3.4240247  
N   -1.2632773    0.0000084    2.1528658  
C   -1.8985362    0.0000517    4.5177257  
C   -1.3925775   -0.0004564    5.7720543  
O   -2.1456383   -0.0005410    6.8851312  
C    0.0786232   -0.0009323    6.0245000  
O    0.4683759   -0.0012588    7.1921102  
C    1.0143166   -0.0008442    4.8859032  
H    2.1107198   -0.0000632    2.0421868  
H   -2.9622183    0.0003270    4.3293377  
H   -1.5042274   -0.0009692    7.6184419  
H    2.0724152   -0.0013148    5.1109744  
