58

C    1.1319246    0.0015699   -0.8009270  
C    0.7969910    0.0034973   -2.1169403  
C   -0.6453347    0.0035683   -2.1842668  
C   -1.1266837    0.0015387   -0.7896024  
N    0.0000000    0.0000000    0.0000000  
C   -2.4346131    0.0013865   -0.4276287  
C   -3.4350119    0.0031267   -1.4820171  
O   -4.6384616    0.0030784   -1.2583901  
C   -2.9478970    0.0050382   -2.9661067  
O   -3.7809395    0.0062062   -3.8623766  
C   -1.5113834    0.0053027   -3.2312118  
H   -2.7664564    0.0000119    0.6013457  
H   -1.1823544    0.0068359   -4.2614846  
H    2.1104314    0.0009476   -0.3488061  
C    4.5548774   -2.1353085   -2.6566587  
C    4.9411038   -1.7265060   -3.8876294  
C    3.8945943   -0.8158998   -4.3259368  
C    2.9291045   -0.7910706   -3.2062058  
N    3.3108587   -1.5625084   -2.2248105  
C    1.7334684    0.0049315   -3.2500369  
C    1.5125968    0.7428951   -4.3617741  
O    0.4386411    1.5312663   -4.5382106  
C    2.4682948    0.7392876   -5.5084167  
O    2.2033062    1.4351603   -6.4886017  
C    3.6876297   -0.0855663   -5.4394041  
H    0.5619599    1.9243299   -5.4210731  
H    4.3545519   -0.0605239   -6.2907667  
H    5.0626410   -2.8178568   -1.9938791  
C    6.1504688   -2.1109172   -4.6296293  
C    7.1342329   -2.9547808   -4.2401652  
C    8.0760020   -2.9701312   -5.3489191  
C    7.4878190   -2.0547019   -6.3502252  
N    6.3590736   -1.5479551   -5.9341344  
C    8.1270122   -1.7935135   -7.6105021  
C    9.3006511   -2.4181331   -7.8590123  
O   10.0058802   -2.2670977   -8.9929794  
C    9.9198872   -3.3473757   -6.8684489  
O   10.9896044   -3.8812445   -7.1615527  
C    9.2447206   -3.5989450   -5.5828404  
H    7.2113457   -3.4994860   -3.3147324  
H    7.6745088   -1.1200812   -8.3236916  
H   10.7887086   -2.8350402   -8.8756181  
H    9.7259388   -4.2785428   -4.8923294  
C    0.0000000    0.0000000    1.4700000  
C    1.0662921    0.0000102    2.3034270  
C    0.4961870   -0.0000064    3.6418889  
C   -0.9663858    0.0000850    3.4240247  
N   -1.2632773    0.0000084    2.1528658  
C   -1.8985362    0.0000517    4.5177257  
C   -1.3925775   -0.0004564    5.7720543  
O   -2.1456383   -0.0005410    6.8851312  
C    0.0786232   -0.0009323    6.0245000  
O    0.4683759   -0.0012588    7.1921102  
C    1.0143166   -0.0008442    4.8859032  
H    2.1107198   -0.0000632    2.0421868  
H   -2.9622183    0.0003270    4.3293377  
H   -1.5042274   -0.0009692    7.6184419  
H    2.0724152   -0.0013148    5.1109744  
