58

C    1.7704313   -2.0997830   -5.2515180  
C    1.5928586   -1.6333168   -6.5144326  
C    0.4607458   -0.7379010   -6.4771946  
C   -0.0100423   -0.7207976   -5.0790332  
N    0.8257127   -1.5670939   -4.3875226  
C   -1.0641734    0.0073898   -4.6315339  
C   -1.7831599    0.8289562   -5.5910244  
O   -2.7459474    1.5206786   -5.2862925  
C   -1.3021140    0.8259151   -7.0770897  
O   -1.8998115    1.5134381   -7.8939922  
C   -0.1528624    0.0000284   -7.4390070  
H    0.1740159    0.0036595   -8.4699583  
H    2.5118285   -2.7880438   -4.8793388  
H    0.7607705   -1.7654785   -3.4059559  
C    2.8947776   -3.2454707   -7.9787849  
C    3.6098230   -3.2380366   -9.1332243  
C    3.5884611   -1.8835392   -9.6329414  
C    2.7967038   -1.0968173   -8.6680680  
N    2.4049835   -1.9809187   -7.6893901  
C    2.5434440    0.2314545   -8.7832105  
C    3.0867500    0.9329966   -9.9343810  
O    2.9142544    2.1293056  -10.1277458  
C    3.9280470    0.1196268  -10.9690083  
O    4.3903225    0.6994308  -11.9423472  
C    4.1331097   -1.3078887  -10.7366261  
H    4.0965242   -4.0848149   -9.5834503  
H    1.9603400    0.7897862   -8.0640686  
H    4.7169486   -1.8638211  -11.4575951  
H    2.6842455   -4.0684002   -7.3151949  
C    1.1319248    0.0015675   -0.8009270  
C    0.7969916    0.0034959   -2.1169404  
C   -0.6453336    0.0035703   -2.1842672  
C   -1.1266831    0.0015415   -0.7896027  
N    0.0000000    0.0000000    0.0000000  
C   -2.4346129    0.0013924   -0.4276297  
C   -3.4350110    0.0031352   -1.4820184  
O   -4.6384610    0.0030897   -1.2583919  
C   -2.9478958    0.0050460   -2.9661075  
O   -3.7809377    0.0062160   -3.8623775  
C   -1.5113821    0.0053068   -3.2312125  
H    1.4821240    0.0045436   -2.9459192  
H   -2.7664565    0.0000185    0.6013447  
H    2.1104318    0.0009428   -0.3488058  
C    2.5528530    2.1414826    2.8079335  
C    2.0663498    1.7338582    4.0032312  
C    0.9804344    0.8229586    3.6752840  
C    0.9495562    0.7966882    2.1971295  
N    1.8690446    1.5676019    1.6831036  
C    0.0000000    0.0000000    1.4700000  
C   -0.8785127   -0.7372425    2.1869543  
O   -1.8187535   -1.5261249    1.6395491  
C   -0.8723269   -0.7321790    3.6796354  
O   -1.7010379   -1.4274584    4.2670412  
C    0.1115397    0.0933559    4.4024240  
H    2.4028853    2.0163452    4.9860947  
H   -2.2861435   -1.9184361    2.3990168  
H    0.0832434    0.0693689    5.4835595  
H    3.3664920    2.8238276    2.6198634  
