62

C    3.3041272    0.0001178   -1.5420437  
C    2.5845373   -0.0004779   -0.3695863  
C    1.2040006   -0.0000007   -0.7283594  
C    1.1422373    0.0006039   -2.1454379  
N    2.4348636    0.0026111   -2.6077468  
C   -0.0655185    0.0008799   -2.8497924  
C   -1.2321770    0.0002325   -2.1101400  
O   -2.4392818    0.0001148   -2.7472522  
C   -1.1911211   -0.0000007   -0.6955266  
O   -2.4371525   -0.0002319   -0.1032866  
C    0.0000000    0.0000000    0.0000000  
H    3.0031536   -0.0000661    0.6222576  
H    2.7054625   -0.0071097   -3.5745267  
H   -3.1132991   -0.0000648   -2.0551789  
H   -2.3200280   -0.0004071    0.8516406  
H    4.3686620    0.0004072   -1.7024302  
C   -0.1387085    0.0017019   -4.3179685  
C    0.8715312    0.0021967   -5.2254326  
C    0.2617550    0.0029742   -6.5342516  
C   -1.1970056    0.0029205   -6.3133249  
N   -1.3734978    0.0017347   -4.9488692  
C   -2.1246679    0.0039286   -7.3038525  
C   -1.6550235    0.0049216   -8.6793407  
O   -2.4116513    0.0058065   -9.6415337  
C   -0.1143777    0.0047445   -8.9366650  
O    0.2928821    0.0052677  -10.0905283  
C    0.7871604    0.0038970   -7.7872819  
H    1.9238023    0.0018530   -5.0033081  
H    1.8524573    0.0039850   -7.9740081  
H   -2.2623846    0.0029668   -4.4831156  
C   -4.5958958    2.1230472   -4.3103177  
C   -5.8158042    1.6242578   -4.7046518  
C   -5.5722499    0.7506543   -5.8056049  
C   -4.1732865    0.7561110   -6.0396935  
N   -3.6107090    1.6010888   -5.1154982  
C   -3.5733100    0.0040243   -7.0541797  
C   -4.4006167   -0.7678632   -7.8465998  
O   -3.8671687   -1.5219509   -8.8514873  
C   -5.7988565   -0.7862362   -7.6288724  
O   -6.4865861   -1.6040629   -8.5015303  
C   -6.3914641   -0.0443263   -6.6284161  
H   -6.7646418    1.8617932   -4.2548995  
H   -2.6298480    1.7975826   -5.0301569  
H   -4.6074674   -1.9760791   -9.2745594  
H   -7.4232132   -1.5591454   -8.2863183  
H   -7.4652217   -0.0784336   -6.4857279  
H   -4.3507578    2.8109436   -3.5193276  
C    2.5528530    2.1414826    2.8079335  
C    2.0663498    1.7338582    4.0032312  
C    0.9804344    0.8229586    3.6752840  
C    0.9495562    0.7966882    2.1971295  
N    1.8690446    1.5676019    1.6831036  
C    0.0000000    0.0000000    1.4700000  
C   -0.8785127   -0.7372425    2.1869543  
O   -1.8187535   -1.5261249    1.6395491  
C   -0.8723269   -0.7321790    3.6796354  
O   -1.7010379   -1.4274584    4.2670412  
C    0.1115397    0.0933559    4.4024240  
H    2.4028853    2.0163452    4.9860947  
H   -2.2861435   -1.9184361    2.3990168  
H    0.0832434    0.0693689    5.4835595  
H    3.3664920    2.8238276    2.6198634  
