58

C   -1.0866114    0.3170665   -0.8009268  
C   -0.7657592    0.2209524   -2.1169401  
C    0.6182441   -0.1850494   -2.1842669  
C    1.0807072   -0.3185747   -0.7896028  
N    0.0000000    0.0000000    0.0000000  
C    2.3358102   -0.6865376   -0.4276289  
C    3.2952801   -0.9697635   -1.4820175  
O    4.4500976   -1.3084208   -1.2583911  
C    2.8273174   -0.8345021   -2.9661070  
O    3.6263574   -1.0700774   -3.8623772  
C    1.4487970   -0.4304577   -3.2312124  
H    2.6546264   -0.7786140    0.6013449  
H    1.1326366   -0.3393254   -4.2614847  
H   -2.0253898    0.5930589   -0.3488058  
C   -3.8485153    3.3017205   -2.8253992  
C   -2.8659598    2.5332718   -2.2886071  
C   -2.5558974    1.5088126   -3.2577199  
C   -3.4447074    1.7451227   -4.4113943  
N   -4.2032620    2.8458463   -4.0859841  
C   -3.4594689    0.9889574   -5.5382043  
C   -2.5386566   -0.1326187   -5.6201042  
O   -2.4756606   -0.8730690   -6.5927636  
C   -1.5884530   -0.4015769   -4.4099059  
O   -0.8091035   -1.3431628   -4.4672756  
C   -1.6647860    0.4831423   -3.2500366  
H   -2.4105080    2.6685310   -1.3237846  
H   -4.1193885    1.1794796   -6.3731399  
H   -4.9049276    3.2561579   -4.6745053  
C   -4.3086235    5.0546460   -1.0492585  
C   -4.5234888    4.4757178   -2.2535238  
C   -5.5753869    5.2700360   -2.8692093  
C   -5.8858924    6.3154872   -1.8706090  
N   -5.1464361    6.1943696   -0.8017196  
C   -6.8898216    7.3167654   -2.1043899  
C   -7.5531240    7.2757472   -3.2823890  
O   -8.5142296    8.1470517   -3.6333082  
C   -7.2622974    6.2334051   -4.3105446  
O   -7.9049975    6.2564866   -5.3601283  
C   -6.2279469    5.2172185   -4.0470912  
H   -7.0962037    8.0688274   -1.3569149  
H   -8.7948919    7.8621006   -4.5216682  
H   -6.0471499    4.4794579   -4.8173200  
H   -3.6033363    4.7616100   -0.2878958  
C    2.3971438    2.0127888    3.1728260  
C    1.9431056    1.6308205    1.9564670  
C    0.8496017    0.7127664    2.2356185  
C    0.7794028    0.6545384    3.7115134  
N    1.6840587    1.4146091    4.2663826  
C   -0.1885723   -0.1578550    4.3957118  
C   -1.0476298   -0.8789867    3.6398520  
O   -2.0015663   -1.6796266    4.1448486  
C   -1.0022026   -0.8410666    2.1483229  
O   -1.8147390   -1.5232959    1.5241687  
C    0.0000000    0.0000000    1.4700000  
H    2.3054237    1.9346118    0.9892483  
H   -0.2170646   -0.1815267    5.4753125  
H   -2.4487139   -2.0549881    3.3649027  
H    3.2048689    2.6911772    3.3971983  
