58

C   -3.2798026    0.0065823   -1.4499638  
C   -2.5571104    0.0050320   -2.5996551  
C   -1.1637419    0.0023886   -2.2210357  
C   -1.1336939    0.0024976   -0.7459472  
N   -2.4483453    0.0054937   -0.3402718  
C    0.0000000    0.0000000    0.0000000  
C    1.2757335   -0.0027695   -0.6964417  
O    2.3524537   -0.0050774   -0.1142319  
C    1.2676461   -0.0026833   -2.2584090  
O    2.3355706   -0.0046945   -2.8557305  
C   -0.0181570   -0.0001364   -2.9516296  
H   -0.0150808   -0.0002990   -4.0331634  
H   -4.3498468    0.0086456   -1.3200009  
H   -2.7563587    0.0047418    0.6148068  
C   -3.1006008    0.0061501   -3.9654941  
C   -4.3994731    0.0078065   -4.3456348  
C   -4.3646223    0.0082667   -5.8000372  
C   -2.9251353    0.0068038   -6.1383550  
N   -2.1793068    0.0054785   -5.0670354  
C   -2.4633998    0.0067174   -7.4991953  
C   -3.3972598    0.0076436   -8.4775821  
O   -3.1090880    0.0076906   -9.7902115  
C   -4.8575494    0.0087564   -8.1682050  
O   -5.6513757    0.0096880   -9.1089809  
C   -5.3059779    0.0088669   -6.7643401  
H   -5.2733087    0.0085260   -3.7167579  
H   -1.4054369    0.0058394   -7.7174227  
H   -3.9761709    0.0084291  -10.2344189  
C   -7.4372601    0.6962899   -5.5709385  
C   -6.7550056    0.0098251   -6.5169161  
C   -7.7704211   -0.7350949   -7.2452869  
C   -9.0436733   -0.3703038   -6.5877606  
N   -8.8546871    0.4685315   -5.6056056  
C  -10.3046795   -0.9059541   -7.0213841  
C  -10.2942277   -1.7665963   -8.0647053  
O  -11.3966674   -2.3423333   -8.5738156  
C   -9.0256486   -2.1539978   -8.7493873  
O   -9.0910280   -2.9425296   -9.6923420  
C   -7.7449861   -1.5909622   -8.2858996  
H  -11.2197322   -0.6221510   -6.5223411  
H  -11.0709156   -2.8995165   -9.3036000  
H   -6.8484968   -1.8966048   -8.8085074  
H   -7.0439679    1.3684333   -4.8249369  
C    0.8175213    0.6860729    2.3021913  
C    0.0000000    0.0000000    1.4700000  
C   -0.8887526   -0.7456559    2.3478473  
C   -0.4549825   -0.3816753    3.7138435  
N    0.5448156    0.4573574    3.6934124  
C   -1.0945674   -0.9182058    4.8835240  
C   -2.1210866   -1.7789155    4.6970523  
O   -2.8083856   -2.3554314    5.6976972  
C   -2.5824069   -2.1655116    3.3310774  
O   -3.5227682   -2.9541547    3.2362962  
C   -1.9100805   -1.6015804    2.1470656  
H   -0.7567140   -0.6349833    5.8697035  
H   -3.4728268   -2.9124471    5.2533954  
H   -2.2742832   -1.9066565    1.1752040  
H    1.6189533    1.3585343    2.0405121  
