62

C    3.3041273    0.0001175   -1.5420435  
C    2.5845372   -0.0004779   -0.3695860  
C    1.2040005   -0.0000008   -0.7283593  
C    1.1422374    0.0006037   -2.1454377  
N    2.4348641    0.0026111   -2.6077466  
C   -0.0655181    0.0008798   -2.8497922  
C   -1.2321766    0.0002323   -2.1101403  
O   -2.4392816    0.0001146   -2.7472523  
C   -1.1911209   -0.0000007   -0.6955264  
O   -2.4371522   -0.0002319   -0.1032863  
C    0.0000000    0.0000000    0.0000000  
H    3.0031538   -0.0000661    0.6222575  
H    2.7054628   -0.0071099   -3.5745264  
H   -3.1132990   -0.0000647   -2.0551788  
H   -2.3200277   -0.0004070    0.8516402  
H    4.3686620    0.0004070   -1.7024297  
C    2.3129716   -2.1206346   -5.9853336  
C    1.8203210   -1.6593260   -4.7866025  
C    0.7463512   -0.7716031   -5.0917860  
C    0.6289215   -0.7306575   -6.5047477  
N    1.5963344   -1.5595250   -7.0163214  
C   -0.3301681    0.0460723   -7.1617305  
C   -1.1865065    0.7948777   -6.3780513  
O   -2.1420034    1.5708500   -6.9678874  
C   -1.0848074    0.7675251   -4.9667660  
O   -2.0089556    1.5677381   -4.3272724  
C   -0.1387083    0.0017018   -4.3179686  
H    2.1903016   -1.9285749   -3.8121219  
H   -0.4247473    0.0817359   -8.2382921  
H   -2.6234320    2.0034608   -6.2507130  
H   -1.8718974    1.4918036   -3.3780344  
H    3.1197745   -2.8044120   -6.1865217  
C    1.8199029   -1.8242452   -8.4449015  
C    2.7466054   -2.6344785   -9.0073275  
C    2.5224739   -2.5225468  -10.4404139  
C    1.3920269   -1.5779057  -10.5681894  
N    0.9760147   -1.1651295   -9.4017687  
C    0.8590668   -1.1977422  -11.8474526  
C    1.4297426   -1.7364743  -12.9490125  
O    1.0341194   -1.4706353  -14.2055368  
C    2.5721692   -2.6923905  -12.8528567  
O    3.0423590   -3.1437018  -13.8971078  
C    3.1009240   -3.0667043  -11.5291378  
H    3.4904739   -3.2339823   -8.5110101  
H    0.0322409   -0.5055028  -11.9112734  
H    1.6271226   -1.9994608  -14.7693129  
H    3.9292658   -3.7619438  -11.5022715  
C    0.8175213    0.6860729    2.3021913  
C    0.0000000    0.0000000    1.4700000  
C   -0.8887526   -0.7456559    2.3478473  
C   -0.4549825   -0.3816753    3.7138435  
N    0.5448156    0.4573574    3.6934124  
C   -1.0945674   -0.9182058    4.8835240  
C   -2.1210866   -1.7789155    4.6970523  
O   -2.8083856   -2.3554314    5.6976972  
C   -2.5824069   -2.1655116    3.3310774  
O   -3.5227682   -2.9541547    3.2362962  
C   -1.9100805   -1.6015804    2.1470656  
H   -0.7567140   -0.6349833    5.8697035  
H   -3.4728268   -2.9124471    5.2533954  
H   -2.2742832   -1.9066565    1.1752040  
H    1.6189533    1.3585343    2.0405121  
