58

C    3.2798085    0.0005860   -1.4499651  
C    2.5571143    0.0005567   -2.5996556  
C    1.1637434    0.0001549   -2.2210364  
C    1.1336964   -0.0000200   -0.7459478  
N    2.4483514   -0.0001429   -0.3402727  
C    0.0000000    0.0000000    0.0000000  
C   -1.2757367   -0.0000187   -0.6964415  
O   -2.3524595   -0.0000640   -0.1142315  
C   -1.2676494   -0.0000873   -2.2584084  
O   -2.3355763   -0.0004100   -2.8557300  
C    0.0181558    0.0001762   -2.9516300  
H    0.0150789    0.0003323   -4.0331633  
H    4.3498548    0.0008612   -1.3200026  
H    2.7563628    0.0012823    0.6148057  
C    5.9736430   -2.1043578   -4.3829126  
C    5.8838288   -1.6403857   -5.6559948  
C    4.7509384   -0.7462248   -5.6992522  
C    4.1840556   -0.7271399   -4.3372427  
N    4.9705832   -1.5712077   -3.5877005  
C    3.1006054    0.0006265   -3.9654954  
C    2.4492220    0.8196160   -4.9742030  
O    1.4668594    1.5107652   -4.7384567  
C    3.0324358    0.8144458   -6.4232167  
O    2.4922726    1.4997919   -7.2809959  
C    4.2049271   -0.0107538   -6.7027918  
H    6.5365793   -1.8955555   -6.4717264  
H    4.6026943   -0.0086075   -7.7085253  
H    4.8377539   -1.7678910   -2.6126526  
C    9.3443256   -4.1504863   -6.2374625  
C    9.8492436   -4.8627112   -5.2033581  
C    8.9897653   -4.5443444   -4.0735619  
C    7.9915109   -3.5997200   -4.6192336  
N    8.1942341   -3.3651112   -5.8872444  
C    6.9479578   -3.0408736   -3.8045106  
C    6.9034406   -3.4092712   -2.5038816  
O    5.9845106   -2.9658676   -1.6292376  
C    7.8963524   -4.3609274   -1.9236772  
O    7.7955595   -4.6517093   -0.7318271  
C    8.9573659   -4.9204304   -2.7799083  
H   10.6998246   -5.5226923   -5.2068282  
H    6.2113251   -3.4027454   -0.7884963  
H    9.6570219   -5.6064898   -2.3216129  
H    9.7006672   -4.1127530   -7.2546001  
C    2.5528530    2.1414826    2.8079335  
C    2.0663498    1.7338582    4.0032312  
C    0.9804344    0.8229586    3.6752840  
C    0.9495562    0.7966882    2.1971295  
N    1.8690446    1.5676019    1.6831036  
C    0.0000000    0.0000000    1.4700000  
C   -0.8785127   -0.7372425    2.1869543  
O   -1.8187535   -1.5261249    1.6395491  
C   -0.8723269   -0.7321790    3.6796354  
O   -1.7010379   -1.4274584    4.2670412  
C    0.1115397    0.0933559    4.4024240  
H    2.4028853    2.0163452    4.9860947  
H   -2.2861435   -1.9184361    2.3990168  
H    0.0832434    0.0693689    5.4835595  
H    3.3664920    2.8238276    2.6198634  
