58

C   -3.2798079   -0.0008362   -1.4499656  
C   -2.5571137   -0.0007518   -2.5996561  
C   -1.1637432   -0.0002436   -2.2210362  
C   -1.1336960   -0.0000666   -0.7459473  
N   -2.4483509   -0.0000442   -0.3402726  
C    0.0000000    0.0000000    0.0000000  
C    1.2757371    0.0001161   -0.6964413  
O    2.3524599    0.0002437   -0.1142313  
C    1.2676493    0.0001842   -2.2584079  
O    2.3355775    0.0005887   -2.8557294  
C   -0.0181553   -0.0001772   -2.9516296  
H   -2.9547342   -0.0008331   -3.5989109  
H   -0.0150772   -0.0003329   -4.0331630  
H   -2.7563624   -0.0014930    0.6148055  
C   -4.7390838   -0.0013234   -1.2727290  
C   -5.6949928   -0.0019857   -2.2307568  
C   -6.9549536   -0.0022117   -1.5034336  
C   -6.5623376   -0.0017154   -0.0777982  
N   -5.2646564   -0.0011128    0.0636650  
C   -7.5356715   -0.0017160    0.9794186  
C   -8.8418531   -0.0018020    0.6283840  
O   -9.8560145   -0.0018208    1.5101538  
C   -9.2698387   -0.0019283   -0.8016470  
O  -10.4759229   -0.0021261   -1.0477790  
C   -8.2523633   -0.0019688   -1.8677941  
H   -5.5615839   -0.0021938   -3.2990633  
H  -10.6613098   -0.0018617    0.9618366  
H   -8.6033667   -0.0019457   -2.8910370  
C   -4.2793887    2.0928409    3.1021250  
C   -5.1425231    1.6301210    2.1613997  
C   -6.0546876    0.7336517    2.8315734  
C   -5.6493320    0.7118923    4.2500245  
N   -4.5673990    1.5561365    4.3478129  
C   -6.2648723   -0.0179283    5.2144815  
C   -7.4023961   -0.8368109    4.8297680  
O   -8.0235340   -1.5298059    5.6249077  
C   -7.8488768   -0.8292162    3.3329705  
O   -8.8050662   -1.5149205    2.9971552  
C   -7.1066604   -0.0014955    2.3854234  
H   -5.1403393    1.8872920    1.1171430  
H   -5.9516918   -0.0196237    6.2492885  
H   -3.4569949    2.7806044    2.9901422  
H   -4.0656804    1.7537004    5.1941546  
C    0.0000000    0.0000000    1.4700000  
C    1.0662921    0.0000102    2.3034270  
C    0.4961870   -0.0000064    3.6418889  
C   -0.9663858    0.0000850    3.4240247  
N   -1.2632773    0.0000084    2.1528658  
C   -1.8985362    0.0000517    4.5177257  
C   -1.3925775   -0.0004564    5.7720543  
O   -2.1456383   -0.0005410    6.8851312  
C    0.0786232   -0.0009323    6.0245000  
O    0.4683759   -0.0012588    7.1921102  
C    1.0143166   -0.0008442    4.8859032  
H    2.1107198   -0.0000632    2.0421868  
H   -2.9622183    0.0003270    4.3293377  
H   -1.5042274   -0.0009692    7.6184419  
H    2.0724152   -0.0013148    5.1109744  
