58

C    3.3321170    0.0004717   -1.3379335  
C    2.6974181    0.0000120   -2.5332313  
C    1.2800438   -0.0002115   -2.2052841  
C    1.2395035    0.0000644   -0.7271295  
N    2.4394058    0.0005461   -0.2131037  
C    0.0000000    0.0000000    0.0000000  
C   -1.1468696    0.0000635   -0.7169542  
O   -2.3742196    0.0000073   -0.1695489  
C   -1.1388776    0.0001609   -2.2096354  
O   -2.2206240    0.0000906   -2.7970413  
C    0.1454525    0.0001819   -2.9324240  
H    3.1367984   -0.0000647   -3.5160948  
H   -2.9844335    0.0001027   -0.9290165  
H    0.1083574    0.0003685   -4.0135595  
C    7.0021996   -0.0017276   -3.8667538  
C    5.7010056   -0.0020353   -3.4946356  
C    5.7268793   -0.0004762   -2.0400467  
C    7.1642513    0.0005580   -1.6928524  
N    7.9166786   -0.0000883   -2.7595493  
C    7.6175802    0.0022644   -0.3291892  
C    6.6776993    0.0032973    0.6434144  
O    6.9577656    0.0049114    1.9577970  
C    5.2193465    0.0026667    0.3250320  
O    4.4197292    0.0035537    1.2608909  
C    4.7795906    0.0008676   -1.0815724  
H    4.8310669   -0.0030887   -4.1288922  
H    6.0879572    0.0053406    2.3966440  
H    7.4070883   -0.0025637   -4.8662724  
C   10.0393233    0.6885080   -0.6506690  
C    9.0554116    0.0029721   -0.0233442  
C    9.7293089   -0.7412419    1.0295122  
C   11.1555772   -0.3771011    0.8889965  
N   11.3434149    0.4607751   -0.0941973  
C   12.1667148   -0.9123350    1.7586009  
C   11.7709479   -1.7719572    2.7249098  
O   12.6068307   -2.3472030    3.6060638  
C   10.3389742   -2.1586819    2.8924051  
O   10.0507999   -2.9462921    3.7934304  
C    9.3206251   -1.5960917    1.9877605  
H   13.2015404   -0.6290252    1.6329775  
H   12.0341390   -2.9036708    4.1642040  
H    8.2943267   -1.9012180    2.1421620  
H    9.9499593    1.3599243   -1.4898279  
C    2.3971438    2.0127888    3.1728260  
C    1.9431056    1.6308205    1.9564670  
C    0.8496017    0.7127664    2.2356185  
C    0.7794028    0.6545384    3.7115134  
N    1.6840587    1.4146091    4.2663826  
C   -0.1885723   -0.1578550    4.3957118  
C   -1.0476298   -0.8789867    3.6398520  
O   -2.0015663   -1.6796266    4.1448486  
C   -1.0022026   -0.8410666    2.1483229  
O   -1.8147390   -1.5232959    1.5241687  
C    0.0000000    0.0000000    1.4700000  
H    2.3054237    1.9346118    0.9892483  
H   -0.2170646   -0.1815267    5.4753125  
H   -2.4487139   -2.0549881    3.3649027  
H    3.2048689    2.6911772    3.3971983  
