58

C    2.0485059   -2.1404842   -4.9352596  
C    2.0920574   -1.7327542   -6.2250031  
C    0.9665703   -0.8221932   -6.3687264  
C    0.3351123   -0.7962139   -5.0318753  
N    0.9649966   -1.5669927   -4.1874018  
C   -0.8287665    0.0000939   -4.7555305  
C   -1.3384137    0.7372506   -5.7685425  
O   -2.4204375    1.5257896   -5.6524721  
C   -0.7235768    0.7324749   -7.1287312  
O   -1.2406169    1.4276566   -8.0031527  
C    0.4698623   -0.0926716   -7.3871122  
H    2.8005017   -2.0149675   -6.9849624  
H   -2.5373014    1.9181277   -6.5365348  
H    0.8852525   -0.0684849   -8.3856594  
C    4.0296360   -3.7165495   -4.7612916  
C    2.9566835   -3.0703663   -4.2486503  
C    2.8916705   -3.4953722   -2.8588148  
C    4.0320636   -4.4230317   -2.6990131  
N    4.7028469   -4.5565755   -3.8108608  
C    4.3176823   -5.0691334   -1.4475901  
C    3.5013954   -4.8004089   -0.4031780  
O    3.6500123   -5.3325646    0.8218790  
C    2.3425804   -3.8684672   -0.5327672  
O    1.6416467   -3.6704879    0.4595615  
C    2.0704279   -3.2181356   -1.8269565  
H    5.1576497   -5.7426150   -1.3593531  
H    2.9218044   -4.9538716    1.3467185  
H    1.2214981   -2.5497169   -1.8795443  
H    4.4157018   -3.6684787   -5.7670826  
C    1.0672569   -0.0000698   -0.8321910  
C    0.0000000    0.0000000    0.0000000  
C   -1.1601223   -0.0000736   -0.8778472  
C   -0.5938729   -0.0000768   -2.2438435  
N    0.7113367   -0.0001553   -2.2234123  
C   -1.4286985   -0.0001877   -3.4135239  
C   -2.7683113   -0.0006798   -3.2270524  
O   -3.6653902   -0.0008302   -4.2276970  
C   -3.3702024   -0.0010610   -1.8610774  
O   -4.5974910   -0.0013779   -1.7662963  
C   -2.4926825   -0.0008943   -0.6770658  
H   -4.5324245   -0.0012258   -3.7833954  
H   -2.9677772   -0.0012974    0.2947961  
H    2.1134391   -0.0000547   -0.5705119  
C    2.5528530    2.1414826    2.8079335  
C    2.0663498    1.7338582    4.0032312  
C    0.9804344    0.8229586    3.6752840  
C    0.9495562    0.7966882    2.1971295  
N    1.8690446    1.5676019    1.6831036  
C    0.0000000    0.0000000    1.4700000  
C   -0.8785127   -0.7372425    2.1869543  
O   -1.8187535   -1.5261249    1.6395491  
C   -0.8723269   -0.7321790    3.6796354  
O   -1.7010379   -1.4274584    4.2670412  
C    0.1115397    0.0933559    4.4024240  
H    2.4028853    2.0163452    4.9860947  
H   -2.2861435   -1.9184361    2.3990168  
H    0.0832434    0.0693689    5.4835595  
H    3.3664920    2.8238276    2.6198634  
