62

C    0.0000000    0.0000000    0.0000000  
C    1.0521660   -0.0011902   -0.8862349  
C    0.4917205   -0.0011958   -2.1979136  
C   -0.9187438    0.0003152   -2.0478680  
N   -1.1833175   -0.0009410   -0.7007909  
C   -1.7951715    0.0010353   -3.1372088  
C   -1.2375854    0.0005225   -4.4010421  
O   -2.0474238    0.0015362   -5.4997578  
C    0.1673565   -0.0013567   -4.5711966  
O    0.5673498   -0.0020687   -5.8915554  
C    1.0325757   -0.0023413   -3.4969896  
H    2.0953050   -0.0030651   -0.6200570  
H   -2.0989779    0.0102376   -0.2891817  
H   -1.4634912    0.0006500   -6.2693589  
H    1.5290687   -0.0033153   -5.9180049  
H    2.1042132   -0.0039613   -3.6584467  
C   -4.5382428    2.1273451   -0.3186938  
C   -3.4269656    1.6642221   -0.9843118  
C   -3.8900514    0.7769064   -2.0005905  
C   -5.3047977    0.7380671   -1.9061927  
N   -5.6653153    1.5677436   -0.8735837  
C   -6.0984779   -0.0377243   -2.7564913  
C   -5.4522268   -0.7877405   -3.7198258  
O   -6.1789727   -1.5628746   -4.5765752  
C   -4.0415012   -0.7624921   -3.8295247  
O   -3.5480042   -1.5637036   -4.8384179  
C   -3.2578666    0.0024045   -2.9908496  
H   -2.4078447    1.9320313   -0.7637129  
H   -6.6071045    1.7500077   -0.5772823  
H   -7.1771665   -0.0717833   -2.6896169  
H   -5.5421637   -1.9965791   -5.1593612  
H   -2.5888299   -1.4891816   -4.8443289  
C   -1.4847107    4.2971570    1.9728550  
C   -2.2870177    4.9584277    2.8464107  
C   -3.6465050    4.5844349    2.5353489  
C   -3.5699059    3.6443109    1.4008490  
N   -2.2321641    3.5127571    1.1075401  
C   -4.6443911    3.0614860    0.8113566  
C   -5.9644037    3.3816558    1.3286509  
O   -6.9940116    2.9083974    0.8657952  
C   -6.0691477    4.3750671    2.5294703  
O   -7.1751925    4.6524224    2.9733170  
C   -4.8394450    4.9387652    3.0807670  
H   -1.9634240    5.6315388    3.6202467  
H   -4.9205946    5.6256325    3.9122430  
H   -0.4103073    4.3170338    1.8882860  
H   -1.8565469    2.9342967    0.3786077  
C    1.0672568    0.0000697    2.3021913  
C    0.0000000    0.0000000    1.4700000  
C   -1.1601224    0.0000736    2.3478473  
C   -0.5938729    0.0000769    3.7138435  
N    0.7113367    0.0001554    3.6934124  
C   -1.4286986    0.0001879    4.8835240  
C   -2.7683114    0.0006799    4.6970523  
O   -3.6653903    0.0008304    5.6976972  
C   -3.3702025    0.0010610    3.3310774  
O   -4.5974910    0.0013779    3.2362962  
C   -2.4926826    0.0008943    2.1470656  
H   -0.9878360   -0.0000190    5.8697035  
H   -4.5324246    0.0012261    5.2533954  
H   -2.9677772    0.0012974    1.1752040  
H    2.1134392    0.0000545    2.0405121  
