62

C    3.3041269    0.0001179   -1.5420437  
C    2.5845370   -0.0004780   -0.3695855  
C    1.2040003   -0.0000006   -0.7283588  
C    1.1422370    0.0006040   -2.1454376  
N    2.4348635    0.0026113   -2.6077471  
C   -0.0655191    0.0008803   -2.8497918  
C   -1.2321772    0.0002328   -2.1101395  
O   -2.4392820    0.0001150   -2.7472512  
C   -1.1911212   -0.0000006   -0.6955261  
O   -2.4371525   -0.0002319   -0.1032859  
C    0.0000000    0.0000000    0.0000000  
H    3.0031534   -0.0000662    0.6222577  
H   -0.1193554    0.0014851   -3.9297468  
H   -3.1132993   -0.0000643   -2.0551784  
H   -2.3200279   -0.0004071    0.8516418  
H    4.3686619    0.0004073   -1.7024300  
C    5.6928642   -2.1325511   -4.8023243  
C    4.8437646   -1.6629831   -3.8271308  
C    3.9187201   -0.7861184   -4.4674439  
C    4.2553064   -0.7600043   -5.8451067  
N    5.3381020   -1.5868696   -6.0138210  
C    3.5511940    0.0032266   -6.7813186  
C    2.4877412    0.7535316   -6.3184051  
O    1.7657442    1.5166953   -7.1897918  
C    2.1367180    0.7408789   -4.9474789  
O    1.0544917    1.5406705   -4.6434017  
C    2.8310655   -0.0116212   -4.0232755  
H    4.8866006   -1.9198936   -2.7825466  
H    3.8027850    0.0275524   -7.8326568  
H    1.0801148    1.9528847   -6.6673782  
H    0.8837157    1.4751247   -3.6988683  
H    6.5243657   -2.8124287   -4.7293116  
C    6.9870312   -5.2837650   -7.7774620  
C    6.3993474   -4.3742183   -6.9580551  
C    6.4415047   -3.1029068   -7.6413011  
C    7.1066652   -3.3481188   -8.9352176  
N    7.4127166   -4.6893142   -8.9556636  
C    7.3388994   -2.3951935   -9.8731444  
C    6.9049584   -1.0373976   -9.5892060  
O    7.0684228   -0.1088820  -10.3698720  
C    6.1986395   -0.7548456   -8.2249907  
O    5.8291718    0.3844964   -7.9746827  
C    6.0041731   -1.8640850   -7.2946021  
H    5.9839057   -4.5713447   -5.9858598  
H    7.8283616   -2.5961507  -10.8159871  
H    7.1451559   -6.3382701   -7.6196455  
H    7.8724846   -5.1636841   -9.7110660  
C    2.5528530    2.1414826    2.8079335  
C    2.0663498    1.7338582    4.0032312  
C    0.9804344    0.8229586    3.6752840  
C    0.9495562    0.7966882    2.1971295  
N    1.8690446    1.5676019    1.6831036  
C    0.0000000    0.0000000    1.4700000  
C   -0.8785127   -0.7372425    2.1869543  
O   -1.8187535   -1.5261249    1.6395491  
C   -0.8723269   -0.7321790    3.6796354  
O   -1.7010379   -1.4274584    4.2670412  
C    0.1115397    0.0933559    4.4024240  
H    2.4028853    2.0163452    4.9860947  
H   -2.2861435   -1.9184361    2.3990168  
H    0.0832434    0.0693689    5.4835595  
H    3.3664920    2.8238276    2.6198634  
