58

C    3.2573671   -0.0002916   -1.5109383  
C    2.5379468   -0.0001707   -0.3591962  
C    1.1435044    0.0000332   -0.7338505  
C    1.1092610   -0.0000080   -2.2088480  
N    2.4227564    0.0001912   -2.6182614  
C   -0.0265531   -0.0002519   -2.9515665  
C   -1.3003034   -0.0002638   -2.2514983  
O   -2.3786783   -0.0004131   -2.8306430  
C   -1.2877727    0.0000312   -0.6895614  
O   -2.3539955    0.0003305   -0.0892044  
C    0.0000000    0.0000000    0.0000000  
H    2.9384088   -0.0000366    0.6389240  
H    4.3270398   -0.0004761   -1.6439444  
H    2.7280494   -0.0013402   -3.5742117  
C    2.4624173   -2.0918862   -5.9392956  
C    1.9141445   -1.6298144   -4.7860555  
C    0.8439987   -0.7345868   -5.1577961  
C    0.8135191   -0.7128498   -6.6327159  
N    1.8196257   -1.5559196   -7.0448718  
C   -0.0596539    0.0159613   -7.3730586  
C   -1.0343381    0.8337036   -6.6703333  
O   -1.8629430    1.5257398   -7.2472226  
C   -1.0200967    0.8261113   -5.1084287  
O   -1.8357401    1.5108614   -4.5058477  
C   -0.0307350   -0.0004643   -4.4215606  
H    2.2241310   -1.8866335   -3.7887767  
H   -0.0651886    0.0176600   -8.4542044  
H    3.2821088   -2.7786947   -6.0745348  
C    2.9553318   -5.3103565   -8.9427325  
C    3.1358523   -4.9354262  -10.2305284  
C    2.8516576   -3.5087569  -10.2491759  
C    2.5066019   -3.1791411   -8.8495773  
N    2.5657265   -4.2312199   -8.0791075  
C    2.1571059   -1.8449154   -8.4461175  
C    2.1529022   -0.8835954   -9.3975273  
O    1.8464641    0.4036183   -9.1625437  
C    2.4968597   -1.1847135  -10.8185060  
O    2.4723745   -0.2605413  -11.6312345  
C    2.8519174   -2.5611763  -11.2073621  
H    3.4261156   -5.5509565  -11.0647617  
H    1.9310667    0.8408062  -10.0290660  
H    3.0948405   -2.7380350  -12.2465637  
H    3.0687836   -6.2939062   -8.5152609  
C    0.8175213    0.6860729    2.3021913  
C    0.0000000    0.0000000    1.4700000  
C   -0.8887526   -0.7456559    2.3478473  
C   -0.4549825   -0.3816753    3.7138435  
N    0.5448156    0.4573574    3.6934124  
C   -1.0945674   -0.9182058    4.8835240  
C   -2.1210866   -1.7789155    4.6970523  
O   -2.8083856   -2.3554314    5.6976972  
C   -2.5824069   -2.1655116    3.3310774  
O   -3.5227682   -2.9541547    3.2362962  
C   -1.9100805   -1.6015804    2.1470656  
H   -0.7567140   -0.6349833    5.8697035  
H   -3.4728268   -2.9124471    5.2533954  
H   -2.2742832   -1.9066565    1.1752040  
H    1.6189533    1.3585343    2.0405121  
