58

C    0.8518586   -0.7041560   -5.2251428  
C    0.0139741    0.0003876   -4.4216236  
C   -0.8729887    0.7427330   -5.2859478  
C   -0.4803619    0.4105167   -6.6687950  
N    0.5709014   -0.4706743   -6.5627858  
C   -1.0793694    0.9102637   -7.7792669  
C   -2.1843879    1.8373745   -7.6005628  
O   -2.7886792    2.3420368   -8.5378192  
C   -2.6168949    2.2035199   -6.1449943  
O   -3.5457345    2.9832466   -5.9820777  
C   -1.8948201    1.6002141   -5.0276394  
H   -0.7759751    0.6535194   -8.7847240  
H   -2.2006129    1.8587644   -4.0229668  
H    1.6510908   -1.3741285   -4.9526464  
C    2.1507397   -4.5323285   -7.2723702  
C    1.5625795   -3.4327984   -6.7346181  
C    1.6869598   -2.3714311   -7.7056300  
C    2.4008885   -2.9468811   -8.8614648  
N    2.6537969   -4.2593548   -8.5353667  
C    2.7140554   -2.2620298   -9.9904507  
C    2.3219820   -0.8648656  -10.0725817  
O    2.5582666   -0.1629148  -11.0471252  
C    1.5652137   -0.2347517   -8.8601193  
O    1.2303302    0.9407493   -8.9176636  
C    1.2838548   -1.0739005   -7.6980018  
H    1.0951211   -3.3721207   -5.7679668  
H    3.2381558   -2.7030534  -10.8269486  
H    2.2591997   -5.5190229   -6.8521793  
H    3.1286871   -4.9180676   -9.1249632  
C    3.2798085    0.0005853   -1.4499648  
C    2.5571144    0.0005562   -2.5996554  
C    1.1637436    0.0001546   -2.2210360  
C    1.1336965   -0.0000201   -0.7459470  
N    2.4483513   -0.0001430   -0.3402717  
C    0.0000000    0.0000000    0.0000000  
C   -1.2757367   -0.0000188   -0.6964414  
O   -2.3524597   -0.0000640   -0.1142313  
C   -1.2676494   -0.0000875   -2.2584081  
O   -2.3355762   -0.0004102   -2.8557294  
C    0.0181562    0.0001757   -2.9516296  
H    2.9547357    0.0006072   -3.5989105  
H    4.3498550    0.0008609   -1.3200021  
H    2.7563627    0.0012824    0.6148063  
C    2.5528530    2.1414826    2.8079335  
C    2.0663498    1.7338582    4.0032312  
C    0.9804344    0.8229586    3.6752840  
C    0.9495562    0.7966882    2.1971295  
N    1.8690446    1.5676019    1.6831036  
C    0.0000000    0.0000000    1.4700000  
C   -0.8785127   -0.7372425    2.1869543  
O   -1.8187535   -1.5261249    1.6395491  
C   -0.8723269   -0.7321790    3.6796354  
O   -1.7010379   -1.4274584    4.2670412  
C    0.1115397    0.0933559    4.4024240  
H    2.4028853    2.0163452    4.9860947  
H   -2.2861435   -1.9184361    2.3990168  
H    0.0832434    0.0693689    5.4835595  
H    3.3664920    2.8238276    2.6198634  
