60

C    0.0000000    0.0000000    0.0000000  
C   -1.0521656   -0.0014290   -0.8862350  
C   -0.4917216   -0.0000283   -2.1979133  
C    0.9187425    0.0019722   -2.0478675  
N    1.1833124    0.0038866   -0.7007905  
C    1.7951693    0.0034336   -3.1372079  
C    1.2375846    0.0025582   -4.4010416  
O    2.0474231    0.0035605   -5.4997563  
C   -0.1673574    0.0009400   -4.5711965  
O   -0.5673515    0.0006565   -5.8915555  
C   -1.0325771   -0.0002291   -3.4969897  
H   -2.0953060   -0.0021508   -0.6200574  
H    2.0989970   -0.0050122   -0.2891811  
H    2.8710913    0.0051049   -3.0295496  
H    1.4634900    0.0029932   -6.2693585  
H   -1.5290702   -0.0004909   -5.9180056  
C   -2.4861707   -0.0016505   -3.7159938  
C   -3.4897085   -0.0027923   -2.8011243  
C   -4.7313121   -0.0039615   -3.5381819  
C   -4.3662435   -0.0034327   -4.9676979  
N   -2.9909960   -0.0016257   -5.0074624  
C   -5.2594874   -0.0046151   -5.9893716  
C   -6.6749000   -0.0063107   -5.6590099  
O   -7.5569788   -0.0074028   -6.5076780  
C   -7.0843378   -0.0066455   -4.1516394  
O   -8.2730161   -0.0077615   -3.8612867  
C   -6.0304272   -0.0055499   -3.1401440  
H   -3.3734557   -0.0026306   -1.7319662  
H   -6.3222905   -0.0059955   -2.0987316  
H   -2.4390555   -0.0024289   -5.8455606  
C   -3.8558729   -0.6890980   -7.9894893  
C   -4.8668228   -0.0042263   -7.4059574  
C   -5.4897058    0.7405953   -8.4893576  
C   -4.7063681    0.3774965   -9.6898266  
N   -3.7473284   -0.4603418   -9.4030186  
C   -5.0109269    0.9135689  -10.9878855  
C   -6.0510116    1.7729974  -11.0824484  
O   -6.4467521    2.3489531  -12.2303614  
C   -6.8609199    2.1586786   -9.8893611  
O   -7.7933960    2.9461682  -10.0492635  
C   -6.5286043    1.5952410   -8.5687440  
H   -4.4215758    0.6310127  -11.8479651  
H   -7.2064137    2.9050541  -11.9797254  
H   -7.1395492    1.8996230   -7.7295019  
H   -3.1526372   -1.3606670   -7.5231970  
C    3.1301144    0.0010313    3.1728260  
C    2.5367765    0.0002768    1.9564670  
C    1.1089900   -0.0001027    2.2356185  
C    1.0177864    0.0004150    3.7115134  
N    2.1993570    0.0011613    4.2663826  
C   -0.2459220    0.0002880    4.3957118  
C   -1.3675327    0.0000606    3.6398520  
O   -2.6129319   -0.0000866    4.1448486  
C   -1.3083589   -0.0000910    2.1483229  
O   -2.3693264   -0.0004206    1.5241687  
C    0.0000000    0.0000000    1.4700000  
H    3.0096015    0.0001008    0.9892483  
H   -0.2829642    0.0004689    5.4753125  
H   -3.1967446   -0.0002093    3.3649027  
H    4.1849273    0.0015113    3.3971983  
