62

C    3.3003550    0.0005273   -1.4738982  
C    2.5232819    0.0003493   -2.6090742  
C    1.1623207   -0.0001321   -2.1820100  
C    1.1711890    0.0000582   -0.7636142  
N    2.4852302   -0.0014919   -0.3662355  
C    0.0000000    0.0000000    0.0000000  
C   -1.2020381    0.0000519   -0.6806484  
O   -2.3759243    0.0003491    0.0157736  
C   -1.2314654   -0.0005114   -2.0955513  
O   -2.5054383   -0.0008038   -2.6250183  
C   -0.0764510   -0.0007275   -2.8495196  
H    2.8036268    0.0088181    0.5858668  
H   -3.0835632    0.0000344   -0.6418824  
H   -2.4360036   -0.0011532   -3.5845925  
H   -0.1304087   -0.0013425   -3.9319085  
H    4.3715553    0.0004892   -1.3667126  
C    4.1171240   -0.7271068   -4.4445138  
C    4.3278183   -0.5117044   -5.7686305  
C    3.3122725    0.4143180   -6.2113318  
C    2.4867575    0.7229871   -5.0280991  
N    3.0267444   -0.0008956   -3.9901695  
C    1.4208268    1.5629149   -5.0321548  
C    1.0625892    2.2056480   -6.2855883  
O    0.1193413    2.9784589   -6.3921134  
C    1.9228117    1.8931113   -7.5513461  
O    1.6305912    2.4280908   -8.6123196  
C    3.0482302    0.9707954   -7.4224273  
H    0.8286152    1.7757882   -4.1530190  
H    3.6389553    0.7598499   -8.3034889  
H    4.6665433   -1.3554379   -3.7624376  
C    5.8252212   -2.4155468   -6.5032422  
C    5.3911360   -1.1128172   -6.5865048  
C    6.1663167   -0.4798057   -7.6028663  
C    7.0645670   -1.4540826   -8.1086898  
N    6.8322063   -2.6174448   -7.4178826  
C    7.9832115   -1.1798138   -9.1263627  
C    7.9950892    0.1012380   -9.6430280  
O    8.8717778    0.4231090  -10.6384331  
C    7.1069170    1.0871952   -9.1512415  
O    7.2417386    2.3140035   -9.7677716  
C    6.2005724    0.8174021   -8.1471113  
H    7.3126974   -3.4863958   -7.5663210  
H    8.6705803   -1.9179107   -9.5161571  
H    8.7156583    1.3527575  -10.8497265  
H    6.6063027    2.9219446   -9.3776020  
H    5.5328829    1.5930600   -7.7907074  
H    5.4971826   -3.2162868   -5.8628008  
C    0.8175213    0.6860729    2.3021913  
C    0.0000000    0.0000000    1.4700000  
C   -0.8887526   -0.7456559    2.3478473  
C   -0.4549825   -0.3816753    3.7138435  
N    0.5448156    0.4573574    3.6934124  
C   -1.0945674   -0.9182058    4.8835240  
C   -2.1210866   -1.7789155    4.6970523  
O   -2.8083856   -2.3554314    5.6976972  
C   -2.5824069   -2.1655116    3.3310774  
O   -3.5227682   -2.9541547    3.2362962  
C   -1.9100805   -1.6015804    2.1470656  
H   -0.7567140   -0.6349833    5.8697035  
H   -3.4728268   -2.9124471    5.2533954  
H   -2.2742832   -1.9066565    1.1752040  
H    1.6189533    1.3585343    2.0405121  
