58

C    3.2573665   -0.0002916   -1.5109385  
C    2.5379467   -0.0001706   -0.3591970  
C    1.1435037    0.0000335   -0.7338494  
C    1.1092600   -0.0000076   -2.2088471  
N    2.4227553    0.0001917   -2.6182612  
C   -0.0265543   -0.0002514   -2.9515657  
C   -1.3003043   -0.0002632   -2.2514971  
O   -2.3786797   -0.0004124   -2.8306417  
C   -1.2877733    0.0000315   -0.6895596  
O   -2.3539957    0.0003308   -0.0892022  
C    0.0000000    0.0000000    0.0000000  
H    2.9384091   -0.0000368    0.6389234  
H   -0.0296302   -0.0004073   -4.0327226  
H    4.3270390   -0.0004759   -1.6439452  
C    5.7080832   -2.1452796   -4.5132735  
C    5.6084209   -1.7395357   -5.8005258  
C    4.4745312   -0.8282615   -5.8198397  
C    3.9954377   -0.7997391   -4.4211835  
N    4.7146912   -1.5697618   -3.6506453  
C    2.8699628   -0.0020514   -4.0185830  
C    2.2514663    0.7339952   -4.9699146  
O    1.1895385    1.5236039   -4.7356738  
C    2.7114645    0.7266546   -6.3899525  
O    2.1009828    1.4209416   -7.2026631  
C    3.8682925   -0.0998692   -6.7779368  
H    6.2279140   -2.0234834   -6.6339986  
H    0.9754891    1.9147014   -5.6019172  
H    4.1702522   -0.0775352   -7.8164704  
C    7.6954394   -3.7224783   -4.5577884  
C    6.6862760   -3.0748742   -3.9302709  
C    6.7755029   -3.4979872   -2.5412012  
C    7.9260825   -4.4262196   -2.5075036  
N    8.4694076   -4.5617041   -3.6866692  
C    8.3483180   -5.0708543   -1.2945528  
C    7.6529828   -4.8001783   -0.1664667  
O    7.9361991   -5.3308071    1.0353077  
C    6.4874459   -3.8676104   -0.1681025  
O    5.9009418   -3.6678287    0.8955328  
C    6.0738556   -3.2188123   -1.4250543  
H    9.1925277   -5.7447976   -1.2990305  
H    7.2708630   -4.9509141    1.6371063  
H    5.2246884   -2.5498789   -1.3841464  
H    7.9676568   -3.6760111   -5.6002430  
C    2.5528530    2.1414826    2.8079335  
C    2.0663498    1.7338582    4.0032312  
C    0.9804344    0.8229586    3.6752840  
C    0.9495562    0.7966882    2.1971295  
N    1.8690446    1.5676019    1.6831036  
C    0.0000000    0.0000000    1.4700000  
C   -0.8785127   -0.7372425    2.1869543  
O   -1.8187535   -1.5261249    1.6395491  
C   -0.8723269   -0.7321790    3.6796354  
O   -1.7010379   -1.4274584    4.2670412  
C    0.1115397    0.0933559    4.4024240  
H    2.4028853    2.0163452    4.9860947  
H   -2.2861435   -1.9184361    2.3990168  
H    0.0832434    0.0693689    5.4835595  
H    3.3664920    2.8238276    2.6198634  
