58

C    3.2798087    0.0005854   -1.4499645  
C    2.5571147    0.0005562   -2.5996549  
C    1.1637437    0.0001546   -2.2210357  
C    1.1336965   -0.0000200   -0.7459472  
N    2.4483515   -0.0001430   -0.3402720  
C    0.0000000    0.0000000    0.0000000  
C   -1.2757368   -0.0000187   -0.6964416  
O   -2.3524594   -0.0000640   -0.1142319  
C   -1.2676493   -0.0000873   -2.2584083  
O   -2.3355756   -0.0004101   -2.8557301  
C    0.0181562    0.0001759   -2.9516296  
H    0.0150796    0.0003316   -4.0331632  
H    4.3498548    0.0008608   -1.3200013  
H    2.7563625    0.0012821    0.6148066  
C    5.9816658   -2.0880614   -4.4453408  
C    5.0429440   -1.6267505   -3.5792758  
C    4.1873012   -0.7324976   -4.3229310  
C    4.7081987   -0.7105035   -5.7031380  
N    5.7962508   -1.5525088   -5.7108624  
C    4.1727811    0.0175973   -6.7155125  
C    3.0057190    0.8342492   -6.4264093  
O    2.4508367    1.5255865   -7.2704821  
C    2.4373473    0.8263672   -4.9715219  
O    1.4553092    1.5102017   -4.7161158  
C    3.1006060    0.0006259   -3.9654943  
H    4.9595396   -1.8834604   -2.5382391  
H    6.7934419   -2.7740415   -4.2655059  
H    6.3664583   -1.7493845   -6.5128298  
C    5.1942077   -1.0289905   -8.7892683  
C    4.7131615    0.0201854   -8.0825830  
C    4.8453604    1.1637655   -8.9721045  
C    5.4404561    0.6087427  -10.2067685  
N    5.6471255   -0.6761814  -10.1055381  
C    5.7332980    1.4326014  -11.3472012  
C    5.4444004    2.7509282  -11.2583902  
O    5.6648486    3.6357656  -12.2455606  
C    4.8431097    3.3409698  -10.0261312  
O    4.6065166    4.5489143  -10.0154486  
C    4.5520589    2.4750665   -8.8696601  
H    6.1683810    1.0003801  -12.2364690  
H    5.3588339    4.4884395  -11.8871551  
H    4.1164405    2.9409771   -7.9959357  
H    5.2697593   -2.0593313   -8.4799736  
C    2.5528530    2.1414826    2.8079335  
C    2.0663498    1.7338582    4.0032312  
C    0.9804344    0.8229586    3.6752840  
C    0.9495562    0.7966882    2.1971295  
N    1.8690446    1.5676019    1.6831036  
C    0.0000000    0.0000000    1.4700000  
C   -0.8785127   -0.7372425    2.1869543  
O   -1.8187535   -1.5261249    1.6395491  
C   -0.8723269   -0.7321790    3.6796354  
O   -1.7010379   -1.4274584    4.2670412  
C    0.1115397    0.0933559    4.4024240  
H    2.4028853    2.0163452    4.9860947  
H   -2.2861435   -1.9184361    2.3990168  
H    0.0832434    0.0693689    5.4835595  
H    3.3664920    2.8238276    2.6198634  
