60

C    3.3041278    0.0001175   -1.5420429  
C    2.5845373   -0.0004783   -0.3695847  
C    1.2040007   -0.0000008   -0.7283586  
C    1.1422379    0.0006034   -2.1454372  
N    2.4348646    0.0026105   -2.6077463  
C   -0.0655175    0.0008794   -2.8497923  
C   -1.2321767    0.0002322   -2.1101401  
O   -2.4392808    0.0001145   -2.7472525  
C   -1.1911209   -0.0000007   -0.6955266  
O   -2.4371524   -0.0002320   -0.1032865  
C    0.0000000    0.0000000    0.0000000  
H    3.0031536   -0.0000660    0.6222585  
H   -0.1193538    0.0014838   -3.9297471  
H   -3.1132982   -0.0000650   -2.0551795  
H   -2.3200279   -0.0004069    0.8516405  
H    4.3686628    0.0004068   -1.7024286  
C    3.8455963   -0.6998096   -4.5966065  
C    2.8310670   -0.0116225   -4.0232745  
C    2.2085849    0.7190726   -5.1164813  
C    2.9960462    0.3450195   -6.3108733  
N    3.9569639   -0.4865471   -6.0123364  
C    2.6930708    0.8655748   -7.6156009  
C    1.6505617    1.7206273   -7.7223466  
O    1.2559059    2.2824578   -8.8776099  
C    0.8364777    2.1170957   -6.5356536  
O   -0.0980375    2.8998203   -6.7066633  
C    1.1672386    1.5695162   -5.2079941  
H    0.4938958    2.8389453   -8.6350912  
H    0.5532541    1.8813545   -4.3737223  
H    4.5497461   -1.3639110   -4.1210901  
C    3.4991826    0.4705104   -8.7796486  
C    4.5653342   -0.3685600   -8.8375967  
C    4.9909872   -0.4138079  -10.2165840  
C    4.0789023    0.4740693  -10.9626169  
N    3.1979171    0.9787076  -10.0341262  
C    4.1504684    0.7028893  -12.2983660  
C    5.1954178    0.0295964  -13.0515534  
O    5.3426268    0.1703580  -14.2585399  
C    6.1723674   -0.9154421  -12.2819583  
O    7.0559084   -1.4879784  -12.9055123  
C    5.9954175   -1.0821372  -10.8415579  
H    5.0034670   -0.8957850   -8.0089306  
H    3.4715486    1.3580911  -12.8262745  
H    6.6761329   -1.7380506  -10.3160785  
H    2.4523443    1.6192545  -10.2362861  
C    0.0000000    0.0000000    1.4700000  
C    1.0662921    0.0000102    2.3034270  
C    0.4961870   -0.0000064    3.6418889  
C   -0.9663858    0.0000850    3.4240247  
N   -1.2632773    0.0000084    2.1528658  
C   -1.8985362    0.0000517    4.5177257  
C   -1.3925775   -0.0004564    5.7720543  
O   -2.1456383   -0.0005410    6.8851312  
C    0.0786232   -0.0009323    6.0245000  
O    0.4683759   -0.0012588    7.1921102  
C    1.0143166   -0.0008442    4.8859032  
H    2.1107198   -0.0000632    2.0421868  
H   -2.9622183    0.0003270    4.3293377  
H   -1.5042274   -0.0009692    7.6184419  
H    2.0724152   -0.0013148    5.1109744  
