58

C    1.0965514    0.0001358   -0.8010306  
C    0.0000000    0.0000000    0.0000000  
C   -1.1546563    0.0001469   -0.8669509  
C   -0.6372022    0.0003521   -2.2486280  
N    0.7342868    0.0007339   -2.1395012  
C   -1.4147750    0.0001354   -3.3608711  
C   -2.8576060   -0.0001044   -3.1854453  
O   -3.6427790   -0.0002492   -4.1244898  
C   -3.4275848   -0.0000724   -1.7311655  
O   -4.6406836    0.0000336   -1.5710048  
C   -2.4891872   -0.0001088   -0.6116739  
H   -1.0150456    0.0001618   -4.3654240  
H   -2.8919117   -0.0002917    0.3920867  
H    2.1388271    0.0000661   -0.5261648  
C    4.4892970   -2.1441339   -2.6751667  
C    4.8760700   -1.7381811   -3.9069086  
C    3.8307835   -0.8270017   -4.3469398  
C    2.8653297   -0.7987567   -3.2272588  
N    3.2460493   -1.5688475   -2.2444047  
C    1.6707635   -0.0012343   -3.2725975  
C    1.4508812    0.7349196   -4.3857298  
O    0.3779849    1.5243969   -4.5636594  
C    2.4065718    0.7278584   -5.5323626  
O    2.1425163    1.4222296   -6.5138631  
C    3.6247981   -0.0984999   -5.4617876  
H    0.5018301    1.9156225   -5.4472639  
H    4.2917519   -0.0759645   -6.3131955  
H    4.9961447   -2.8261076   -2.0110957  
C    6.8346722   -5.6150712   -4.2549001  
C    7.8841721   -5.3326867   -5.0613662  
C    7.7635599   -3.9119551   -5.3502843  
C    6.5524295   -3.4841438   -4.6176698  
N    6.0036856   -4.4781755   -3.9736424  
C    6.0849166   -2.1256196   -4.6481784  
C    6.7952592   -1.2348836   -5.3771070  
O    6.4742673    0.0648319   -5.4943440  
C    8.0219709   -1.6358048   -6.1271754  
O    8.6188505   -0.7722614   -6.7700198  
C    8.4811703   -3.0353934   -6.0801506  
H    8.6461316   -6.0053914   -5.4162796  
H    7.1630984    0.4391513   -6.0727469  
H    9.3742464   -3.2853807   -6.6370654  
H    6.5683980   -6.5651220   -3.8196132  
C    2.3971438    2.0127888    3.1728260  
C    1.9431056    1.6308205    1.9564670  
C    0.8496017    0.7127664    2.2356185  
C    0.7794028    0.6545384    3.7115134  
N    1.6840587    1.4146091    4.2663826  
C   -0.1885723   -0.1578550    4.3957118  
C   -1.0476298   -0.8789867    3.6398520  
O   -2.0015663   -1.6796266    4.1448486  
C   -1.0022026   -0.8410666    2.1483229  
O   -1.8147390   -1.5232959    1.5241687  
C    0.0000000    0.0000000    1.4700000  
H    2.3054237    1.9346118    0.9892483  
H   -0.2170646   -0.1815267    5.4753125  
H   -2.4487139   -2.0549881    3.3649027  
H    3.2048689    2.6911772    3.3971983  
