62

C   -3.2281081   -0.7046809   -1.5420433  
C   -2.5251954   -0.5506548   -0.3695858  
C   -1.1763091   -0.2567381   -0.7283589  
C   -1.1158374   -0.2441583   -2.1454375  
N   -2.3783057   -0.5217566   -2.6077468  
C    0.0641991    0.0131117   -2.8497917  
C    1.2038869    0.2625203   -2.1101398  
O    2.3832031    0.5200361   -2.7472515  
C    1.1637253    0.2539932   -0.6955266  
O    2.3810491    0.5199206   -0.1032859  
C    0.0000000    0.0000000    0.0000000  
H   -2.9340959   -0.6403224    0.6222582  
H    0.1169266    0.0240010   -3.9297469  
H    3.0416804    0.6639377   -2.0551777  
H    2.2665810    0.4951161    0.8516411  
H   -4.2680974   -0.9319632   -1.7024295  
C   -2.7684305   -0.5923366   -4.0232751  
C   -3.9912508   -0.8585030   -4.5384887  
C   -3.8109278   -0.8018641   -5.9809782  
C   -2.3792432   -0.4811025   -6.1653009  
N   -1.7629840   -0.3571738   -5.0212489  
C   -1.7938675   -0.3359382   -7.4696586  
C   -2.6019231   -0.5039728   -8.5411744  
O   -2.1899086   -0.3977738   -9.8159321  
C   -4.0508067   -0.8286000   -8.3878311  
O   -4.7267278   -0.9676464   -9.4071529  
C   -4.6276071   -0.9723067   -7.0392856  
H   -4.9030001   -1.0675550   -4.0054906  
H   -2.9869466   -0.5694439  -10.3492352  
H   -5.6811747   -1.2079954   -6.9708994  
C    0.6509437   -0.5345034   -6.8451936  
C   -0.3662115   -0.0162544   -7.6128395  
C    0.2332494    0.8743459   -8.5520297  
C    1.6303666    0.8582886   -8.3076275  
N    1.8495855   -0.0058495   -7.2636810  
C    2.5367524    1.6216161   -9.0496415  
C    2.0234372    2.4153860  -10.0569221  
O    2.8639765    3.1806941  -10.8124433  
C    0.6324208    2.4451940  -10.3157705  
O    0.2775392    3.2853631  -11.3509129  
C   -0.2623635    1.6926211   -9.5839778  
H    2.7474898   -0.2293844   -6.8740900  
H    3.6026981    1.6139216   -8.8682548  
H    2.3084397    3.6500748  -11.4483094  
H   -0.6775566    3.2468808  -11.4600681  
H   -1.3223743    1.7362026   -9.8052388  
H    0.6160999   -1.2383271   -6.0313277  
C    2.3971438    2.0127888    3.1728260  
C    1.9431056    1.6308205    1.9564670  
C    0.8496017    0.7127664    2.2356185  
C    0.7794028    0.6545384    3.7115134  
N    1.6840587    1.4146091    4.2663826  
C   -0.1885723   -0.1578550    4.3957118  
C   -1.0476298   -0.8789867    3.6398520  
O   -2.0015663   -1.6796266    4.1448486  
C   -1.0022026   -0.8410666    2.1483229  
O   -1.8147390   -1.5232959    1.5241687  
C    0.0000000    0.0000000    1.4700000  
H    2.3054237    1.9346118    0.9892483  
H   -0.2170646   -0.1815267    5.4753125  
H   -2.4487139   -2.0549881    3.3649027  
H    3.2048689    2.6911772    3.3971983  
