62

C    1.9074108   -2.1157071   -5.2171227  
C    1.7366759   -1.6153236   -6.4871358  
C    0.6103634   -0.7412451   -6.4423316  
C    0.1310749   -0.7480684   -5.1073554  
N    0.9400192   -1.5942807   -4.3903116  
C   -0.9736295    0.0040468   -4.6965766  
C   -1.6058296    0.7773685   -5.6507644  
O   -2.6892488    1.5315503   -5.3037408  
C   -1.1427630    0.7971182   -6.9879240  
O   -1.8787350    1.6162806   -7.8189838  
C   -0.0531714    0.0551810   -7.3939361  
H    2.3479773   -1.8521280   -7.3410840  
H    0.8493706   -1.7919003   -3.4101532  
H   -2.9736266    1.9867696   -6.1069657  
H   -1.5003145    1.5722389   -8.7024219  
H    0.2783215    0.0903622   -8.4251261  
C    1.1188643    0.0008216   -0.8003809  
C    0.0000000    0.0000000    0.0000000  
C   -1.1323859    0.0008902   -0.8673534  
C   -0.6382663    0.0019683   -2.1969282  
N    0.7324018    0.0038479   -2.1202245  
C   -1.4770913    0.0027324   -3.3154811  
C   -2.8395474    0.0020957   -3.0876860  
O   -3.7039199    0.0024440   -4.1440352  
C   -3.3517864    0.0013942   -1.7684335  
O   -4.7300497    0.0012384   -1.7073125  
C   -2.5248543    0.0009134   -0.6644818  
H    1.3576316   -0.0056173   -2.9057049  
H   -4.5940034    0.0021845   -3.7685132  
H   -4.9934602    0.0007278   -0.7819917  
H   -2.9462578    0.0005613    0.3339657  
H    2.1619898    0.0009348   -0.5342072  
C    3.9188185   -3.6550145   -5.3716976  
C    2.9102474   -3.0561023   -4.6966657  
C    3.0299980   -3.5452396   -3.3317832  
C    4.1957619   -4.4544302   -3.3626302  
N    4.7209589   -4.5227394   -4.5557318  
C    4.6489810   -5.1505290   -2.1899728  
C    3.9687693   -4.9472754   -1.0387409  
O    4.2809834   -5.5313232    0.1306396  
C    2.7885307   -4.0355799   -0.9754181  
O    2.2171582   -3.8981257    0.1061825  
C    2.3431353   -3.3330197   -2.1919529  
H    5.5037180   -5.8090786   -2.2414178  
H    3.6200096   -5.1926901    0.7611898  
H    1.4841455   -2.6813432   -2.1042928  
H    4.1723936   -3.5529010   -6.4148877  
C    2.5528530    2.1414826    2.8079335  
C    2.0663498    1.7338582    4.0032312  
C    0.9804344    0.8229586    3.6752840  
C    0.9495562    0.7966882    2.1971295  
N    1.8690446    1.5676019    1.6831036  
C    0.0000000    0.0000000    1.4700000  
C   -0.8785127   -0.7372425    2.1869543  
O   -1.8187535   -1.5261249    1.6395491  
C   -0.8723269   -0.7321790    3.6796354  
O   -1.7010379   -1.4274584    4.2670412  
C    0.1115397    0.0933559    4.4024240  
H    2.4028853    2.0163452    4.9860947  
H   -2.2861435   -1.9184361    2.3990168  
H    0.0832434    0.0693689    5.4835595  
H    3.3664920    2.8238276    2.6198634  
