58

C    1.1319248    0.0015696   -0.8009268  
C    0.7969912    0.0034971   -2.1169400  
C   -0.6453339    0.0035684   -2.1842669  
C   -1.1266833    0.0015392   -0.7896024  
N    0.0000000    0.0000000    0.0000000  
C   -2.4346126    0.0013873   -0.4276294  
C   -3.4350110    0.0031282   -1.4820179  
O   -4.6384612    0.0030804   -1.2583909  
C   -2.9478963    0.0050398   -2.9661070  
O   -3.7809381    0.0062078   -3.8623773  
C   -1.5113830    0.0053032   -3.2312123  
H   -2.7664562    0.0000130    0.6013450  
H   -1.1823533    0.0068362   -4.2614848  
H    2.1104315    0.0009468   -0.3488058  
C    4.5953966   -2.1014890   -2.7684681  
C    4.9007896   -1.6358374   -4.0070072  
C    3.8360934   -0.7408463   -4.3946268  
C    2.8785335   -0.7231045   -3.2723281  
N    3.3968165   -1.5686630   -2.3187544  
C    1.7334691    0.0049309   -3.2500364  
C    1.4233467    0.8256481   -4.4088217  
O    0.4162238    1.5171702   -4.4849913  
C    2.4231572    0.8219202   -5.6088924  
O    2.1725267    1.5087261   -6.5900873  
C    3.6246487   -0.0037263   -5.5162700  
H    4.3119091   -0.0005742   -6.3513669  
H    5.1449916   -2.7892376   -2.1465060  
H    2.9710736   -1.7664948   -1.4318201  
C    6.0920755   -1.9838117   -4.7948222  
C    7.1018183   -2.8181916   -4.4545164  
C    8.0077551   -2.7943907   -5.5925903  
C    7.3725574   -1.8690339   -6.5553065  
N    6.2493591   -1.3906842   -6.0931431  
C    7.9666273   -1.5709668   -7.8294031  
C    9.1420310   -2.1697980   -8.1280076  
O    9.8079835   -1.9832805   -9.2802922  
C    9.8081489   -3.1082012   -7.1772990  
O   10.8767486   -3.6172130   -7.5152674  
C    9.1787790   -3.3977993   -5.8765490  
H    7.2176309   -3.3803178   -3.5436501  
H    7.4803006   -0.8910569   -8.5135947  
H   10.6035864   -2.5397685   -9.1997314  
H    9.6931803   -4.0829073   -5.2160582  
C    0.0000000    0.0000000    1.4700000  
C    1.0662921    0.0000102    2.3034270  
C    0.4961870   -0.0000064    3.6418889  
C   -0.9663858    0.0000850    3.4240247  
N   -1.2632773    0.0000084    2.1528658  
C   -1.8985362    0.0000517    4.5177257  
C   -1.3925775   -0.0004564    5.7720543  
O   -2.1456383   -0.0005410    6.8851312  
C    0.0786232   -0.0009323    6.0245000  
O    0.4683759   -0.0012588    7.1921102  
C    1.0143166   -0.0008442    4.8859032  
H    2.1107198   -0.0000632    2.0421868  
H   -2.9622183    0.0003270    4.3293377  
H   -1.5042274   -0.0009692    7.6184419  
H    2.0724152   -0.0013148    5.1109744  
