60

C    3.3041274    0.0001176   -1.5420427  
C    2.5845368   -0.0004777   -0.3695848  
C    1.2040006   -0.0000008   -0.7283587  
C    1.1422377    0.0006035   -2.1454373  
N    2.4348642    0.0026109   -2.6077463  
C   -0.0655180    0.0008795   -2.8497918  
C   -1.2321768    0.0002321   -2.1101401  
O   -2.4392812    0.0001141   -2.7472520  
C   -1.1911212   -0.0000008   -0.6955262  
O   -2.4371527   -0.0002321   -0.1032859  
C    0.0000000    0.0000000    0.0000000  
H    3.0031534   -0.0000658    0.6222587  
H   -0.1193545    0.0014840   -3.9297470  
H   -3.1132985   -0.0000653   -2.0551791  
H   -2.3200283   -0.0004073    0.8516408  
H    4.3686625    0.0004072   -1.7024288  
C    3.8594214   -0.7175076   -4.5601987  
C    2.8310669   -0.0116223   -4.0232750  
C    2.2094032    0.7153299   -5.1048990  
C    2.9652793    0.3726183   -6.3247306  
N    3.9521602   -0.4993328   -5.9264121  
C    2.6888649    0.8568052   -7.5620112  
C    1.5725237    1.7770481   -7.7015487  
O    1.2438412    2.2678069   -8.7736608  
C    0.7583127    2.1540909   -6.4229929  
O   -0.1835058    2.9281698   -6.5280650  
C    1.1517641    1.5673730   -5.1443962  
H    0.5827559    1.8333879   -4.2639477  
H    4.5574579   -1.3785738   -4.0727301  
H    4.6334395   -0.9149355   -6.5348364  
C    3.9408451   -0.7355797   -9.0642963  
C    3.4596575    0.4975375   -8.7610551  
C    3.8500786    1.3780298   -9.8367596  
C    4.6035436    0.5508622  -10.7984635  
N    4.6230083   -0.7198600  -10.2714190  
C    5.1432698    1.0145935  -11.9540385  
C    4.9707484    2.4223829  -12.2716882  
O    5.4192959    2.9356501  -13.2883800  
C    4.1764914    3.3170345  -11.2674172  
O    4.0250595    4.5038325  -11.5240095  
C    3.6417040    2.7028750  -10.0547089  
H    5.6922839    0.3909297  -12.6458020  
H    3.0928052    3.3291471   -9.3646234  
H    3.8546915   -1.6544449   -8.5073815  
H    5.0630582   -1.5139946  -10.6989164  
C    0.0000000    0.0000000    1.4700000  
C    1.0662921    0.0000102    2.3034270  
C    0.4961870   -0.0000064    3.6418889  
C   -0.9663858    0.0000850    3.4240247  
N   -1.2632773    0.0000084    2.1528658  
C   -1.8985362    0.0000517    4.5177257  
C   -1.3925775   -0.0004564    5.7720543  
O   -2.1456383   -0.0005410    6.8851312  
C    0.0786232   -0.0009323    6.0245000  
O    0.4683759   -0.0012588    7.1921102  
C    1.0143166   -0.0008442    4.8859032  
H    2.1107198   -0.0000632    2.0421868  
H   -2.9622183    0.0003270    4.3293377  
H   -1.5042274   -0.0009692    7.6184419  
H    2.0724152   -0.0013148    5.1109744  
