58

C    3.2798084    0.0005860   -1.4499649  
C    2.5571141    0.0005569   -2.5996553  
C    1.1637434    0.0001550   -2.2210363  
C    1.1336962   -0.0000199   -0.7459473  
N    2.4483513   -0.0001427   -0.3402723  
C    0.0000000    0.0000000    0.0000000  
C   -1.2757367   -0.0000186   -0.6964414  
O   -2.3524598   -0.0000639   -0.1142315  
C   -1.2676494   -0.0000872   -2.2584084  
O   -2.3355762   -0.0004101   -2.8557298  
C    0.0181556    0.0001762   -2.9516295  
H    0.0150785    0.0003321   -4.0331632  
H    4.3498546    0.0008615   -1.3200022  
H    2.7563626    0.0012825    0.6148059  
C    5.9615633   -2.0068621   -4.6598587  
C    5.0892053   -1.6259401   -3.6978460  
C    4.1745232   -0.7102535   -4.3622063  
C    4.6548505   -0.6521083   -5.7595210  
N    5.7020996   -1.4101828   -5.9400261  
C    4.0067726    0.1582102   -6.7537375  
C    2.9276596    0.8774354   -6.3695954  
O    2.2263949    1.6760224   -7.1921086  
C    2.4184944    0.8395435   -4.9669281  
O    1.4313799    1.5199740   -4.6879304  
C    3.1006052    0.0006267   -3.9654951  
H    5.0688668   -1.9289886   -2.6649741  
H    1.5218038    2.0503734   -6.6330326  
H    6.7963915   -2.6834810   -4.5691842  
C    4.5138532    0.1904083   -8.1331335  
C    5.5746611   -0.4746836   -8.6468632  
C    5.6229121   -0.0799991  -10.0462902  
C    4.4869839    0.8524563  -10.2099298  
N    3.8332215    1.0149368   -9.0918142  
C    4.1882429    1.4738111  -11.4707854  
C    4.9881732    1.1774288  -12.5203599  
O    4.8260304    1.6844768  -13.7543182  
C    6.1425167    0.2404967  -12.3869077  
O    6.8281471    0.0165468  -13.3843937  
C    6.4283074   -0.3841540  -11.0830446  
H    6.2420535   -1.1496765   -8.1388791  
H    3.3516661    2.1511398  -11.5617487  
H    5.5444219    1.2898159  -14.2809196  
H    7.2736057   -1.0569513  -11.0278630  
C    0.8175213    0.6860729    2.3021913  
C    0.0000000    0.0000000    1.4700000  
C   -0.8887526   -0.7456559    2.3478473  
C   -0.4549825   -0.3816753    3.7138435  
N    0.5448156    0.4573574    3.6934124  
C   -1.0945674   -0.9182058    4.8835240  
C   -2.1210866   -1.7789155    4.6970523  
O   -2.8083856   -2.3554314    5.6976972  
C   -2.5824069   -2.1655116    3.3310774  
O   -3.5227682   -2.9541547    3.2362962  
C   -1.9100805   -1.6015804    2.1470656  
H   -0.7567140   -0.6349833    5.8697035  
H   -3.4728268   -2.9124471    5.2533954  
H   -2.2742832   -1.9066565    1.1752040  
H    1.6189533    1.3585343    2.0405121  
