62

C    3.3041273    0.0001176   -1.5420427  
C    2.5845372   -0.0004779   -0.3695849  
C    1.2040006   -0.0000007   -0.7283585  
C    1.1422374    0.0006037   -2.1454371  
N    2.4348641    0.0026108   -2.6077464  
C   -0.0655184    0.0008796   -2.8497917  
C   -1.2321767    0.0002321   -2.1101399  
O   -2.4392811    0.0001142   -2.7472521  
C   -1.1911212   -0.0000007   -0.6955257  
O   -2.4371525   -0.0002322   -0.1032865  
C    0.0000000    0.0000000    0.0000000  
H    3.0031534   -0.0000661    0.6222587  
H   -0.1193542    0.0014840   -3.9297469  
H   -3.1132987   -0.0000651   -2.0551789  
H   -2.3200283   -0.0004071    0.8516414  
H    4.3686625    0.0004071   -1.7024291  
C    5.6718698   -2.1292828   -4.7374656  
C    5.4024582   -1.6450690   -5.9966009  
C    4.2795483   -0.7737663   -5.8761622  
C    3.9039369   -0.7655395   -4.5083999  
N    4.7686528   -1.6005165   -3.8453030  
C    2.8310666   -0.0116221   -4.0232749  
C    2.1246916    0.7480616   -4.9354657  
O    1.0681527    1.5033226   -4.5155603  
C    2.4839121    0.7526865   -6.3043179  
O    1.6833250    1.5594237   -7.0863533  
C    3.5420403    0.0089614   -6.7836551  
H    4.7540933   -1.7863153   -2.8587695  
H    0.7213551    1.9477939   -5.3000611  
H    1.9931415    1.5056035   -7.9955952  
H    3.7934487    0.0324028   -7.8375638  
H    6.4359577   -2.8111063   -4.4054340  
C    7.0448528   -5.4551521   -7.3282561  
C    7.6075750   -5.1240802   -8.5137154  
C    7.3475746   -3.7010109   -8.6679013  
C    6.5968191   -3.3252677   -7.4506230  
N    6.4164057   -4.3493793   -6.6615501  
C    6.1466407   -1.9803299   -7.2191774  
C    6.4337638   -1.0528359   -8.1607981  
O    6.0753812    0.2395531   -8.0751623  
C    7.1900407   -1.4008532   -9.3997850  
O    7.4157747   -0.5057920  -10.2141135  
C    7.6409506   -2.7874519   -9.6141423  
H    8.1341535   -5.7662305   -9.1988677  
H    6.4195640    0.6468472   -8.8905168  
H    8.1859777   -2.9986987  -10.5243899  
H    7.0201564   -6.4223512   -6.8519270  
C    0.0000000    0.0000000    1.4700000  
C    1.0662921    0.0000102    2.3034270  
C    0.4961870   -0.0000064    3.6418889  
C   -0.9663858    0.0000850    3.4240247  
N   -1.2632773    0.0000084    2.1528658  
C   -1.8985362    0.0000517    4.5177257  
C   -1.3925775   -0.0004564    5.7720543  
O   -2.1456383   -0.0005410    6.8851312  
C    0.0786232   -0.0009323    6.0245000  
O    0.4683759   -0.0012588    7.1921102  
C    1.0143166   -0.0008442    4.8859032  
H    2.1107198   -0.0000632    2.0421868  
H   -2.9622183    0.0003270    4.3293377  
H   -1.5042274   -0.0009692    7.6184419  
H    2.0724152   -0.0013148    5.1109744  
