58

C   -4.5679453   -0.0009853   -2.0086716  
C   -5.6049850   -0.0015838   -1.1391154  
C   -6.7955413   -0.0015012   -1.9752219  
C   -6.2781447   -0.0006922   -3.3604599  
N   -4.9730328   -0.0004675   -3.3863795  
C   -7.1539706   -0.0004244   -4.4997649  
C   -8.4861182   -0.0013303   -4.2658519  
O   -9.4181568   -0.0012008   -5.2340177  
C   -9.0391351   -0.0025322   -2.8793701  
O  -10.2622847   -0.0031906   -2.7410774  
C   -8.1201331   -0.0027412   -1.7272587  
H   -5.5667627   -0.0021168   -0.0631904  
H  -10.2688707   -0.0020245   -4.7592145  
H   -8.5604242   -0.0037395   -0.7391429  
C   -3.1301143   -0.0007989   -1.7028264  
C   -2.5367761   -0.0012064   -0.4864674  
C   -1.1089895   -0.0007511   -0.7656185  
C   -1.0177866   -0.0001802   -2.2415135  
N   -2.1993565   -0.0001247   -2.7963827  
C    0.2459223    0.0004316   -2.9257115  
C    1.3675333    0.0008600   -2.1698516  
O    2.6129322    0.0014410   -2.6748481  
C    1.3083585    0.0006738   -0.6783228  
O    2.3693261    0.0009646   -0.0541684  
C    0.0000000    0.0000000    0.0000000  
H   -3.0096015   -0.0016589    0.4807518  
H    0.2829647    0.0006341   -4.0053123  
H    3.1967451    0.0016596   -1.8949019  
C   -6.6020613    0.0006656   -5.8622241  
C   -5.3008671    0.0015622   -6.2343420  
C   -5.3267410    0.0024168   -7.6889312  
C   -6.7641136    0.0017676   -8.0361264  
N   -7.5165399    0.0008212   -6.9694293  
C   -7.2174428    0.0023593   -9.3997903  
C   -6.2775621    0.0039346  -10.3723938  
O   -6.5576286    0.0046405  -11.6867774  
C   -4.8192104    0.0049963  -10.0540107  
O   -4.0195935    0.0062941  -10.9898691  
C   -4.3794535    0.0043174   -8.6474055  
H   -4.4309287    0.0017249   -5.6000840  
H   -8.2740385    0.0016562   -9.6245425  
H   -5.6878212    0.0057862  -12.1256241  
H   -3.3142596    0.0052416   -8.4587487  
C    0.8175213    0.6860729    2.3021913  
C    0.0000000    0.0000000    1.4700000  
C   -0.8887526   -0.7456559    2.3478473  
C   -0.4549825   -0.3816753    3.7138435  
N    0.5448156    0.4573574    3.6934124  
C   -1.0945674   -0.9182058    4.8835240  
C   -2.1210866   -1.7789155    4.6970523  
O   -2.8083856   -2.3554314    5.6976972  
C   -2.5824069   -2.1655116    3.3310774  
O   -3.5227682   -2.9541547    3.2362962  
C   -1.9100805   -1.6015804    2.1470656  
H   -0.7567140   -0.6349833    5.8697035  
H   -3.4728268   -2.9124471    5.2533954  
H   -2.2742832   -1.9066565    1.1752040  
H    1.6189533    1.3585343    2.0405121  
