58

C    2.4782025   -2.1081874   -5.8783636  
C    1.9212517   -1.6438938   -7.0265420  
C    0.8545987   -0.7486149   -6.6450156  
C    0.8356635   -0.7292244   -5.1698696  
N    1.8439056   -1.5742003   -4.7669393  
C   -0.0307351   -0.0004643   -4.4215601  
C   -1.0100800    0.8193484   -5.1153367  
O   -1.8333384    1.5114172   -4.5308818  
C   -1.0083719    0.8138724   -6.6773138  
O   -1.8284254    1.4999051   -7.2724038  
C   -0.0251094   -0.0124248   -7.3732162  
H    2.2230622   -1.8995536   -8.0266228  
H    3.2985199   -2.7956860   -5.7506350  
H    2.0835083   -1.7709322   -3.8125105  
C    3.2573670   -0.0002917   -1.5109381  
C    2.5379470   -0.0001710   -0.3591960  
C    1.1435042    0.0000333   -0.7338499  
C    1.1092609   -0.0000080   -2.2088472  
N    2.4227563    0.0001911   -2.6182609  
C   -0.0265532   -0.0002521   -2.9515660  
C   -1.3003035   -0.0002637   -2.2514976  
O   -2.3786783   -0.0004130   -2.8306422  
C   -1.2877725    0.0000313   -0.6895605  
O   -2.3539958    0.0003306   -0.0892030  
C    0.0000000    0.0000000    0.0000000  
H    2.9384091   -0.0000368    0.6389241  
H    4.3270395   -0.0004761   -1.6439445  
H    2.7280494   -0.0013403   -3.5742111  
C    0.5407670   -3.2886741  -10.1898580  
C    0.4240823   -2.6615764  -11.3834719  
C    0.1790814   -1.2664157  -11.0518079  
C    0.1795955   -1.2290971   -9.5735690  
N    0.3911975   -2.4115643   -9.0627017  
C   -0.0323589   -0.0097870   -8.8431957  
C   -0.2352057    1.1209141   -9.5571304  
O   -0.4459255    2.3285797   -9.0065113  
C   -0.2410817    1.1157379  -11.0498128  
O   -0.4321000    2.1820513  -11.6343706  
C   -0.0213562   -0.1477305  -11.7759624  
H    0.4955420   -3.0925147  -12.3674736  
H   -0.5556576    2.9308799   -9.7643679  
H   -0.0329529   -0.1092283  -12.8569858  
H    0.7265803   -4.3346751  -10.0045795  
C    2.5528530    2.1414826    2.8079335  
C    2.0663498    1.7338582    4.0032312  
C    0.9804344    0.8229586    3.6752840  
C    0.9495562    0.7966882    2.1971295  
N    1.8690446    1.5676019    1.6831036  
C    0.0000000    0.0000000    1.4700000  
C   -0.8785127   -0.7372425    2.1869543  
O   -1.8187535   -1.5261249    1.6395491  
C   -0.8723269   -0.7321790    3.6796354  
O   -1.7010379   -1.4274584    4.2670412  
C    0.1115397    0.0933559    4.4024240  
H    2.4028853    2.0163452    4.9860947  
H   -2.2861435   -1.9184361    2.3990168  
H    0.0832434    0.0693689    5.4835595  
H    3.3664920    2.8238276    2.6198634  
