58

C    3.2798087    0.0005862   -1.4499649  
C    2.5571146    0.0005569   -2.5996553  
C    1.1637436    0.0001550   -2.2210358  
C    1.1336964   -0.0000199   -0.7459473  
N    2.4483515   -0.0001427   -0.3402724  
C    0.0000000    0.0000000    0.0000000  
C   -1.2757367   -0.0000186   -0.6964419  
O   -2.3524602   -0.0000642   -0.1142313  
C   -1.2676494   -0.0000873   -2.2584084  
O   -2.3355762   -0.0004101   -2.8557298  
C    0.0181559    0.0001762   -2.9516298  
H    0.0150792    0.0003318   -4.0331633  
H    4.3498552    0.0008614   -1.3200022  
H    2.7563627    0.0012825    0.6148060  
C    5.9694211   -2.1380306   -4.2640189  
C    5.9589013   -1.7308758   -5.5546363  
C    4.8277515   -0.8211665   -5.6517371  
C    4.2525284   -0.7949997   -4.2897470  
N    4.9176049   -1.5649431   -3.4719145  
C    3.1006055    0.0006267   -3.9654946  
C    2.5486628    0.7369528   -4.9567151  
O    1.4718512    1.5247921   -4.7960058  
C    3.1062921    0.7319668   -6.3413394  
O    2.5527683    1.4263777   -7.1937629  
C    4.2885184   -0.0924693   -6.6488624  
H    6.6352655   -2.0129520   -6.3433318  
H    1.3179705    1.9166331   -5.6746031  
H    4.6619225   -0.0684616   -7.6638621  
C    7.9573945   -3.7123923   -4.1719858  
C    6.9060855   -3.0669575   -3.6154399  
C    6.8991414   -3.4916182   -2.2239965  
C    8.0459657   -4.4182797   -2.1114052  
N    8.6701624   -4.5515832   -3.2500879  
C    8.3837971   -5.0637837   -0.8727447  
C    7.6113107   -4.7954408    0.2045628  
O    7.8110682   -5.3271204    1.4225341  
C    6.4473297   -3.8645035    0.1229205  
O    5.7879964   -3.6668243    1.1434216  
C    6.1211756   -3.2147707   -1.1590294  
H    9.2272713   -5.7365392   -0.8192574  
H    7.1049383   -4.9488842    1.9770342  
H    5.2702301   -2.5470759   -1.1765244  
H    8.3013644   -3.6642879   -5.1929378  
C    2.5528530    2.1414826    2.8079335  
C    2.0663498    1.7338582    4.0032312  
C    0.9804344    0.8229586    3.6752840  
C    0.9495562    0.7966882    2.1971295  
N    1.8690446    1.5676019    1.6831036  
C    0.0000000    0.0000000    1.4700000  
C   -0.8785127   -0.7372425    2.1869543  
O   -1.8187535   -1.5261249    1.6395491  
C   -0.8723269   -0.7321790    3.6796354  
O   -1.7010379   -1.4274584    4.2670412  
C    0.1115397    0.0933559    4.4024240  
H    2.4028853    2.0163452    4.9860947  
H   -2.2861435   -1.9184361    2.3990168  
H    0.0832434    0.0693689    5.4835595  
H    3.3664920    2.8238276    2.6198634  
