58

C    3.2798085    0.0005855   -1.4499650  
C    2.5571144    0.0005564   -2.5996555  
C    1.1637431    0.0001547   -2.2210361  
C    1.1336962   -0.0000200   -0.7459473  
N    2.4483513   -0.0001429   -0.3402721  
C    0.0000000    0.0000000    0.0000000  
C   -1.2757373   -0.0000187   -0.6964413  
O   -2.3524598   -0.0000639   -0.1142312  
C   -1.2676499   -0.0000875   -2.2584083  
O   -2.3355768   -0.0004101   -2.8557296  
C    0.0181559    0.0001759   -2.9516295  
H    0.0150787    0.0003318   -4.0331632  
H    4.3498548    0.0008611   -1.3200022  
H    2.7563625    0.0012823    0.6148062  
C    5.9694204   -2.1380315   -4.2640192  
C    5.9589005   -1.7308767   -5.5546367  
C    4.8277508   -0.8211674   -5.6517374  
C    4.2525276   -0.7950004   -4.2897470  
N    4.9176042   -1.5649437   -3.4719146  
C    3.1006054    0.0006260   -3.9654952  
C    2.5486622    0.7369524   -4.9567147  
O    1.4718513    1.5247915   -4.7960058  
C    3.1062918    0.7319662   -6.3413396  
O    2.5527676    1.4263769   -7.1937628  
C    4.2885179   -0.0924701   -6.6488626  
H    1.3179703    1.9166331   -5.6746031  
H    4.6619214   -0.0684624   -7.6638622  
H    6.6565703   -2.8195051   -3.7882127  
C    7.4045915   -3.3391556   -6.8822436  
C    6.8824114   -2.1160252   -6.6315253  
C    7.4344822   -1.2535099   -7.6648615  
C    8.2923433   -2.1446683   -8.4751056  
N    8.2787366   -3.3684977   -8.0211826  
C    9.0275493   -1.6649674   -9.6128427  
C    8.9107468   -0.3546498   -9.9271026  
O    9.5397610    0.2279572  -10.9619698  
C    8.0526190    0.5699871   -9.1290894  
O    7.9934948    1.7505381   -9.4726360  
C    7.3084293    0.0538461   -7.9664602  
H    9.6470265   -2.3384858  -10.1868904  
H    9.2607973    1.1608029  -10.9283421  
H    6.6978135    0.7558090   -7.4145317  
H    7.2396372   -4.2558209   -6.3386551  
C    0.8175213    0.6860729    2.3021913  
C    0.0000000    0.0000000    1.4700000  
C   -0.8887526   -0.7456559    2.3478473  
C   -0.4549825   -0.3816753    3.7138435  
N    0.5448156    0.4573574    3.6934124  
C   -1.0945674   -0.9182058    4.8835240  
C   -2.1210866   -1.7789155    4.6970523  
O   -2.8083856   -2.3554314    5.6976972  
C   -2.5824069   -2.1655116    3.3310774  
O   -3.5227682   -2.9541547    3.2362962  
C   -1.9100805   -1.6015804    2.1470656  
H   -0.7567140   -0.6349833    5.8697035  
H   -3.4728268   -2.9124471    5.2533954  
H   -2.2742832   -1.9066565    1.1752040  
H    1.6189533    1.3585343    2.0405121  
