58

C   -3.1299754   -0.0296106   -1.7028246  
C   -2.5366575   -0.0245566   -0.4864660  
C   -1.1089365   -0.0109590   -0.7656178  
C   -1.0177426   -0.0095486   -2.2415129  
N   -2.1992638   -0.0203692   -2.7963813  
C    0.2459060    0.0026951   -2.9257115  
C    1.3674653    0.0134477   -2.1698527  
O    2.6128061    0.0254922   -2.6748496  
C    1.3082971    0.0127169   -0.6783233  
O    2.3692174    0.0227736   -0.0541694  
C    0.0000000    0.0000000    0.0000000  
H   -3.0094581   -0.0293612    0.4807532  
H    0.2829448    0.0032387   -4.0053121  
H    3.1965919    0.0310846   -1.8949037  
C   -5.6037233   -0.0534220   -1.1379114  
C   -4.5677438   -0.0430319   -2.0086694  
C   -5.1849904   -0.0478623   -3.3260464  
C   -6.6388395   -0.0618491   -3.0563946  
N   -6.8903946   -0.0650840   -1.7754971  
C   -7.6091958   -0.0701786   -4.1163123  
C   -7.1481224   -0.0643920   -5.3878119  
O   -7.9401985   -0.0709719   -6.4734512  
C   -5.6868827   -0.0499253   -5.6923299  
O   -5.3388559   -0.0454520   -6.8730405  
C   -4.7113911   -0.0416350   -4.5876707  
H   -7.3252633   -0.0641947   -7.2290709  
H   -3.6620029   -0.0310847   -4.8501649  
H   -5.5654307   -0.0538535   -0.0601796  
C   -9.8412764    2.0468029   -1.0302624  
C  -11.1079329    1.6271993   -1.2562997  
C  -11.0057173    0.7183853   -2.3877185  
C   -9.5665616    0.7063060   -2.7272345  
N   -8.8789598    1.4830709   -1.9348778  
C   -9.0465859   -0.0843217   -3.8087237  
C   -9.9243646   -0.8293274   -4.5185165  
O   -9.5782514   -1.6138692   -5.5532820  
C  -11.3826861   -0.8386189   -4.2001281  
O  -12.1237737   -1.5403661   -4.8882861  
C  -11.8915163   -0.0190690   -3.0859670  
H  -12.0012929    1.9005616   -0.7212703  
H  -10.4148941   -2.0139476   -5.8518085  
H  -12.9543584   -0.0534856   -2.8874403  
H   -9.4936952    2.7317587   -0.2732972  
C    0.8175213    0.6860729    2.3021913  
C    0.0000000    0.0000000    1.4700000  
C   -0.8887526   -0.7456559    2.3478473  
C   -0.4549825   -0.3816753    3.7138435  
N    0.5448156    0.4573574    3.6934124  
C   -1.0945674   -0.9182058    4.8835240  
C   -2.1210866   -1.7789155    4.6970523  
O   -2.8083856   -2.3554314    5.6976972  
C   -2.5824069   -2.1655116    3.3310774  
O   -3.5227682   -2.9541547    3.2362962  
C   -1.9100805   -1.6015804    2.1470656  
H   -0.7567140   -0.6349833    5.8697035  
H   -3.4728268   -2.9124471    5.2533954  
H   -2.2742832   -1.9066565    1.1752040  
H    1.6189533    1.3585343    2.0405121  
