58

C    1.7720689   -2.0859337   -5.3149821  
C    0.8968265   -1.6247193   -4.3847632  
C   -0.0065336   -0.7270830   -5.0652227  
C    0.4171841   -0.7029982   -6.4782597  
N    1.5002593   -1.5471470   -6.5634081  
C   -0.1857665    0.0284586   -7.4494065  
C   -1.3281510    0.8467741   -7.0781197  
O   -1.9388954    1.5411247   -7.8800978  
C   -1.7940048    0.8367264   -5.5872531  
O   -2.7544406    1.5219332   -5.2627294  
C   -1.0641734    0.0073898   -4.6315339  
H    0.8854565   -1.8836205   -3.3409939  
H    0.1408070    0.0318492   -8.4800605  
H    2.0129033   -1.7433395   -7.4034991  
C    2.8914949   -3.0241934   -5.1492892  
C    3.3198137   -3.6560144   -4.0261594  
C    4.4537459   -4.4656336   -4.4050406  
C    4.6523781   -4.2521457   -5.8513318  
N    3.6728370   -3.3684738   -6.2418621  
C    5.6272222   -4.8416371   -6.5888159  
C    6.5417090   -5.7469489   -5.9130497  
O    7.4525241   -6.3267524   -6.4897166  
C    6.3497721   -5.9880034   -4.3817564  
O    7.1134041   -6.7483368   -3.8020850  
C    5.2624622   -5.2951291   -3.6950737  
H    2.8903063   -3.5654109   -3.0443611  
H    5.7556724   -4.6713301   -7.6487235  
H    5.1364684   -5.4672944   -2.6347869  
H    3.5464080   -3.0248498   -7.1761991  
C    1.1319248    0.0015675   -0.8009270  
C    0.7969916    0.0034959   -2.1169404  
C   -0.6453336    0.0035703   -2.1842672  
C   -1.1266831    0.0015415   -0.7896027  
N    0.0000000    0.0000000    0.0000000  
C   -2.4346129    0.0013924   -0.4276297  
C   -3.4350110    0.0031352   -1.4820184  
O   -4.6384610    0.0030897   -1.2583919  
C   -2.9478958    0.0050460   -2.9661075  
O   -3.7809377    0.0062160   -3.8623775  
C   -1.5113821    0.0053068   -3.2312125  
H    1.4821240    0.0045436   -2.9459192  
H   -2.7664565    0.0000185    0.6013447  
H    2.1104318    0.0009428   -0.3488058  
C    2.3971438    2.0127888    3.1728260  
C    1.9431056    1.6308205    1.9564670  
C    0.8496017    0.7127664    2.2356185  
C    0.7794028    0.6545384    3.7115134  
N    1.6840587    1.4146091    4.2663826  
C   -0.1885723   -0.1578550    4.3957118  
C   -1.0476298   -0.8789867    3.6398520  
O   -2.0015663   -1.6796266    4.1448486  
C   -1.0022026   -0.8410666    2.1483229  
O   -1.8147390   -1.5232959    1.5241687  
C    0.0000000    0.0000000    1.4700000  
H    2.3054237    1.9346118    0.9892483  
H   -0.2170646   -0.1815267    5.4753125  
H   -2.4487139   -2.0549881    3.3649027  
H    3.2048689    2.6911772    3.3971983  
