62

C    0.0000000    0.0000000    0.0000000  
C    1.0521663   -0.0012127   -0.8862346  
C    0.4917212   -0.0012064   -2.1979133  
C   -0.9187434    0.0003342   -2.0478680  
N   -1.1833171   -0.0009162   -0.7007908  
C   -1.7951710    0.0010729   -3.1372085  
C   -1.2375850    0.0005485   -4.4010419  
O   -2.0474230    0.0015792   -5.4997574  
C    0.1673570   -0.0013603   -4.5711963  
O    0.5673506   -0.0020810   -5.8915549  
C    1.0325760   -0.0023636   -3.4969895  
H    2.0953057   -0.0031095   -0.6200566  
H   -2.0989776    0.0102817   -0.2891816  
H   -1.4634906    0.0006803   -6.2693587  
H    1.5290693   -0.0033481   -5.9180048  
H    2.1042133   -0.0040058   -3.6584461  
C   -4.5381977    2.1274406   -0.3186939  
C   -3.4269304    1.6642943   -0.9843118  
C   -3.8900347    0.7769882   -2.0005906  
C   -5.3047819    0.7381790   -1.9061929  
N   -5.6652817    1.5678631   -0.8735840  
C   -6.0984783   -0.0375960   -2.7564915  
C   -5.4522426   -0.7876255   -3.7198257  
O   -6.1790053   -1.5627449   -4.5765754  
C   -4.0415168   -0.7624072   -3.8295248  
O   -3.5480366   -1.5636289   -4.8384176  
C   -3.2578662    0.0024729   -2.9908496  
H   -2.4078036    1.9320821   -0.7637130  
H   -6.6070670    1.7501471   -0.5772828  
H   -5.5422054   -1.9964625   -5.1593607  
H   -2.5888607   -1.4891272   -4.8443287  
H   -4.6159210    2.8115573    0.5088947  
C   -9.1378476    3.0744352   -1.9989121  
C   -7.9743862    2.4026336   -2.1966885  
C   -8.3200413    1.0184332   -2.4188286  
C   -9.7907960    0.9383101   -2.3336748  
N  -10.2256609    2.2180945   -2.0768988  
C  -10.5088668   -0.2028631   -2.4879563  
C   -9.7848364   -1.4344151   -2.7555261  
O  -10.3408768   -2.5139261   -2.9097181  
C   -8.2268974   -1.3729687   -2.8496302  
O   -7.6064952   -2.4034712   -3.0741899  
C   -7.5649347   -0.0838674   -2.6655772  
H   -6.9867284    2.8281523   -2.1877797  
H  -11.5873665   -0.2398947   -2.4217855  
H   -9.2920869    4.1230232   -1.8025364  
H  -11.1855569    2.4887323   -1.9655302  
C    0.0000000    0.0000000    1.4700000  
C    1.0662921    0.0000102    2.3034270  
C    0.4961870   -0.0000064    3.6418889  
C   -0.9663858    0.0000850    3.4240247  
N   -1.2632773    0.0000084    2.1528658  
C   -1.8985362    0.0000517    4.5177257  
C   -1.3925775   -0.0004564    5.7720543  
O   -2.1456383   -0.0005410    6.8851312  
C    0.0786232   -0.0009323    6.0245000  
O    0.4683759   -0.0012588    7.1921102  
C    1.0143166   -0.0008442    4.8859032  
H    2.1107198   -0.0000632    2.0421868  
H   -2.9622183    0.0003270    4.3293377  
H   -1.5042274   -0.0009692    7.6184419  
H    2.0724152   -0.0013148    5.1109744  
