64

C    3.4043356   -0.7242389   -2.9869840  
C    2.4861704   -0.0045255   -3.7159919  
C    3.2157599    0.7227067   -4.7026186  
C    4.5865270    0.4039559   -4.5256371  
N    4.6659996   -0.4754876   -3.4745040  
C    5.5977279    0.9420306   -5.3273462  
C    5.2182041    1.8176016   -6.3261032  
O    6.1649635    2.3718710   -7.1381656  
C    3.8556305    2.1482716   -6.5181119  
O    3.6391791    3.0341224   -7.5533706  
C    2.8575500    1.6180360   -5.7274084  
H    6.6442992    0.7032256   -5.1974919  
H    5.6928639    2.9443333   -7.7567722  
H    2.6943220    3.2044170   -7.6154168  
H    1.8225160    1.8901111   -5.8981660  
H    3.2592089   -1.3942253   -2.1569147  
C    6.0368904   -2.3762211   -2.5320042  
C    7.3279843   -2.5849349   -2.1054099  
C    8.0275586   -1.3538756   -2.2777148  
C    7.1040099   -0.4223315   -2.8173520  
N    5.9055105   -1.0762178   -2.9610487  
C    7.4498225    0.8990209   -3.1160657  
C    8.7515882    1.2871387   -2.8651694  
O    9.1426888    2.5660518   -3.1379982  
C    9.6877135    0.3721338   -2.3273472  
O   10.9433800    0.9102522   -2.1348040  
C    9.3473293   -0.9316415   -2.0326688  
H    7.7179252   -3.5109106   -1.7187479  
H    6.7506505    1.6138456   -3.5276319  
H   10.0752781    2.6245696   -2.8928100  
H   11.5141635    0.2273893   -1.7694159  
H   10.0860484   -1.6097391   -1.6216244  
H    5.1997149   -3.0522196   -2.5655094  
C    0.0000000    0.0000000    0.0000000  
C    1.0521669   -0.0011848   -0.8862341  
C    0.4917221   -0.0011931   -2.1979130  
C   -0.9187427    0.0003100   -2.0478683  
N   -1.1833170   -0.0009472   -0.7007915  
C   -1.7951698    0.0010259   -3.1372090  
C   -1.2375835    0.0005161   -4.4010425  
O   -2.0474208    0.0015256   -5.4997580  
C    0.1673584   -0.0013557   -4.5711962  
O    0.5673529   -0.0020659   -5.8915551  
C    1.0325773   -0.0023359   -3.4969890  
H    2.0953059   -0.0030542   -0.6200560  
H   -2.0989777    0.0102265   -0.2891825  
H   -2.8710930    0.0020274   -3.0295514  
H   -1.4634881    0.0006427   -6.2693593  
H    1.5290715   -0.0033076   -5.9180042  
C    0.0000000    0.0000000    1.4700000  
C    1.0662921    0.0000102    2.3034270  
C    0.4961870   -0.0000064    3.6418889  
C   -0.9663858    0.0000850    3.4240247  
N   -1.2632773    0.0000084    2.1528658  
C   -1.8985362    0.0000517    4.5177257  
C   -1.3925775   -0.0004564    5.7720543  
O   -2.1456383   -0.0005410    6.8851312  
C    0.0786232   -0.0009323    6.0245000  
O    0.4683759   -0.0012588    7.1921102  
C    1.0143166   -0.0008442    4.8859032  
H    2.1107198   -0.0000632    2.0421868  
H   -2.9622183    0.0003270    4.3293377  
H   -1.5042274   -0.0009692    7.6184419  
H    2.0724152   -0.0013148    5.1109744  
