60

C    1.1243411    0.0099384   -0.7919005  
C    0.7474078    0.0234185   -2.1148545  
C   -0.6787380    0.0234814   -2.1414695  
C   -1.1201744    0.0099129   -0.7935545  
N    0.0000000    0.0000000    0.0000000  
C   -2.4730816    0.0064892   -0.4408227  
C   -3.3971956    0.0172606   -1.4675042  
O   -4.7313519    0.0148525   -1.1793452  
C   -2.9763646    0.0304928   -2.8186314  
O   -4.0166473    0.0397038   -3.7247606  
C   -1.6418560    0.0336045   -3.1673474  
H    1.4178719    0.0310291   -2.9571215  
H   -2.8160170   -0.0039761    0.5845978  
H   -5.1938815    0.0233353   -2.0274368  
H   -3.6464666    0.0484034   -4.6127327  
H    2.1062466    0.0051810   -0.3505416  
C    1.5730300   -2.0887848   -5.2038814  
C    1.4267762   -1.6687573   -6.4820699  
C    0.2927987   -0.7579470   -6.4501483  
C   -0.1353540   -0.7452959   -5.0348361  
N    0.6114327   -1.5234734   -4.2994866  
C   -1.2456325    0.0472319   -4.5828760  
C   -1.8982682    0.7935083   -5.5029158  
O   -2.9511347    1.5798712   -5.2215853  
C   -1.4899754    0.8022658   -6.9386666  
O   -2.1295772    1.5052428   -7.7209412  
C   -0.3478308   -0.0192423   -7.3774776  
H    2.0157328   -1.9430474   -7.3405396  
H   -3.1964582    1.9804925   -6.0750903  
H   -0.0836671    0.0148443   -8.4259461  
C    4.8485893   -4.2869367   -7.1331759  
C    5.3450867   -4.9437798   -6.0533040  
C    4.5392184   -4.5583130   -4.9189205  
C    3.5252423   -3.6163259   -5.4300988  
N    3.7675397   -3.4941217   -6.7788937  
C    2.5718208   -3.0242898   -4.6670879  
C    2.5425023   -3.3354571   -3.2476335  
O    1.7228148   -2.8534692   -2.4768540  
C    3.6070080   -4.3302739   -2.6846311  
O    3.5923893   -4.5996361   -1.4911106  
C    4.5843474   -4.9047147   -3.6058683  
H    6.1806260   -5.6208947   -6.0515683  
H    5.3178862   -5.5928011   -3.2081474  
H    5.1816188   -4.3151838   -8.1579604  
H    3.2390591   -2.9192790   -7.4092199  
C    0.8175213    0.6860729    2.3021913  
C    0.0000000    0.0000000    1.4700000  
C   -0.8887526   -0.7456559    2.3478473  
C   -0.4549825   -0.3816753    3.7138435  
N    0.5448156    0.4573574    3.6934124  
C   -1.0945674   -0.9182058    4.8835240  
C   -2.1210866   -1.7789155    4.6970523  
O   -2.8083856   -2.3554314    5.6976972  
C   -2.5824069   -2.1655116    3.3310774  
O   -3.5227682   -2.9541547    3.2362962  
C   -1.9100805   -1.6015804    2.1470656  
H   -0.7567140   -0.6349833    5.8697035  
H   -3.4728268   -2.9124471    5.2533954  
H   -2.2742832   -1.9066565    1.1752040  
H    1.6189533    1.3585343    2.0405121  
