60

C    3.2573676   -0.0002917   -1.5109371  
C    2.5379470   -0.0001708   -0.3591953  
C    1.1435045    0.0000333   -0.7338497  
C    1.1092616   -0.0000080   -2.2088472  
N    2.4227572    0.0001912   -2.6182604  
C   -0.0265522   -0.0002520   -2.9515663  
C   -1.3003029   -0.0002638   -2.2514982  
O   -2.3786772   -0.0004130   -2.8306437  
C   -1.2877723    0.0000313   -0.6895611  
O   -2.3539953    0.0003306   -0.0892043  
C    0.0000000    0.0000000    0.0000000  
H    2.9384088   -0.0000367    0.6389246  
H    2.7280505   -0.0013403   -3.5742105  
C    2.4624190   -2.0918862   -5.9392945  
C    1.9141458   -1.6298145   -4.7860550  
C    0.8440001   -0.7345871   -5.1577954  
C    0.8135211   -0.7128501   -6.6327153  
N    1.8196277   -1.5559199   -7.0448709  
C   -0.0596518    0.0159612   -7.3730585  
C   -1.0343364    0.8337034   -6.6703332  
O   -1.8629407    1.5257393   -7.2472228  
C   -1.0200955    0.8261114   -5.1084288  
O   -1.8357392    1.5108613   -4.5058478  
C   -0.0307336   -0.0004643   -4.4215606  
H    2.2241323   -1.8866337   -3.7887754  
H   -0.0651858    0.0176597   -8.4542039  
H    3.2821102   -2.7786945   -6.0745342  
H    2.0500139   -1.7532072   -8.0014520  
C    6.4550012   -0.0009257    1.4492383  
C    7.5628467   -0.0014711    0.6718990  
C    7.0625124   -0.0013725   -0.6941778  
C    5.5906516   -0.0008358   -0.5520151  
N    5.2286132   -0.0004913    0.7021450  
C    4.7161340   -0.0005432   -1.6923240  
C    5.2860942   -0.0003873   -2.9188966  
O    4.5914265   -0.0001196   -4.0693212  
C    6.7683539   -0.0005470   -3.0951497  
O    7.2177917   -0.0005148   -4.2411108  
C    7.6440956   -0.0008907   -1.9098222  
H    8.5924152   -0.0017984    0.9866435  
H    5.2697944   -0.0000398   -4.7685847  
H    8.7123921   -0.0008821   -2.0800374  
H    6.3993969   -0.0008024    2.5262161  
C    0.8676693    0.7151171    2.2619005  
C    0.5875920    0.4624972    3.5848544  
C   -0.5048400   -0.4542819    3.6114698  
C   -0.8517165   -0.7276451    2.2635546  
N    0.0000000    0.0000000    1.4700000  
C   -1.8902865   -1.5946756    1.9108239  
C   -2.5912627   -2.1969500    2.9375057  
O   -3.6148162   -3.0527051    2.6493466  
C   -2.2603868   -1.9365747    4.2886322  
O   -3.0513550   -2.6123276    5.1947621  
C   -1.2361111   -1.0811317    4.6373480  
H    1.1060808    0.8876438    4.4271209  
H   -2.1597133   -1.8070987    0.8854031  
H   -3.9636755   -3.3565188    3.4974381  
H   -2.7621927   -2.3810384    6.0827341  
H   -1.0058879   -0.9010589    5.6809233  
H    1.6167816    1.3499334    1.8205408  
