62

C    3.3041272    0.0001177   -1.5420431  
C    2.5845370   -0.0004780   -0.3695856  
C    1.2040004   -0.0000008   -0.7283590  
C    1.1422372    0.0006037   -2.1454372  
N    2.4348639    0.0026111   -2.6077465  
C   -0.0655183    0.0008798   -2.8497916  
C   -1.2321770    0.0002324   -2.1101397  
O   -2.4392813    0.0001147   -2.7472520  
C   -1.1911211   -0.0000007   -0.6955262  
O   -2.4371526   -0.0002320   -0.1032861  
C    0.0000000    0.0000000    0.0000000  
H    3.0031535   -0.0000661    0.6222581  
H    2.7054628   -0.0071098   -3.5745262  
H   -3.1132988   -0.0000650   -2.0551783  
H   -2.3200283   -0.0004072    0.8516412  
C    0.6611979   -0.7016925   -5.1602634  
C   -0.1387085    0.0017018   -4.3179686  
C   -1.0659757    0.7435466   -5.1393559  
C   -0.7383875    0.4122891   -6.5392645  
N    0.3175303   -0.4679251   -6.4831333  
C   -1.3893429    0.9119183   -7.6201588  
C   -2.4856335    1.8378811   -7.3893459  
O   -3.1337393    2.3423480   -8.2969656  
C   -2.8496763    2.2029987   -5.9149073  
O   -3.7705841    2.9817557   -5.7082045  
C   -2.0753680    1.5999277   -4.8329633  
H   -1.1332425    0.6558886   -8.6388694  
H   -2.3339020    1.8577613   -3.8149230  
H    1.4729779   -1.3710026   -4.9258989  
H    0.7677096   -0.8789301   -7.2802914  
C    6.5771499   -0.0035571    1.3345534  
C    7.6645488   -0.0027620    0.5288602  
C    7.1290982   -0.0009888   -0.8238370  
C    5.6614001   -0.0010504   -0.6437062  
N    5.3318749   -0.0024719    0.6193855  
C    4.7577221    0.0005130   -1.7610465  
C    5.2958120    0.0024562   -3.0019292  
O    4.5716627    0.0040581   -4.1340272  
C    6.7730249    0.0029429   -3.2164073  
O    7.1927148    0.0046218   -4.3735928  
C    7.6790894    0.0012690   -2.0540951  
H    8.7019031   -0.0032208    0.8169075  
H    5.2317436    0.0052552   -4.8505772  
H    8.7426331    0.0018008   -2.2518451  
H    6.5493805   -0.0048792    2.4126075  
C    2.5285572    2.1210227    2.9438989  
C    1.9331703    1.6216660    4.0790748  
C    0.8903039    0.7472258    3.6520102  
C    0.8972198    0.7527806    2.2336141  
N    1.9028376    1.5986179    1.8362361  
C    0.0000000    0.0000000    1.4700000  
C   -0.9207814   -0.7726952    2.1506477  
O   -1.8198395   -1.5274828    1.4542253  
C   -0.9436862   -0.7911793    3.5655508  
O   -1.9197945   -1.6098497    4.0950179  
C   -0.0590329   -0.0485852    4.3195194  
H    2.2150357    1.8593692    5.0905303  
H    2.1533708    1.7953814    0.8841339  
H   -2.3621246   -1.9821033    2.1118817  
H   -1.8668290   -1.5649508    5.0545920  
H   -0.1007624   -0.0827977    5.4019087  
H    3.3491200    2.8096064    2.8367138  
