58

C   -3.2797450    0.0205751   -1.4499629  
C   -2.5570669    0.0159416   -2.5996540  
C   -1.1637221    0.0073536   -2.2210353  
C   -1.1336735    0.0073344   -0.7459465  
N   -2.4482997    0.0159391   -0.3402709  
C    0.0000000    0.0000000    0.0000000  
C    1.2757100   -0.0082120   -0.6964427  
O    2.3524103   -0.0151136   -0.1142329  
C    1.2676212   -0.0080911   -2.2584092  
O    2.3355287   -0.0146583   -2.8557313  
C   -0.0181585   -0.0000586   -2.9516297  
H   -2.9546801    0.0184560   -3.5989086  
H   -0.0150837   -0.0002343   -4.0331631  
H   -2.7563136    0.0165011    0.6148077  
C   -6.6316000    0.0433678   -4.3241550  
C   -5.4015458    0.0353565   -3.7488484  
C   -5.6053400    0.0358290   -2.3194069  
C   -7.0654206    0.0448077   -2.1075730  
N   -7.6301978    0.0494415   -3.3621230  
C   -7.6657713    0.0474727   -0.8904960  
C   -6.8172562    0.0412971    0.2895547  
O   -7.2621535    0.0431351    1.4298896  
C   -5.2682524    0.0320060    0.0887927  
O   -4.5437376    0.0270575    1.0748525  
C   -4.7389932    0.0296143   -1.2727253  
H   -4.4590065    0.0299377   -4.2667323  
H   -8.7386510    0.0539603   -0.7570877  
H   -6.8925978    0.0455625   -5.3699876  
C   -9.9210105   -2.0801480   -6.3960189  
C  -11.1842650   -1.6665264   -6.1416886  
C  -11.0609685   -0.7565479   -5.0133109  
C   -9.6146001   -0.7373182   -4.7063337  
N   -8.9412847   -1.5112329   -5.5136080  
C   -9.0742081    0.0564616   -3.6372333  
C   -9.9393574    0.7976498   -2.9081990  
O   -9.5738058    1.5844766   -1.8818870  
C  -11.4045137    0.7997110   -3.1936321  
O  -12.1332867    1.4982879   -2.4892872  
C  -11.9343597   -0.0229565   -4.2956331  
H  -12.0881260   -1.9445196   -6.6563054  
H  -10.4054322    1.9806922   -1.5647713  
H  -13.0015611    0.0062104   -4.4701639  
H   -9.5872717   -2.7638744   -7.1602896  
C    2.5528530    2.1414826    2.8079335  
C    2.0663498    1.7338582    4.0032312  
C    0.9804344    0.8229586    3.6752840  
C    0.9495562    0.7966882    2.1971295  
N    1.8690446    1.5676019    1.6831036  
C    0.0000000    0.0000000    1.4700000  
C   -0.8785127   -0.7372425    2.1869543  
O   -1.8187535   -1.5261249    1.6395491  
C   -0.8723269   -0.7321790    3.6796354  
O   -1.7010379   -1.4274584    4.2670412  
C    0.1115397    0.0933559    4.4024240  
H    2.4028853    2.0163452    4.9860947  
H   -2.2861435   -1.9184361    2.3990168  
H    0.0832434    0.0693689    5.4835595  
H    3.3664920    2.8238276    2.6198634  
