58

C    3.2798087    0.0005862   -1.4499649  
C    2.5571146    0.0005569   -2.5996553  
C    1.1637436    0.0001550   -2.2210358  
C    1.1336964   -0.0000199   -0.7459473  
N    2.4483515   -0.0001427   -0.3402724  
C    0.0000000    0.0000000    0.0000000  
C   -1.2757367   -0.0000186   -0.6964419  
O   -2.3524602   -0.0000642   -0.1142313  
C   -1.2676494   -0.0000873   -2.2584084  
O   -2.3355762   -0.0004101   -2.8557298  
C    0.0181559    0.0001762   -2.9516298  
H    0.0150792    0.0003318   -4.0331633  
H    4.3498552    0.0008614   -1.3200022  
H    2.7563627    0.0012825    0.6148060  
C    5.9694211   -2.1380306   -4.2640189  
C    5.9589013   -1.7308758   -5.5546363  
C    4.8277515   -0.8211665   -5.6517371  
C    4.2525284   -0.7949997   -4.2897470  
N    4.9176049   -1.5649431   -3.4719145  
C    3.1006055    0.0006267   -3.9654946  
C    2.5486628    0.7369528   -4.9567151  
O    1.4718512    1.5247921   -4.7960058  
C    3.1062921    0.7319668   -6.3413394  
O    2.5527683    1.4263777   -7.1937629  
C    4.2885184   -0.0924693   -6.6488624  
H    6.6352655   -2.0129520   -6.3433318  
H    1.3179705    1.9166331   -5.6746031  
H    4.6619225   -0.0684616   -7.6638621  
C    9.4591681   -4.3865824   -5.7680506  
C    8.3740198   -3.5782380   -5.6535656  
C    7.9318929   -3.6588715   -4.2813932  
C    8.8550495   -4.5870871   -3.6009609  
N    9.7570173   -4.9931613   -4.5572290  
C    8.7739718   -4.9289505   -2.2901368  
C    7.7060944   -4.3438038   -1.4965528  
O    7.5487730   -4.5888108   -0.3076364  
C    6.7167900   -3.3584103   -2.1966111  
O    5.8135701   -2.8597688   -1.5387270  
C    6.9060855   -3.0669575   -3.6154399  
H    7.9334457   -2.9924853   -6.4405869  
H    9.4614626   -5.6116944   -1.8104196  
H   10.0662130   -4.5903687   -6.6351468  
H   10.5160850   -5.6302876   -4.3993288  
C    0.0000000    0.0000000    1.4700000  
C    1.0662921    0.0000102    2.3034270  
C    0.4961870   -0.0000064    3.6418889  
C   -0.9663858    0.0000850    3.4240247  
N   -1.2632773    0.0000084    2.1528658  
C   -1.8985362    0.0000517    4.5177257  
C   -1.3925775   -0.0004564    5.7720543  
O   -2.1456383   -0.0005410    6.8851312  
C    0.0786232   -0.0009323    6.0245000  
O    0.4683759   -0.0012588    7.1921102  
C    1.0143166   -0.0008442    4.8859032  
H    2.1107198   -0.0000632    2.0421868  
H   -2.9622183    0.0003270    4.3293377  
H   -1.5042274   -0.0009692    7.6184419  
H    2.0724152   -0.0013148    5.1109744  
