58

C    3.2573665   -0.0002919   -1.5109388  
C    2.5379466   -0.0001709   -0.3591967  
C    1.1435036    0.0000331   -0.7338501  
C    1.1092601   -0.0000083   -2.2088478  
N    2.4227553    0.0001910   -2.6182616  
C   -0.0265541   -0.0002524   -2.9515659  
C   -1.3003053   -0.0002640   -2.2514974  
O   -2.3786791   -0.0004133   -2.8306419  
C   -1.2877726    0.0000311   -0.6895604  
O   -2.3539953    0.0003306   -0.0892029  
C    0.0000000    0.0000000    0.0000000  
H    2.9384088   -0.0000367    0.6389228  
H   -0.0296302   -0.0004086   -4.0327231  
H    2.7280481   -0.0013407   -3.5742122  
C    6.6174610    0.0016340    1.3537063  
C    5.3857492    0.0013496    0.7819012  
C    5.5854749    0.0003217   -0.6481140  
C    7.0449750   -0.0000008   -0.8641006  
N    7.6133366    0.0012283    0.3888376  
C    7.6418657   -0.0013231   -2.0828804  
C    6.7899754   -0.0022817   -3.2605123  
O    7.2316297   -0.0034332   -4.4021083  
C    5.2415211   -0.0017089   -3.0553447  
O    4.5141872   -0.0021996   -4.0393396  
C    4.7161326   -0.0005435   -1.6923270  
H    4.4446714    0.0019900    1.3024640  
H    6.8814410    0.0023226    2.3987923  
H    8.5996524   -0.0002111    0.5738411  
C    9.1001096   -0.0017905   -2.2684175  
C   10.0614550   -0.0010638   -1.3158449  
C   11.3172565   -0.0020084   -2.0503254  
C   10.9165347   -0.0034048   -3.4737030  
N    9.6180689   -0.0032030   -3.6077800  
C   11.8838363   -0.0045950   -4.5364405  
C   13.1919940   -0.0040103   -4.1928450  
O   14.2011214   -0.0049872   -5.0803710  
C   13.6281105   -0.0022323   -2.7652735  
O   14.8355761   -0.0019108   -2.5260090  
C   12.6167180   -0.0010792   -1.6933545  
H    9.9341277    0.0000741   -0.2467975  
H   11.5627013   -0.0058099   -5.5678379  
H   15.0095240   -0.0041894   -4.5366457  
H   12.9735381    0.0003140   -0.6721262  
C    2.5528530    2.1414826    2.8079335  
C    2.0663498    1.7338582    4.0032312  
C    0.9804344    0.8229586    3.6752840  
C    0.9495562    0.7966882    2.1971295  
N    1.8690446    1.5676019    1.6831036  
C    0.0000000    0.0000000    1.4700000  
C   -0.8785127   -0.7372425    2.1869543  
O   -1.8187535   -1.5261249    1.6395491  
C   -0.8723269   -0.7321790    3.6796354  
O   -1.7010379   -1.4274584    4.2670412  
C    0.1115397    0.0933559    4.4024240  
H    2.4028853    2.0163452    4.9860947  
H   -2.2861435   -1.9184361    2.3990168  
H    0.0832434    0.0693689    5.4835595  
H    3.3664920    2.8238276    2.6198634  
