58

C    3.2798082    0.0005858   -1.4499649  
C    2.5571137    0.0005567   -2.5996552  
C    1.1637431    0.0001548   -2.2210359  
C    1.1336961   -0.0000198   -0.7459469  
N    2.4483510   -0.0001427   -0.3402720  
C    0.0000000    0.0000000    0.0000000  
C   -1.2757370   -0.0000185   -0.6964410  
O   -2.3524599   -0.0000639   -0.1142304  
C   -1.2676503   -0.0000871   -2.2584075  
O   -2.3355769   -0.0004099   -2.8557292  
C    0.0181550    0.0001761   -2.9516292  
H    0.0150784    0.0003321   -4.0331628  
H    4.3498543    0.0008611   -1.3200023  
H    2.7563624    0.0012824    0.6148062  
C    5.9736421   -2.1043581   -4.3829125  
C    5.8838281   -1.6403860   -5.6559947  
C    4.7509375   -0.7462250   -5.6992520  
C    4.1840549   -0.7271401   -4.3372425  
N    4.9705824   -1.5712078   -3.5877003  
C    3.1006047    0.0006266   -3.9654948  
C    2.4492212    0.8196160   -4.9742027  
O    1.4668583    1.5107655   -4.7384560  
C    3.0324348    0.8144456   -6.4232161  
O    2.4922716    1.4997916   -7.2809954  
C    4.2049261   -0.0107540   -6.7027917  
H    4.6026936   -0.0086080   -7.7085258  
H    6.6880799   -2.7910788   -3.9587865  
H    4.8377537   -1.7678914   -2.6126523  
C    7.8686408   -5.3662471   -7.0853017  
C    7.1196192   -4.5139657   -6.3476274  
C    7.2620358   -3.2240718   -7.0051916  
C    8.1556742   -3.4877355   -8.1534407  
N    8.5144646   -4.7417440   -8.2056064  
C    8.5468724   -2.4498310   -9.0671169  
C    8.0668256   -1.2051874   -8.8440657  
O    8.3496232   -0.1421494   -9.6160865  
C    7.1627939   -0.9074683   -7.6941736  
O    6.7639271    0.2483505   -7.5520167  
C    6.7760450   -1.9891668   -6.7709843  
H    6.5417517   -4.7335109   -5.4661830  
H    9.2012841   -2.6708392   -9.8976660  
H    7.8651626    0.5974102   -9.2068153  
H    8.0246226   -6.4213965   -6.9262341  
C    2.5528530    2.1414826    2.8079335  
C    2.0663498    1.7338582    4.0032312  
C    0.9804344    0.8229586    3.6752840  
C    0.9495562    0.7966882    2.1971295  
N    1.8690446    1.5676019    1.6831036  
C    0.0000000    0.0000000    1.4700000  
C   -0.8785127   -0.7372425    2.1869543  
O   -1.8187535   -1.5261249    1.6395491  
C   -0.8723269   -0.7321790    3.6796354  
O   -1.7010379   -1.4274584    4.2670412  
C    0.1115397    0.0933559    4.4024240  
H    2.4028853    2.0163452    4.9860947  
H   -2.2861435   -1.9184361    2.3990168  
H    0.0832434    0.0693689    5.4835595  
H    3.3664920    2.8238276    2.6198634  
