60

C   -3.3460099   -0.0004264   -2.7913642  
C   -3.9807095   -0.0008722   -1.5960664  
C   -5.3980834   -0.0010998   -1.9240135  
C   -5.4386243   -0.0006189   -3.4021680  
N   -4.2387215   -0.0003037   -3.9161939  
C   -6.6781275   -0.0007181   -4.1292972  
C   -7.8249965   -0.0016615   -3.4123430  
O   -9.0523468   -0.0018579   -3.9597487  
C   -7.8170046   -0.0025378   -1.9196621  
O   -8.8987506   -0.0032509   -1.3322562  
C   -6.5326743   -0.0023731   -1.1968737  
H   -3.5413288   -0.0011175   -0.6132030  
H   -6.6781281   -0.0001519   -5.2095331  
H   -9.6625609   -0.0026195   -3.2002804  
H   -6.5697687   -0.0031427   -0.1157385  
C    0.0000000    0.0000000    0.0000000  
C    1.0662919   -0.0000103   -0.8334270  
C    0.4961866    0.0000065   -2.1718889  
C   -0.9663862   -0.0000850   -1.9540246  
N   -1.2632775   -0.0000084   -0.6828656  
C   -1.8985367   -0.0000517   -3.0477255  
C   -1.3925784    0.0004565   -4.3020543  
O   -2.1456390    0.0005410   -5.4151309  
C    0.0786224    0.0009324   -4.5544999  
O    0.4683751    0.0012590   -5.7221101  
C    1.0143159    0.0008443   -3.4159032  
H    2.1107193    0.0000633   -0.5721870  
H   -1.5042281    0.0009693   -6.1484413  
C    4.6171595   -2.0114327   -1.7322456  
C    3.3328186   -1.6298291   -1.9231044  
C    3.3780272   -0.7112572   -3.0503495  
C    4.8069983   -0.6523616   -3.4260583  
N    5.5382122   -1.4125187   -2.6569828  
C    5.2745443    0.1606802   -4.5148420  
C    4.3562389    0.8817944   -5.1975162  
O    4.6514298    1.6829997   -6.2352895  
C    2.9068147    0.8432088   -4.8427757  
O    2.1270256    1.5254610   -5.5073667  
C    2.4521472    0.0014839   -3.7217486  
H    2.4622556   -1.9341725   -1.3676126  
H    6.3245832    0.1848320   -4.7673199  
H    3.7953878    2.0581838   -6.5102110  
H    5.0049127   -2.6900161   -0.9891809  
C    1.1243417   -0.0099156    2.2619005  
C    0.7474090   -0.0234034    3.5848544  
C   -0.6787367   -0.0234952    3.6114698  
C   -1.1201739   -0.0099357    2.2635546  
N    0.0000000    0.0000000    1.4700000  
C   -2.4730812   -0.0065396    1.9108239  
C   -3.3971947   -0.0173298    2.9375057  
O   -4.7313508   -0.0149487    2.6493466  
C   -2.9763630   -0.0305536    4.2886322  
O   -4.0166453   -0.0397858    5.1947621  
C   -1.6418541   -0.0336380    4.6373480  
H    1.4178735   -0.0310004    4.4271209  
H   -2.8160170    0.0039190    0.8854031  
H   -5.1938803   -0.0234410    3.4974381  
H   -3.6464643   -0.0484781    6.0827341  
H   -1.3497443   -0.0436789    5.6809233  
H    2.1062470   -0.0051382    1.8205408  
