58

C    4.7207756    1.0595858   -1.3068123  
C    3.4838910    0.6726612   -1.7123748  
C    3.1187141    1.5236840   -2.8201842  
C    4.2523794    2.4447084   -3.0282880  
N    5.1904366    2.1114876   -2.0786028  
C    4.2961812    3.4063276   -3.9848832  
C    3.1502064    3.5434831   -4.8683232  
O    3.0935289    4.3791401   -5.7609410  
C    1.9384332    2.5789000   -4.6658613  
O    0.9678554    2.6850990   -5.4033984  
C    2.0077943    1.5820935   -3.6003016  
H    2.8945047   -0.1184912   -1.2842215  
H    5.1375761    4.0715414   -4.1207325  
H    5.3286234    0.6649225   -0.5089079  
C    0.0000000    0.0000000    0.0000000  
C    0.8280683    0.6523600   -0.8560397  
C    0.4008361    0.3158313   -2.1935958  
C   -0.7522979   -0.5925525   -2.0455726  
N   -0.9438650   -0.7440119   -0.6915963  
C   -1.4416244   -1.1350465   -3.0810598  
C   -1.0195149   -0.8022120   -4.4314598  
O   -1.5757002   -1.2399500   -5.4301309  
C    0.1994405    0.1577077   -4.6117574  
O    0.5641536    0.4448836   -5.7439123  
C    0.8619042    0.6793565   -3.4189134  
H    1.6450616    1.2957319   -0.5817992  
H   -2.2847998   -1.7991042   -2.9507045  
H   -1.6603680   -1.3065936   -0.2706780  
C    7.6868020    2.1971436   -1.6314514  
C    6.4936870    2.7708739   -1.9123231  
C    6.7770386    4.1940495   -2.0161580  
C    8.2296558    4.3043314   -1.7625330  
N    8.7683832    3.1370031   -1.5364647  
C    8.9105213    5.5697621   -1.7764558  
C    8.1737863    6.6747481   -2.0325077  
O    8.6782393    7.9195907   -2.0764859  
C    6.7060520    6.5960610   -2.2927448  
O    6.0984946    7.6425250   -2.5185932  
C    6.0306851    5.2863236   -2.2729157  
H    9.9728762    5.6209549   -1.5875353  
H    7.9145152    8.4895997   -2.2788907  
H    4.9664551    5.2719074   -2.4664001  
H    7.9011244    1.1514536   -1.4779188  
C    3.1301144    0.0010313    3.1728260  
C    2.5367765    0.0002768    1.9564670  
C    1.1089900   -0.0001027    2.2356185  
C    1.0177864    0.0004150    3.7115134  
N    2.1993570    0.0011613    4.2663826  
C   -0.2459220    0.0002880    4.3957118  
C   -1.3675327    0.0000606    3.6398520  
O   -2.6129319   -0.0000866    4.1448486  
C   -1.3083589   -0.0000910    2.1483229  
O   -2.3693264   -0.0004206    1.5241687  
C    0.0000000    0.0000000    1.4700000  
H    3.0096015    0.0001008    0.9892483  
H   -0.2829642    0.0004689    5.4753125  
H   -3.1967446   -0.0002093    3.3649027  
H    4.1849273    0.0015113    3.3971983  
