60

C    3.3003552    0.0005275   -1.4738984  
C    2.5232817    0.0003496   -2.6090743  
C    1.1623204   -0.0001320   -2.1820099  
C    1.1711887    0.0000582   -0.7636134  
N    2.4852302   -0.0014920   -0.3662351  
C    0.0000000    0.0000000    0.0000000  
C   -1.2020380    0.0000519   -0.6806477  
O   -2.3759248    0.0003492    0.0157745  
C   -1.2314653   -0.0005115   -2.0955505  
O   -2.5054383   -0.0008042   -2.6250185  
C   -0.0764510   -0.0007275   -2.8495192  
H    2.8919961   -0.0005621   -3.6205295  
H    2.8036264    0.0088182    0.5858666  
H   -3.0835635    0.0000346   -0.6418821  
H   -2.4360041   -0.0011531   -3.5845924  
H    4.3715554    0.0004893   -1.3667125  
C    0.6257873   -0.6877067   -5.1891866  
C   -0.1496407   -0.0015617   -4.3176957  
C   -1.0813833    0.7431613   -5.1506086  
C   -0.7159746    0.3786179   -6.5363099  
N    0.2840344   -0.4599142   -6.5652282  
C   -1.4132804    0.9141716   -7.6729860  
C   -2.4296869    1.7744849   -7.4361031  
O   -3.1662524    2.3500967   -8.4015995  
C   -2.8226241    2.1616302   -6.0490633  
O   -3.7575075    2.9498673   -5.9080077  
C   -2.0918898    1.5987000   -4.8996890  
H   -3.8080358    2.9070395   -7.9250691  
H   -2.4074104    1.9041492   -3.9110649  
H    1.4396013   -1.3596275   -4.9673697  
C   -0.6504815   -0.6952945   -9.4804368  
C   -1.0207131    0.5282220   -9.0360096  
C   -0.9472939    1.3901855  -10.2056800  
C   -0.5039489    0.4983183  -11.2986588  
N   -0.3284103   -0.7254174  -10.8795572  
C   -0.3075029    0.9773290  -12.6391976  
C   -0.5436126    2.2876642  -12.8771235  
O   -0.4009817    2.8696694  -14.0800226  
C   -0.9922631    3.2130079  -11.7951745  
O   -1.1881371    4.3935335  -12.0836428  
C   -1.1865603    2.6975671  -10.4282457  
H    0.0172166    0.3033010  -13.4183979  
H   -0.6402934    3.8027026  -13.9339698  
H   -1.5123921    3.4000301   -9.6728586  
H   -0.5752136   -1.6117515   -8.9170411  
C    0.0000000    0.0000000    1.4700000  
C    1.0662921    0.0000102    2.3034270  
C    0.4961870   -0.0000064    3.6418889  
C   -0.9663858    0.0000850    3.4240247  
N   -1.2632773    0.0000084    2.1528658  
C   -1.8985362    0.0000517    4.5177257  
C   -1.3925775   -0.0004564    5.7720543  
O   -2.1456383   -0.0005410    6.8851312  
C    0.0786232   -0.0009323    6.0245000  
O    0.4683759   -0.0012588    7.1921102  
C    1.0143166   -0.0008442    4.8859032  
H    2.1107198   -0.0000632    2.0421868  
H   -2.9622183    0.0003270    4.3293377  
H   -1.5042274   -0.0009692    7.6184419  
H    2.0724152   -0.0013148    5.1109744  
