60

C    0.0000000    0.0000000    0.0000000  
C    1.0521665   -0.0011901   -0.8862342  
C    0.4917217   -0.0011956   -2.1979130  
C   -0.9187428    0.0003148   -2.0478683  
N   -1.1833173   -0.0009411   -0.7007911  
C   -1.7951703    0.0010349   -3.1372088  
C   -1.2375840    0.0005224   -4.4010424  
O   -2.0474220    0.0015359   -5.4997576  
C    0.1673578   -0.0013566   -4.5711965  
O    0.5673521   -0.0020688   -5.8915549  
C    1.0325768   -0.0023412   -3.4969890  
H    2.0953059   -0.0030648   -0.6200563  
H   -2.0989774    0.0102371   -0.2891826  
H   -1.4634888    0.0006496   -6.2693593  
H    1.5290706   -0.0033152   -5.9180048  
C    3.4064528   -0.7318366   -2.9764950  
C    4.6700471   -0.5171191   -3.4251602  
C    4.5733462    0.4095834   -4.5282045  
C    3.1395582    0.7193978   -4.6865021  
N    2.4861699   -0.0045381   -3.7159922  
C    2.6335421    1.5602166   -5.6238792  
C    3.5630782    2.2027684   -6.5380050  
O    3.2057020    2.9763279   -7.4167478  
C    5.0859339    1.8890250   -6.3887352  
O    5.8780057    2.4238418   -7.1528382  
C    5.5107310    0.9658168   -5.3394087  
H    5.5674380   -0.9577775   -3.0287723  
H    1.5783521    1.7739232   -5.7229396  
H    6.5669016    0.7540381   -5.2425735  
H    3.0700923   -1.3603658   -2.1679762  
C   -3.2578657    0.0024038   -2.9908504  
C   -3.9809873    0.0031287   -1.8468775  
C   -5.3695598    0.0043913   -2.2808879  
C   -5.2983967    0.0043641   -3.7578846  
N   -4.0631144    0.0031209   -4.1798622  
C   -6.4794710    0.0054029   -4.5765110  
C   -7.6771921    0.0060337   -3.9481805  
O   -8.8597161    0.0070290   -4.5866776  
C   -7.7819058    0.0057081   -2.4591555  
O   -8.9049090    0.0064464   -1.9550880  
C   -6.5558062    0.0046821   -1.6414742  
H   -3.6170581    0.0027518   -0.8336493  
H   -6.3979230    0.0055641   -5.6536640  
H   -9.5255221    0.0072467   -3.8754427  
H   -6.6744111    0.0043601   -0.5662243  
C    3.1301144    0.0010313    3.1728260  
C    2.5367765    0.0002768    1.9564670  
C    1.1089900   -0.0001027    2.2356185  
C    1.0177864    0.0004150    3.7115134  
N    2.1993570    0.0011613    4.2663826  
C   -0.2459220    0.0002880    4.3957118  
C   -1.3675327    0.0000606    3.6398520  
O   -2.6129319   -0.0000866    4.1448486  
C   -1.3083589   -0.0000910    2.1483229  
O   -2.3693264   -0.0004206    1.5241687  
C    0.0000000    0.0000000    1.4700000  
H    3.0096015    0.0001008    0.9892483  
H   -0.2829642    0.0004689    5.4753125  
H   -3.1967446   -0.0002093    3.3649027  
H    4.1849273    0.0015113    3.3971983  
