60

C    1.1243407    0.0099918   -0.7919011  
C    0.7474070    0.0234537   -2.1148548  
C   -0.6787389    0.0234486   -2.1414697  
C   -1.1201748    0.0098592   -0.7935545  
N    0.0000000    0.0000000    0.0000000  
C   -2.4730816    0.0063711   -0.4408237  
C   -3.3971960    0.0170983   -1.4675051  
O   -4.7313524    0.0146266   -1.1793453  
C   -2.9763659    0.0303506   -2.8186315  
O   -4.0166486    0.0395119   -3.7247612  
C   -1.6418572    0.0335257   -3.1673476  
H    1.4178706    0.0310961   -2.9571212  
H   -2.8160166   -0.0041105    0.5845974  
H   -5.1938826    0.0230873   -2.0274370  
H   -3.6464687    0.0482291   -4.6127332  
H    2.1062465    0.0052813   -0.3505410  
C    1.5662170   -2.0369334   -5.3849788  
C    0.7247348   -1.5841899   -4.4200922  
C   -0.2036122   -0.6824646   -5.0603256  
C    0.1686516   -0.6467490   -6.4875373  
N    1.2488251   -1.4887532   -6.6184702  
C   -0.4698303    0.0914807   -7.4304387  
C   -1.5988886    0.9053323   -7.0116220  
O   -2.2389969    1.6051223   -7.7854801  
C   -2.0104588    0.8829877   -5.5049977  
O   -2.9592406    1.5643450   -5.1405443  
C   -1.2456343    0.0471721   -4.5828762  
H    0.7514295   -1.8512710   -3.3786662  
H    2.3916469   -2.7247631   -5.2986873  
H    1.7309295   -1.6776748   -7.4780815  
C    0.9056311   -2.9569985  -10.3765080  
C    0.4810326   -2.3858061   -9.2254062  
C    0.3150923   -0.9762737   -9.5450650  
C    0.6937895   -0.8702835  -10.9705258  
N    1.0408083   -2.0281738  -11.4633322  
C    0.6635858    0.3820432  -11.6746934  
C    0.2724582    1.4785707  -10.9862308  
O    0.1974540    2.7108938  -11.5170749  
C   -0.1161712    1.4038954   -9.5469420  
O   -0.4617575    2.4421553   -8.9831981  
C   -0.0768279    0.1076580   -8.8468379  
H    0.3024014   -2.8621611   -8.2765892  
H    0.9457934    0.4303802  -12.7162948  
H   -0.1094625    3.2773978  -10.7863018  
H    1.1431549   -3.9936213  -10.5553057  
C    2.3971438    2.0127888    3.1728260  
C    1.9431056    1.6308205    1.9564670  
C    0.8496017    0.7127664    2.2356185  
C    0.7794028    0.6545384    3.7115134  
N    1.6840587    1.4146091    4.2663826  
C   -0.1885723   -0.1578550    4.3957118  
C   -1.0476298   -0.8789867    3.6398520  
O   -2.0015663   -1.6796266    4.1448486  
C   -1.0022026   -0.8410666    2.1483229  
O   -1.8147390   -1.5232959    1.5241687  
C    0.0000000    0.0000000    1.4700000  
H    2.3054237    1.9346118    0.9892483  
H   -0.2170646   -0.1815267    5.4753125  
H   -2.4487139   -2.0549881    3.3649027  
H    3.2048689    2.6911772    3.3971983  
