62

C   -3.3002794   -0.0223200   -1.4738975  
C   -2.5232245   -0.0170111   -2.6090737  
C   -1.1622959   -0.0075430   -2.1820094  
C   -1.1711628   -0.0077918   -0.7636135  
N   -2.4851861   -0.0149181   -0.3662351  
C    0.0000000    0.0000000    0.0000000  
C    1.2020127    0.0078850   -0.6806478  
O    2.3758749    0.0153388    0.0157740  
C    1.2314351    0.0086424   -2.0955507  
O    2.5053784    0.0173469   -2.6250181  
C    0.0764446    0.0012319   -2.8495193  
H   -2.8035074   -0.0273303    0.5858668  
H    3.0834965    0.0203259   -0.6418813  
H    2.4359429    0.0172374   -3.5845921  
H    0.1303967    0.0022029   -3.9319081  
H   -4.3714567   -0.0293549   -1.3667122  
C   -3.0266843   -0.0190908   -3.9901688  
C   -4.3102568   -0.0274553   -4.4333923  
C   -4.2574057   -0.0256950   -5.8763195  
C   -2.8275741   -0.0155757   -6.2400093  
N   -2.1344213   -0.0115780   -5.0515598  
C   -2.3580942   -0.0115305   -7.5133029  
C   -3.3256131   -0.0173184   -8.5979262  
O   -3.0026862   -0.0142655   -9.7786079  
C   -4.8450384   -0.0278005   -8.2359275  
O   -5.6689089   -0.0324353   -9.1406243  
C   -5.2286797   -0.0316414   -6.8264395  
H   -5.1933219   -0.0339179   -3.8195778  
H   -1.3051105   -0.0042227   -7.7584188  
H   -1.1343944   -0.0062822   -4.9681011  
C   -7.6119529    2.0731402   -3.6832622  
C   -6.5896466    1.6187530   -4.4838183  
C   -7.1699409    0.7277577   -5.4346002  
C   -8.5612256    0.6777740   -5.1630214  
N   -8.7954611    1.5046412   -4.0924877  
C   -9.4494707   -0.1042969   -5.9074504  
C   -8.9236890   -0.8492499   -6.9451285  
O   -9.7463504   -1.6301366   -7.7043762  
C   -7.5382117   -0.8128896   -7.2313943  
O   -7.1692964   -1.6102428   -8.2951014  
C   -6.6613089   -0.0417930   -6.4972428  
H   -5.5529985    1.8945990   -4.3929210  
H   -9.6938918    1.6794934   -3.6798979  
H  -10.5108777   -0.1468530   -5.7054456  
H   -9.1845386   -2.0588408   -8.3630457  
H   -6.2190979   -1.5281634   -8.4215546  
H   -7.5903152    2.7566676   -2.8518286  
C    2.3971438    2.0127888    3.1728260  
C    1.9431056    1.6308205    1.9564670  
C    0.8496017    0.7127664    2.2356185  
C    0.7794028    0.6545384    3.7115134  
N    1.6840587    1.4146091    4.2663826  
C   -0.1885723   -0.1578550    4.3957118  
C   -1.0476298   -0.8789867    3.6398520  
O   -2.0015663   -1.6796266    4.1448486  
C   -1.0022026   -0.8410666    2.1483229  
O   -1.8147390   -1.5232959    1.5241687  
C    0.0000000    0.0000000    1.4700000  
H    2.3054237    1.9346118    0.9892483  
H   -0.2170646   -0.1815267    5.4753125  
H   -2.4487139   -2.0549881    3.3649027  
H    3.2048689    2.6911772    3.3971983  
