64

C    2.3136494   -2.1180449   -5.9171360  
C    1.6624063   -1.6181599   -7.0209771  
C    0.6419647   -0.7441450   -6.5420234  
C    0.7194932   -0.7504915   -5.1257338  
N    1.7437762   -1.5963711   -4.7793969  
C   -0.1387079    0.0017019   -4.3179684  
C   -1.0923523    0.7746130   -4.9514893  
O   -1.9557349    1.5288503   -4.2107391  
C   -1.1856778    0.7938840   -6.3634861  
O   -2.1870601    1.6126755   -6.8432329  
C   -0.3395492    0.0518695   -7.1609864  
H    2.0414323   -1.7936219   -3.8410611  
H   -2.5301599    1.9837415   -4.8403222  
H   -2.1819299    1.5683226   -7.8042790  
H   -0.4351229    0.0866796   -8.2399366  
H    3.1386345   -2.8065415   -5.8513288  
C    2.3361078   -3.1862330   -8.8831548  
C    2.5734016   -3.1154214  -10.2363529  
C    2.3529144   -1.7615251  -10.6274430  
C    1.9803382   -1.0465916   -9.4604027  
N    1.9780889   -1.9418918   -8.4197056  
C    1.6866463    0.3202994   -9.4723456  
C    1.7708928    0.9775042  -10.6844366  
O    1.4950211    2.3125060  -10.7528385  
C    2.1405657    0.2814400  -11.8598733  
O    2.1789893    1.0756318  -12.9873173  
C    2.4301757   -1.0670895  -11.8488815  
H    2.8679842   -3.9385896  -10.8645317  
H    1.4019437    0.8709359   -8.5863737  
H    1.6119418    2.5684764  -11.6769995  
H    2.4367957    0.5289249  -13.7358158  
H    2.7103097   -1.5733505  -12.7652346  
H    2.3925240   -4.0262025   -8.2121650  
C    3.3041273    0.0001178   -1.5420428  
C    2.5845373   -0.0004780   -0.3695851  
C    1.2040007   -0.0000007   -0.7283589  
C    1.1422374    0.0006038   -2.1454372  
N    2.4348641    0.0026111   -2.6077464  
C   -0.0655179    0.0008799   -2.8497918  
C   -1.2321766    0.0002325   -2.1101402  
O   -2.4392814    0.0001148   -2.7472522  
C   -1.1911209   -0.0000007   -0.6955266  
O   -2.4371528   -0.0002320   -0.1032862  
C    0.0000000    0.0000000    0.0000000  
H    3.0031533   -0.0000660    0.6222584  
H    2.7054631   -0.0071097   -3.5745261  
H   -3.1132988   -0.0000648   -2.0551787  
H   -2.3200282   -0.0004072    0.8516409  
H    4.3686625    0.0004073   -1.7024290  
C    2.3971438    2.0127888    3.1728260  
C    1.9431056    1.6308205    1.9564670  
C    0.8496017    0.7127664    2.2356185  
C    0.7794028    0.6545384    3.7115134  
N    1.6840587    1.4146091    4.2663826  
C   -0.1885723   -0.1578550    4.3957118  
C   -1.0476298   -0.8789867    3.6398520  
O   -2.0015663   -1.6796266    4.1448486  
C   -1.0022026   -0.8410666    2.1483229  
O   -1.8147390   -1.5232959    1.5241687  
C    0.0000000    0.0000000    1.4700000  
H    2.3054237    1.9346118    0.9892483  
H   -0.2170646   -0.1815267    5.4753125  
H   -2.4487139   -2.0549881    3.3649027  
H    3.2048689    2.6911772    3.3971983  
