60

C   -3.3041267   -0.0001796   -1.5420443  
C   -2.5845374    0.0004295   -0.3695862  
C   -1.2040004   -0.0000218   -0.7283594  
C   -1.1422371   -0.0006252   -2.1454380  
N   -2.4348630   -0.0026566   -2.6077474  
C    0.0655192   -0.0008787   -2.8497916  
C    1.2321779   -0.0002094   -2.1101396  
O    2.4392822   -0.0000691   -2.7472515  
C    1.1911210    0.0000230   -0.6955265  
O    2.4371523    0.0002776   -0.1032860  
C    0.0000000    0.0000000    0.0000000  
H   -3.0031536    0.0000097    0.6222571  
H   -2.7054619    0.0070591   -3.5745273  
H    0.1193559   -0.0014823   -3.9297475  
H    3.1132992    0.0001231   -2.0551781  
H    2.3200281    0.0004506    0.8516414  
C   -6.9078748    0.0011109    1.0804434  
C   -5.6166937    0.0004840    0.6749432  
C   -5.6800153   -0.0005099   -0.7784975  
C   -7.1258510   -0.0004504   -1.0885654  
N   -7.8505609    0.0005785   -0.0028466  
C   -7.6141440   -0.0012469   -2.4401036  
C   -6.6996197   -0.0016766   -3.4365871  
O   -7.0134390   -0.0024350   -4.7433227  
C   -5.2335518   -0.0013776   -3.1558629  
O   -4.4582985   -0.0019247   -4.1120022  
C   -4.7577215   -0.0006022   -1.7610478  
H   -4.7307116    0.0007629    1.2865897  
H   -8.6761776   -0.0013901   -2.6375732  
H   -6.1552189   -0.0025520   -5.2044222  
C   -4.9059894    0.0036710    5.0160345  
C   -5.1747248    0.0026783    3.6849243  
C   -6.6118820    0.0027436    3.5455884  
C   -7.1623402    0.0038928    4.9144510  
N   -6.0765326    0.0040127    5.7593845  
C   -8.4867274    0.0046850    5.2105960  
C   -9.4331730    0.0041594    4.1075208  
O  -10.6462959    0.0047344    4.2707146  
C   -8.8724867    0.0026910    2.6496339  
O   -9.6596886    0.0019311    1.7128449  
C   -7.4245177    0.0022153    2.4566624  
H   -4.4490133    0.0017978    2.8912264  
H   -8.8695885    0.0056534    6.2216983  
H   -3.9513043    0.0039648    5.5165003  
H   -6.1266917    0.0062652    6.7616446  
C    0.0000000    0.0000000    1.4700000  
C    1.0662921    0.0000102    2.3034270  
C    0.4961870   -0.0000064    3.6418889  
C   -0.9663858    0.0000850    3.4240247  
N   -1.2632773    0.0000084    2.1528658  
C   -1.8985362    0.0000517    4.5177257  
C   -1.3925775   -0.0004564    5.7720543  
O   -2.1456383   -0.0005410    6.8851312  
C    0.0786232   -0.0009323    6.0245000  
O    0.4683759   -0.0012588    7.1921102  
C    1.0143166   -0.0008442    4.8859032  
H    2.1107198   -0.0000632    2.0421868  
H   -2.9622183    0.0003270    4.3293377  
H   -1.5042274   -0.0009692    7.6184419  
H    2.0724152   -0.0013148    5.1109744  
