60

C    3.3041279    0.0001173   -1.5420428  
C    2.5845377   -0.0004782   -0.3695853  
C    1.2040010   -0.0000010   -0.7283587  
C    1.1422381    0.0006033   -2.1454372  
N    2.4348648    0.0026105   -2.6077464  
C   -0.0655169    0.0008790   -2.8497923  
C   -1.2321763    0.0002319   -2.1101406  
O   -2.4392806    0.0001140   -2.7472532  
C   -1.1911206   -0.0000009   -0.6955270  
O   -2.4371521   -0.0002323   -0.1032874  
C    0.0000000    0.0000000    0.0000000  
H    3.0031537   -0.0000658    0.6222585  
H   -0.1193540    0.0014836   -3.9297475  
H   -3.1132985   -0.0000652   -2.0551794  
H   -2.3200278   -0.0004074    0.8516403  
H    4.3686629    0.0004068   -1.7024288  
C    5.6587039   -2.1482573   -4.5997623  
C    5.5107214   -1.7555988   -5.8864245  
C    4.3729234   -0.8490966   -5.8734390  
C    3.9446812   -0.8087295   -4.4586731  
N    4.6947126   -1.5682541   -3.7072977  
C    2.8310674   -0.0116226   -4.0232751  
C    2.1753258    0.7125517   -4.9586407  
O    1.1191542    1.5001776   -4.6937098  
C    2.5836187    0.6930786   -6.3942860  
O    1.9410889    1.3768916   -7.1910144  
C    3.7292197   -0.1325936   -6.8159356  
H    6.1008504   -2.0452555   -6.7390216  
H    0.8721725    1.8818754   -5.5553703  
H    3.9932675   -0.1192719   -7.8649025  
C    7.6531552   -3.7073758   -4.7720334  
C    8.4175449   -4.4919168   -3.9693635  
C    7.8946141   -4.3597824   -2.6299911  
C    6.7547201   -3.4272871   -2.7187914  
N    6.6614042   -3.0681555   -4.0436333  
C    5.9920992   -3.0425762   -1.6642248  
C    6.3157075   -3.5828247   -0.3542840  
O    5.6885931   -3.2973955    0.6574270  
C    7.5189448   -4.5718859   -0.2368855  
O    7.8010518   -5.0329720    0.8608736  
C    8.2661324   -4.9116059   -1.4452533  
H    9.2525494   -5.0942906   -4.2800517  
H    5.1602034   -2.3574975   -1.7509800  
H    9.0977062   -5.5972793   -1.3554692  
H    7.7310372   -3.5422307   -5.8343660  
C    2.5528530    2.1414826    2.8079335  
C    2.0663498    1.7338582    4.0032312  
C    0.9804344    0.8229586    3.6752840  
C    0.9495562    0.7966882    2.1971295  
N    1.8690446    1.5676019    1.6831036  
C    0.0000000    0.0000000    1.4700000  
C   -0.8785127   -0.7372425    2.1869543  
O   -1.8187535   -1.5261249    1.6395491  
C   -0.8723269   -0.7321790    3.6796354  
O   -1.7010379   -1.4274584    4.2670412  
C    0.1115397    0.0933559    4.4024240  
H    2.4028853    2.0163452    4.9860947  
H   -2.2861435   -1.9184361    2.3990168  
H    0.0832434    0.0693689    5.4835595  
H    3.3664920    2.8238276    2.6198634  
