62

C    3.3003547    0.0005277   -1.4738976  
C    2.5232818    0.0003497   -2.6090741  
C    1.1623205   -0.0001319   -2.1820095  
C    1.1711886    0.0000584   -0.7636136  
N    2.4852303   -0.0014921   -0.3662351  
C    0.0000000    0.0000000    0.0000000  
C   -1.2020383    0.0000520   -0.6806481  
O   -2.3759245    0.0003494    0.0157732  
C   -1.2314652   -0.0005114   -2.0955510  
O   -2.5054381   -0.0008038   -2.6250186  
C   -0.0764511   -0.0007273   -2.8495193  
H    2.8036264    0.0088183    0.5858669  
H   -3.0835640    0.0000346   -0.6418817  
H   -2.4360037   -0.0011529   -3.5845927  
H   -0.1304086   -0.0013423   -3.9319085  
H    4.3715551    0.0004897   -1.3667123  
C    4.1171240   -0.7271063   -4.4445137  
C    4.3278184   -0.5117039   -5.7686301  
C    3.3122727    0.4143186   -6.2113315  
C    2.4867578    0.7229873   -5.0280991  
N    3.0267443   -0.0008952   -3.9901693  
C    1.4208267    1.5629154   -5.0321547  
C    1.0625890    2.2056486   -6.2855879  
O    0.1193413    2.9784593   -6.3921131  
C    1.9228120    1.8931118   -7.5513456  
O    1.6305913    2.4280914   -8.6123193  
C    3.0482302    0.9707961   -7.4224269  
H    5.1057476   -0.9514812   -6.3669915  
H    0.8286153    1.7757885   -4.1530188  
H    4.6665438   -1.3554376   -3.7624376  
C    4.8474156   -2.7763051   -8.9327402  
C    5.4223609   -2.2506551  -10.0665818  
C    5.1100134   -0.8590008  -10.0849553  
C    4.3359712   -0.5908428   -8.9269934  
N    4.1936054   -1.7769807   -8.2506605  
C    3.8511299    0.6840838   -8.6199447  
C    4.1534380    1.7069996   -9.4976858  
O    3.7054376    2.9714841   -9.2459172  
C    4.9240723    1.4592163  -10.6585238  
O    5.1393603    2.5807116  -11.4326316  
C    5.4024815    0.2016677  -10.9622066  
H    5.9953639   -2.8025968  -10.7918549  
H    3.7006012   -1.8953927   -7.3841122  
H    4.0234667    3.5234889   -9.9721499  
H    5.6671936    2.3267308  -12.1958423  
H    5.9900381    0.0423129  -11.8587895  
H    4.8507734   -3.7852776   -8.5573442  
C    2.5528530    2.1414826    2.8079335  
C    2.0663498    1.7338582    4.0032312  
C    0.9804344    0.8229586    3.6752840  
C    0.9495562    0.7966882    2.1971295  
N    1.8690446    1.5676019    1.6831036  
C    0.0000000    0.0000000    1.4700000  
C   -0.8785127   -0.7372425    2.1869543  
O   -1.8187535   -1.5261249    1.6395491  
C   -0.8723269   -0.7321790    3.6796354  
O   -1.7010379   -1.4274584    4.2670412  
C    0.1115397    0.0933559    4.4024240  
H    2.4028853    2.0163452    4.9860947  
H   -2.2861435   -1.9184361    2.3990168  
H    0.0832434    0.0693689    5.4835595  
H    3.3664920    2.8238276    2.6198634  
