62

C    3.3003558    0.0005277   -1.4738965  
C    2.5232833    0.0003499   -2.6090730  
C    1.1623222   -0.0001318   -2.1820092  
C    1.1711891    0.0000584   -0.7636132  
N    2.4852306   -0.0014919   -0.3662342  
C    0.0000000    0.0000000    0.0000000  
C   -1.2020379    0.0000521   -0.6806485  
O   -2.3759245    0.0003495    0.0157732  
C   -1.2314636   -0.0005111   -2.0955515  
O   -2.5054372   -0.0008035   -2.6250194  
C   -0.0764493   -0.0007270   -2.8495195  
H    2.8919983   -0.0005617   -3.6205280  
H    2.8036262    0.0088181    0.5858683  
H   -3.0835632    0.0000348   -0.6418837  
H   -2.4360019   -0.0011525   -3.5845935  
H   -0.1304067   -0.0013419   -3.9319088  
C    6.5582239    0.0029729   -4.4647435  
C    7.6103908    0.0023861   -3.5785091  
C    7.0499451    0.0016139   -2.2668308  
C    5.6394797    0.0014822   -2.4168767  
N    5.3749078    0.0042717   -3.7639519  
C    4.7630518    0.0004756   -1.3275370  
C    5.3206374   -0.0007212   -0.0637039  
O    4.5107978   -0.0020884    1.0350105  
C    6.7255798   -0.0002355    0.1064516  
O    7.1255739   -0.0011496    1.4268105  
C    7.5908002    0.0010306   -0.9677543  
H    8.6535308    0.0036057   -3.8446851  
H    4.4592377   -0.0057078   -4.1755712  
H    5.0947313   -0.0024569    1.8046121  
H    8.0872931   -0.0007698    1.4532610  
H    6.5582248    0.0040135   -5.5412935  
C    9.0443948    0.0017445   -0.7487495  
C   10.0273787    0.0029898   -1.6789750  
C   11.2659673    0.0031792   -0.9158248  
C   10.8326370    0.0020257    0.4979671  
N    9.5314337    0.0011006    0.6021643  
C   11.7752573    0.0017976    1.5826568  
C   13.0909675    0.0022926    1.2692181  
O   14.0794296    0.0021620    2.1797036  
C   13.5597787    0.0030851   -0.1479538  
O   14.7724244    0.0036291   -0.3594030  
C   12.5732911    0.0033490   -1.2428355  
H    9.9246556    0.0036030   -2.7506669  
H   11.4305028    0.0011530    2.6064015  
H   14.9001155    0.0025895    1.6547016  
H   12.9534885    0.0038118   -2.2555938  
C    2.5528530    2.1414826    2.8079335  
C    2.0663498    1.7338582    4.0032312  
C    0.9804344    0.8229586    3.6752840  
C    0.9495562    0.7966882    2.1971295  
N    1.8690446    1.5676019    1.6831036  
C    0.0000000    0.0000000    1.4700000  
C   -0.8785127   -0.7372425    2.1869543  
O   -1.8187535   -1.5261249    1.6395491  
C   -0.8723269   -0.7321790    3.6796354  
O   -1.7010379   -1.4274584    4.2670412  
C    0.1115397    0.0933559    4.4024240  
H    2.4028853    2.0163452    4.9860947  
H   -2.2861435   -1.9184361    2.3990168  
H    0.0832434    0.0693689    5.4835595  
H    3.3664920    2.8238276    2.6198634  
