60

C    1.1188646    0.0008220   -0.8003801  
C    0.0000000    0.0000000    0.0000000  
C   -1.1323860    0.0008894   -0.8673528  
C   -0.6382654    0.0019673   -2.1969280  
N    0.7324025    0.0038478   -2.1202232  
C   -1.4770902    0.0027309   -3.3154810  
C   -2.8395464    0.0020933   -3.0876864  
O   -3.7039182    0.0024410   -4.1440360  
C   -3.3517863    0.0013920   -1.7684340  
O   -4.7300483    0.0012355   -1.7073139  
C   -2.5248541    0.0009116   -0.6644824  
H    1.3576325   -0.0056173   -2.9057035  
H   -4.5940018    0.0021812   -3.7685149  
H   -4.9934594    0.0007251   -0.7819934  
H   -2.9462581    0.0005599    0.3339650  
H    2.1619894    0.0009355   -0.5342064  
C    1.8844602   -2.1024773   -5.2000011  
C    1.7579345   -1.6369225   -6.4693809  
C    0.6249300   -0.7419070   -6.4785604  
C    0.0979886   -0.7240456   -5.1005896  
N    0.9053945   -1.5695653   -4.3752745  
C   -0.9736279    0.0040452   -4.6965763  
C   -1.6535170    0.8246999   -5.6849145  
O   -2.6280792    1.5162643   -5.4198329  
C   -1.1127762    0.8208452   -7.1503123  
O   -1.6771942    1.5075977   -7.9911833  
C    0.0504567   -0.0048517   -7.4649010  
H    0.4187513   -0.0017873   -8.4817950  
H    2.6104418   -2.7902104   -4.7976784  
H    0.8008863   -1.7673178   -3.3970009  
C    2.6170240   -1.9850051   -7.6103029  
C    3.6824151   -2.8194102   -7.6273329  
C    4.1554314   -2.7957275   -9.0029036  
C    3.2347901   -1.8704046   -9.6977281  
N    2.3309262   -1.3919712   -8.8864826  
C    3.3684105   -1.5724505  -11.0971766  
C    4.3761847   -2.1713565  -11.7717415  
O    4.6182932   -1.9849470  -13.0804342  
C    5.3219468   -3.1097279  -11.0985748  
O    6.2159046   -3.6188124  -11.7745136  
C    5.1639781   -3.3992101   -9.6622016  
H    4.0962577   -3.3814811   -6.8076457  
H    2.6812334   -0.8925630  -11.5793074  
H    5.3949943   -2.5414670  -13.2706275  
H    5.8696829   -4.0842985   -9.2117969  
C    0.0000000    0.0000000    1.4700000  
C    1.0662921    0.0000102    2.3034270  
C    0.4961870   -0.0000064    3.6418889  
C   -0.9663858    0.0000850    3.4240247  
N   -1.2632773    0.0000084    2.1528658  
C   -1.8985362    0.0000517    4.5177257  
C   -1.3925775   -0.0004564    5.7720543  
O   -2.1456383   -0.0005410    6.8851312  
C    0.0786232   -0.0009323    6.0245000  
O    0.4683759   -0.0012588    7.1921102  
C    1.0143166   -0.0008442    4.8859032  
H    2.1107198   -0.0000632    2.0421868  
H   -2.9622183    0.0003270    4.3293377  
H   -1.5042274   -0.0009692    7.6184419  
H    2.0724152   -0.0013148    5.1109744  
