60

C    1.1188647    0.0008220   -0.8003810  
C    0.0000000    0.0000000    0.0000000  
C   -1.1323857    0.0008906   -0.8673531  
C   -0.6382656    0.0019688   -2.1969283  
N    0.7324022    0.0038483   -2.1202241  
C   -1.4770910    0.0027330   -3.3154815  
C   -2.8395466    0.0020966   -3.0876864  
O   -3.7039193    0.0024451   -4.1440354  
C   -3.3517866    0.0013950   -1.7684337  
O   -4.7300490    0.0012388   -1.7073133  
C   -2.5248538    0.0009137   -0.6644825  
H   -1.1067557    0.0037002   -4.3313812  
H   -4.5940023    0.0021860   -3.7685143  
H   -4.9934602    0.0007284   -0.7819922  
H   -2.9462578    0.0005614    0.3339651  
H    2.1619898    0.0009347   -0.5342068  
C    4.5154620   -2.1146769   -2.8156723  
C    4.7985775   -1.6646945   -4.0652469  
C    3.7280659   -0.7729181   -4.4441602  
C    2.7913710   -0.7399863   -3.3047267  
N    3.3260543   -1.5745778   -2.3505461  
C    1.6478443   -0.0100099   -3.2703000  
C    1.3174733    0.7969146   -4.4331686  
O    0.3100037    1.4889664   -4.4992699  
C    2.2949966    0.7769793   -5.6513050  
O    2.0272083    1.4520889   -6.6360777  
C    3.4969333   -0.0492780   -5.5706859  
H    5.6590342   -1.9276282   -4.6543936  
H    4.1686932   -0.0573917   -6.4182684  
H    2.9164729   -1.7608871   -1.4535629  
C    8.2973871   -4.2416279   -3.4912910  
C    8.3956943   -4.9057163   -2.3108685  
C    7.2369161   -4.5464381   -1.5279330  
C    6.4497982   -3.6119230   -2.3549262  
N    7.1469605   -3.4685991   -3.5323441  
C    5.2792734   -3.0432592   -1.9699613  
C    4.7601408   -3.3734941   -0.6531538  
O    3.7140718   -2.9131089   -0.2148772  
C    5.5773577   -4.3608130    0.2396858  
O    5.1503869   -4.6460674    1.3503553  
C    6.8253891   -4.9094670   -0.2849559  
H    9.1894746   -5.5711604   -2.0215413  
H    7.3851500   -5.5925149    0.3394136  
H    8.9686846   -4.2517444   -4.3345864  
H    6.8626952   -2.8928675   -4.3035593  
C    2.5528530    2.1414826    2.8079335  
C    2.0663498    1.7338582    4.0032312  
C    0.9804344    0.8229586    3.6752840  
C    0.9495562    0.7966882    2.1971295  
N    1.8690446    1.5676019    1.6831036  
C    0.0000000    0.0000000    1.4700000  
C   -0.8785127   -0.7372425    2.1869543  
O   -1.8187535   -1.5261249    1.6395491  
C   -0.8723269   -0.7321790    3.6796354  
O   -1.7010379   -1.4274584    4.2670412  
C    0.1115397    0.0933559    4.4024240  
H    2.4028853    2.0163452    4.9860947  
H   -2.2861435   -1.9184361    2.3990168  
H    0.0832434    0.0693689    5.4835595  
H    3.3664920    2.8238276    2.6198634  
