58

C   -3.2798084   -0.0018605   -1.4499647  
C   -2.5571148   -0.0015504   -2.5996554  
C   -1.1637434   -0.0006070   -2.2210361  
C   -1.1336963   -0.0004206   -0.7459471  
N   -2.4483510   -0.0008089   -0.3402723  
C    0.0000000    0.0000000    0.0000000  
C    1.2757367    0.0005147   -0.6964425  
O    2.3524597    0.0009787   -0.1142323  
C    1.2676491    0.0005804   -2.2584088  
O    2.3355763    0.0013184   -2.8557306  
C   -0.0181567   -0.0001827   -2.9516299  
H   -2.9547354   -0.0017559   -3.5989102  
H   -0.0150793   -0.0003372   -4.0331635  
H   -2.7563618   -0.0023540    0.6148064  
C   -4.7390841   -0.0028037   -1.2727278  
C   -5.6949928   -0.0037645   -2.2307553  
C   -6.9549534   -0.0043842   -1.5034314  
C   -6.5623368   -0.0037653   -0.0777962  
N   -5.2646563   -0.0027573    0.0636666  
C   -7.5356703   -0.0040700    0.9794209  
C   -8.8418522   -0.0045639    0.6283871  
O   -9.8560134   -0.0048997    1.5101570  
C   -9.2698379   -0.0048238   -0.8016441  
O  -10.4759222   -0.0053984   -1.0477756  
C   -8.2523633   -0.0045465   -1.8677914  
H   -5.5615844   -0.0039309   -3.2990613  
H   -7.2204094   -0.0038095    2.0126295  
H  -10.6613089   -0.0051921    0.9618401  
C   -8.1944639   -0.7093194   -4.2885243  
C   -8.7293354   -0.0046641   -3.2582579  
C   -9.8473569    0.7374152   -3.7913456  
C   -9.9205325    0.4049211   -5.2269228  
N   -8.8909380   -0.4761603   -5.4646624  
C  -10.8450827    0.9043705   -6.0856792  
C  -11.8339663    1.8314312   -5.5610819  
O  -12.7077821    2.3358343   -6.2541356  
C  -11.7751539    2.1978675   -4.0438240  
O  -12.6022875    2.9775556   -3.5908359  
C  -10.7318525    1.5948711   -3.2181311  
H  -10.8813201    0.6474257   -7.1352393  
H  -10.6981376    1.8536215   -2.1685432  
H   -7.3499555   -1.3791658   -4.2875719  
H   -8.6794230   -0.8880957   -6.3549528  
C    0.0000000    0.0000000    1.4700000  
C    1.0662921    0.0000102    2.3034270  
C    0.4961870   -0.0000064    3.6418889  
C   -0.9663858    0.0000850    3.4240247  
N   -1.2632773    0.0000084    2.1528658  
C   -1.8985362    0.0000517    4.5177257  
C   -1.3925775   -0.0004564    5.7720543  
O   -2.1456383   -0.0005410    6.8851312  
C    0.0786232   -0.0009323    6.0245000  
O    0.4683759   -0.0012588    7.1921102  
C    1.0143166   -0.0008442    4.8859032  
H    2.1107198   -0.0000632    2.0421868  
H   -2.9622183    0.0003270    4.3293377  
H   -1.5042274   -0.0009692    7.6184419  
H    2.0724152   -0.0013148    5.1109744  
