62

C    0.0000000    0.0000000    0.0000000  
C    1.0521664   -0.0011921   -0.8862344  
C    0.4917216   -0.0011967   -2.1979133  
C   -0.9187430    0.0003161   -2.0478681  
N   -1.1833168   -0.0009394   -0.7007912  
C   -1.7951703    0.0010378   -3.1372090  
C   -1.2375839    0.0005241   -4.4010423  
O   -2.0474218    0.0015389   -5.4997578  
C    0.1673581   -0.0013572   -4.5711965  
O    0.5673522   -0.0020702   -5.8915550  
C    1.0325771   -0.0023434   -3.4969894  
H    2.0953055   -0.0030685   -0.6200562  
H   -2.0989775    0.0102406   -0.2891824  
H   -1.4634887    0.0006520   -6.2693594  
H    1.5290703   -0.0033183   -5.9180043  
H    2.1042146   -0.0039647   -3.6584458  
C   -4.5382392    2.1273517   -0.3186953  
C   -3.4269627    1.6642271   -0.9843129  
C   -3.8900492    0.7769120   -2.0005917  
C   -5.3047959    0.7380749   -1.9061943  
N   -5.6653122    1.5677519   -0.8735855  
C   -6.0984767   -0.0377155   -2.7564929  
C   -5.4522261   -0.7877327   -3.7198273  
O   -6.1789733   -1.5628659   -4.5765769  
C   -4.0415011   -0.7624869   -3.8295262  
O   -3.5480044   -1.5636985   -4.8384183  
C   -3.2578654    0.0024088   -2.9908507  
H   -2.4078412    1.9320349   -0.7637137  
H   -7.1771659   -0.0717731   -2.6896192  
H   -5.5421648   -1.9965717   -5.1593627  
H   -2.5888302   -1.4891782   -4.8443296  
H   -4.6159757    2.8114668    0.5088931  
C   -7.5823382    3.0159303   -0.0569386  
C   -7.0442502    1.8346196   -0.4397509  
C   -8.1314122    0.8741378   -0.3299683  
C   -9.2840910    1.6687237    0.1460037  
N   -8.9682937    2.9249437    0.3077842  
C  -10.5710840    1.0752370    0.3837204  
C  -10.7007642   -0.2516468    0.1559126  
O  -11.8433520   -0.9359060    0.3356977  
C   -9.5563063   -1.0805614   -0.3250015  
O   -9.7464216   -2.2824063   -0.5111359  
C   -8.2461517   -0.4484745   -0.5614037  
H  -11.3959176    1.6797950    0.7316697  
H  -11.6237392   -1.8534368    0.0926748  
H   -7.4425806   -1.0834402   -0.9097160  
H   -7.0990858    3.9782980    0.0004145  
C    3.1301144    0.0010313    3.1728260  
C    2.5367765    0.0002768    1.9564670  
C    1.1089900   -0.0001027    2.2356185  
C    1.0177864    0.0004150    3.7115134  
N    2.1993570    0.0011613    4.2663826  
C   -0.2459220    0.0002880    4.3957118  
C   -1.3675327    0.0000606    3.6398520  
O   -2.6129319   -0.0000866    4.1448486  
C   -1.3083589   -0.0000910    2.1483229  
O   -2.3693264   -0.0004206    1.5241687  
C    0.0000000    0.0000000    1.4700000  
H    3.0096015    0.0001008    0.9892483  
H   -0.2829642    0.0004689    5.4753125  
H   -3.1967446   -0.0002093    3.3649027  
H    4.1849273    0.0015113    3.3971983  
