58

C    3.3321174    0.0004717   -1.3379335  
C    2.6974184    0.0000121   -2.5332312  
C    1.2800440   -0.0002115   -2.2052839  
C    1.2395035    0.0000645   -0.7271295  
N    2.4394064    0.0005461   -0.2131037  
C    0.0000000    0.0000000    0.0000000  
C   -1.1468696    0.0000636   -0.7169542  
O   -2.3742199    0.0000073   -0.1695491  
C   -1.1388768    0.0001610   -2.2096354  
O   -2.2206230    0.0000908   -2.7970413  
C    0.1454524    0.0001820   -2.9324241  
H    3.1367989   -0.0000646   -3.5160945  
H   -2.9844342    0.0001027   -0.9290167  
C    4.7795904    0.0008677   -1.0815724  
C    5.7862022    0.0008773   -1.9861784  
C    7.0047292    0.0013414   -1.1913883  
C    6.5351377    0.0016828    0.2107769  
N    5.2316826    0.0013265    0.2814348  
C    7.4495160    0.0021408    1.3193791  
C    8.7728596    0.0018637    1.0399231  
O    9.7375497    0.0022378    1.9755591  
C    9.2780077    0.0011453   -0.3647071  
O   10.4956955    0.0010510   -0.5448615  
C    8.3200399    0.0007293   -1.4846275  
H    5.7111083    0.0005131   -3.0601603  
H    7.0785137    0.0025898    2.3339070  
H   10.5714818    0.0018717    1.4718634  
H    8.7261893    0.0000960   -2.4872600  
C    2.4320892   -2.0124020   -6.1859208  
C    2.0200842   -1.6305786   -4.9546438  
C    0.9177879   -0.7123201   -5.1959804  
C    0.7970297   -0.6538274   -6.6685904  
N    1.6820136   -1.4139316   -7.2542822  
C   -0.1937168    0.1588225   -7.3190579  
C   -1.0262430    0.8799466   -6.5340646  
O   -1.9968160    1.6808100   -7.0059188  
C   -0.9297028    0.8417626   -5.0449764  
O   -1.7202572    1.5240004   -4.3932128  
C    0.0950453    0.0004357   -4.4015596  
H    2.4153107   -1.9345886   -4.0004690  
H   -0.2592089    0.1826846   -8.3970433  
H   -2.4168999    2.0561008   -6.2110358  
H    3.2315443   -2.6908671   -6.4379722  
C    0.0000000    0.0000000    1.4700000  
C    1.0662921    0.0000102    2.3034270  
C    0.4961870   -0.0000064    3.6418889  
C   -0.9663858    0.0000850    3.4240247  
N   -1.2632773    0.0000084    2.1528658  
C   -1.8985362    0.0000517    4.5177257  
C   -1.3925775   -0.0004564    5.7720543  
O   -2.1456383   -0.0005410    6.8851312  
C    0.0786232   -0.0009323    6.0245000  
O    0.4683759   -0.0012588    7.1921102  
C    1.0143166   -0.0008442    4.8859032  
H    2.1107198   -0.0000632    2.0421868  
H   -2.9622183    0.0003270    4.3293377  
H   -1.5042274   -0.0009692    7.6184419  
H    2.0724152   -0.0013148    5.1109744  
