58

C    0.0000000    0.0000000    0.0000000  
C    0.5729351    0.8848835   -0.8560385  
C    0.2773216    0.4283856   -2.1935953  
C   -0.5205440   -0.8038029   -2.0455735  
N   -0.6529141   -1.0090268   -0.6915974  
C   -0.9976652   -1.5398906   -3.0810616  
C   -0.7057045   -1.0885420   -4.4314611  
O   -1.0906628   -1.6824801   -5.4301328  
C    0.1378057    0.2136830   -4.6117572  
O    0.3901967    0.6032796   -5.7439117  
C    0.5962380    0.9213646   -3.4189125  
H    1.1382912    1.7576823   -0.5817976  
H   -1.5811171   -2.4407235   -2.9507074  
H   -1.1492664   -1.7729047   -0.2706800  
C    4.0777602    2.3622646   -1.2302353  
C    4.3479695    3.5288336   -1.8608563  
C    3.3343742    3.6376660   -2.8987771  
C    2.5130398    2.4174313   -2.7470486  
N    2.9439671    1.6659927   -1.7705081  
C    1.3890724    2.1458695   -3.6002995  
C    1.0985777    3.0523124   -4.5611884  
O    0.0787140    2.9271883   -5.4273657  
C    1.9083060    4.2936030   -4.7392316  
O    1.5864712    5.0745107   -5.6346787  
C    3.0564246    4.5494427   -3.8513721  
H    0.1279848    3.7243796   -5.9852281  
H    3.6175139    5.4601159   -4.0128766  
H    4.6031160    1.9194625   -0.3990309  
C    8.6475050    3.2149545   -0.7295216  
C    7.3813732    2.8744984   -1.0650510  
C    6.6863199    4.1405477   -1.2397499  
C    7.7113851    5.1697562   -0.9630660  
N    8.8630463    4.6331772   -0.6634838  
C    7.4168427    6.5746255   -1.0314383  
C    6.1556921    6.9349390   -1.3616027  
O    5.7412564    8.2093465   -1.4624445  
C    5.0990710    5.9198923   -1.6468987  
O    3.9726987    6.3198056   -1.9411356  
C    5.4260492    4.4849302   -1.5701281  
H    6.9699206    1.8862731   -1.1799143  
H    8.1853133    7.3049409   -0.8240703  
H    4.8013484    8.1455055   -1.7107367  
H    9.4768422    2.5596963   -0.5154896  
C    3.3321173   -0.0004715    2.8079335  
C    2.6974184   -0.0000116    4.0032312  
C    1.2800439    0.0002118    3.6752840  
C    1.2395035   -0.0000644    2.1971295  
N    2.4394063   -0.0005460    1.6831036  
C    0.0000000    0.0000000    1.4700000  
C   -1.1468701   -0.0000635    2.1869543  
O   -2.3742202   -0.0000073    1.6395491  
C   -1.1388768   -0.0001607    3.6796354  
O   -2.2206231   -0.0000905    4.2670412  
C    0.1454524   -0.0001816    4.4024240  
H    3.1367986    0.0000651    4.9860947  
H   -2.9844344   -0.0001026    2.3990168  
H    0.1083576   -0.0003682    5.4835595  
H    4.3940039   -0.0007619    2.6198634  
