58

C    3.2798087    0.0005854   -1.4499645  
C    2.5571147    0.0005562   -2.5996549  
C    1.1637437    0.0001546   -2.2210357  
C    1.1336965   -0.0000200   -0.7459472  
N    2.4483515   -0.0001430   -0.3402720  
C    0.0000000    0.0000000    0.0000000  
C   -1.2757368   -0.0000187   -0.6964416  
O   -2.3524594   -0.0000640   -0.1142319  
C   -1.2676493   -0.0000873   -2.2584083  
O   -2.3355756   -0.0004101   -2.8557301  
C    0.0181562    0.0001759   -2.9516296  
H    0.0150796    0.0003316   -4.0331632  
H    4.3498548    0.0008608   -1.3200013  
H    2.7563625    0.0012821    0.6148066  
C    5.9816658   -2.0880614   -4.4453408  
C    5.0429440   -1.6267505   -3.5792758  
C    4.1873012   -0.7324976   -4.3229310  
C    4.7081987   -0.7105035   -5.7031380  
N    5.7962508   -1.5525088   -5.7108624  
C    4.1727811    0.0175973   -6.7155125  
C    3.0057190    0.8342492   -6.4264093  
O    2.4508367    1.5255865   -7.2704821  
C    2.4373473    0.8263672   -4.9715219  
O    1.4553092    1.5102017   -4.7161158  
C    3.1006060    0.0006259   -3.9654943  
H    4.9595396   -1.8834604   -2.5382391  
H    6.7934419   -2.7740415   -4.2655059  
H    6.3664583   -1.7493845   -6.5128298  
C    4.7131615    0.0201854   -8.0825830  
C    5.7810123   -0.6619457   -8.5579483  
C    5.8659124   -0.2940870   -9.9629294  
C    4.7412851    0.6431018  -10.1714344  
N    4.0620226    0.8312572   -9.0727124  
C    4.4776677    1.2426464  -11.4505502  
C    5.3003953    0.9208790  -12.4747182  
O    5.1718269    1.4056842  -13.7215042  
C    6.4441258   -0.0214852  -12.2958577  
O    7.1518794   -0.2690460  -13.2720848  
C    6.6937362   -0.6234221  -10.9740057  
H    6.4308926   -1.3319229   -8.0214204  
H    3.6486311    1.9240207  -11.5743928  
H    5.8997097    0.9961010  -14.2230825  
H    7.5323868   -1.3010025  -10.8858007  
C    2.3971438    2.0127888    3.1728260  
C    1.9431056    1.6308205    1.9564670  
C    0.8496017    0.7127664    2.2356185  
C    0.7794028    0.6545384    3.7115134  
N    1.6840587    1.4146091    4.2663826  
C   -0.1885723   -0.1578550    4.3957118  
C   -1.0476298   -0.8789867    3.6398520  
O   -2.0015663   -1.6796266    4.1448486  
C   -1.0022026   -0.8410666    2.1483229  
O   -1.8147390   -1.5232959    1.5241687  
C    0.0000000    0.0000000    1.4700000  
H    2.3054237    1.9346118    0.9892483  
H   -0.2170646   -0.1815267    5.4753125  
H   -2.4487139   -2.0549881    3.3649027  
H    3.2048689    2.6911772    3.3971983  
