58

C    3.2798087    0.0005848   -1.4499654  
C    2.5571146    0.0005558   -2.5996556  
C    1.1637437    0.0001542   -2.2210367  
C    1.1336967   -0.0000204   -0.7459475  
N    2.4483516   -0.0001432   -0.3402725  
C    0.0000000    0.0000000    0.0000000  
C   -1.2757367   -0.0000191   -0.6964423  
O   -2.3524593   -0.0000640   -0.1142321  
C   -1.2676494   -0.0000877   -2.2584086  
O   -2.3355759   -0.0004105   -2.8557301  
C    0.0181563    0.0001752   -2.9516303  
H    2.9547356    0.0006065   -3.5989110  
H    4.3498551    0.0008604   -1.3200026  
H    2.7563628    0.0012820    0.6148059  
C    2.4107292   -2.0068255   -6.1315649  
C    1.9593059   -1.6260421   -4.9138619  
C    0.8629756   -0.7103798   -5.1897639  
C    0.7884491   -0.6520953   -6.6654440  
N    1.6932089   -1.4100741   -7.2229985  
C   -0.1832710    0.1582441   -7.3467641  
C   -1.0417745    0.8773559   -6.5883552  
O   -1.9989204    1.6759470   -7.0905160  
C   -0.9920202    0.8393223   -5.0969669  
O   -1.8042913    1.5196548   -4.4704018  
C    0.0139740    0.0003870   -4.4216245  
H    2.3250484   -1.9291670   -3.9477234  
H   -0.2148871    0.1820077   -8.4262757  
H   -2.4446797    2.0502022   -6.3092447  
C    5.2982598   -4.4152433   -3.7386313  
C    4.2901966   -3.5724969   -4.0629242  
C    4.2674673   -3.5570766   -5.5174843  
C    5.3589169   -4.4712472   -5.9170017  
N    5.9666998   -4.9773756   -4.8785304  
C    5.6664209   -4.7319975   -7.2963267  
C    4.9173575   -4.1081621   -8.2339130  
O    5.0934886   -4.2589118   -9.5576550  
C    3.8087400   -3.1801961   -7.8624207  
O    3.1683603   -2.6469910   -8.7684154  
C    3.5129285   -2.9290541   -6.4406797  
H    3.6420148   -3.0285676   -3.3972838  
H    6.4697587   -5.4045057   -7.5595610  
H    4.4137898   -3.6917098   -9.9644042  
H    5.6377874   -4.6969341   -2.7545859  
C    2.3971438    2.0127888    3.1728260  
C    1.9431056    1.6308205    1.9564670  
C    0.8496017    0.7127664    2.2356185  
C    0.7794028    0.6545384    3.7115134  
N    1.6840587    1.4146091    4.2663826  
C   -0.1885723   -0.1578550    4.3957118  
C   -1.0476298   -0.8789867    3.6398520  
O   -2.0015663   -1.6796266    4.1448486  
C   -1.0022026   -0.8410666    2.1483229  
O   -1.8147390   -1.5232959    1.5241687  
C    0.0000000    0.0000000    1.4700000  
H    2.3054237    1.9346118    0.9892483  
H   -0.2170646   -0.1815267    5.4753125  
H   -2.4487139   -2.0549881    3.3649027  
H    3.2048689    2.6911772    3.3971983  
