58

C    3.2573672   -0.0002917   -1.5109378  
C    2.5379470   -0.0001709   -0.3591962  
C    1.1435042    0.0000332   -0.7338496  
C    1.1092607   -0.0000081   -2.2088474  
N    2.4227563    0.0001910   -2.6182606  
C   -0.0265531   -0.0002524   -2.9515660  
C   -1.3003036   -0.0002638   -2.2514978  
O   -2.3786786   -0.0004132   -2.8306429  
C   -1.2877725    0.0000312   -0.6895605  
O   -2.3539955    0.0003308   -0.0892036  
C    0.0000000    0.0000000    0.0000000  
H    2.9384092   -0.0000367    0.6389238  
H   -0.0296287   -0.0004085   -4.0327227  
H    4.3270397   -0.0004763   -1.6439438  
C    5.7040776   -2.1117454   -4.6322106  
C    5.5266124   -1.6490479   -5.8965255  
C    4.3947082   -0.7532601   -5.8619875  
C    3.9239255   -0.7318315   -4.4638835  
N    4.7594836   -1.5762333   -3.7698247  
C    2.8699644   -0.0020524   -4.0185821  
C    2.1511682    0.8167848   -4.9805454  
O    1.1885422    1.5096471   -4.6779000  
C    2.6322123    0.8091504   -6.4665948  
O    2.0346741    1.4943468   -7.2855670  
C    3.7812713   -0.0180914   -6.8260208  
H    4.1081499   -0.0176452   -7.8569790  
H    6.4453145   -2.7990533   -4.2579576  
H    4.6944966   -1.7716426   -2.7876646  
C    6.3386557   -2.0003802   -7.0704302  
C    7.4019786   -2.8355708   -7.1285640  
C    7.8190024   -2.8154119   -8.5221868  
C    6.8715832   -1.8910568   -9.1813895  
N    6.0015516   -1.4101077   -8.3353866  
C    6.9486897   -1.5964438  -10.5857907  
C    7.9280002   -2.1976216  -11.2991444  
O    8.1171085   -2.0144189  -12.6169897  
C    8.8996367   -3.1350932  -10.6625677  
O    9.7652226   -3.6463726  -11.3729023  
C    8.7996989   -3.4211311   -9.2203060  
H    7.8482845   -3.3960295   -6.3249639  
H    6.2429943   -0.9171941  -11.0413377  
H    8.8851454   -2.5719243  -12.8371251  
H    9.5226214   -4.1056684   -8.7971966  
C    0.0000000    0.0000000    1.4700000  
C    1.0662921    0.0000102    2.3034270  
C    0.4961870   -0.0000064    3.6418889  
C   -0.9663858    0.0000850    3.4240247  
N   -1.2632773    0.0000084    2.1528658  
C   -1.8985362    0.0000517    4.5177257  
C   -1.3925775   -0.0004564    5.7720543  
O   -2.1456383   -0.0005410    6.8851312  
C    0.0786232   -0.0009323    6.0245000  
O    0.4683759   -0.0012588    7.1921102  
C    1.0143166   -0.0008442    4.8859032  
H    2.1107198   -0.0000632    2.0421868  
H   -2.9622183    0.0003270    4.3293377  
H   -1.5042274   -0.0009692    7.6184419  
H    2.0724152   -0.0013148    5.1109744  
