64

C    3.3041270    0.0001178   -1.5420432  
C    2.5845372   -0.0004779   -0.3695853  
C    1.2040007   -0.0000006   -0.7283591  
C    1.1422373    0.0006039   -2.1454374  
N    2.4348636    0.0026110   -2.6077466  
C   -0.0655186    0.0008800   -2.8497915  
C   -1.2321770    0.0002326   -2.1101397  
O   -2.4392818    0.0001149   -2.7472515  
C   -1.1911209   -0.0000006   -0.6955262  
O   -2.4371522   -0.0002319   -0.1032858  
C    0.0000000    0.0000000    0.0000000  
H    3.0031535   -0.0000661    0.6222580  
H    2.7054625   -0.0071097   -3.5745263  
H   -3.1132993   -0.0000646   -2.0551781  
H   -2.3200286   -0.0004070    0.8516413  
C    5.7158603    0.0004166   -0.7739107  
C    4.7577214    0.0005130   -1.7610465  
C    5.4466892    0.0027835   -3.0100132  
C    6.8350415    0.0037182   -2.7194894  
N    6.9633980    0.0041888   -1.3526897  
C    7.8161414    0.0056329   -3.7155959  
C    7.3879064    0.0063148   -5.0289095  
O    8.3036920    0.0078228   -6.0410116  
C    6.0070628    0.0057777   -5.3388884  
O    5.7412875    0.0070016   -6.6926630  
C    5.0386300    0.0041623   -4.3567167  
H    7.8332611   -0.0056984   -0.8514698  
H    8.8758770    0.0064977   -3.5007443  
H    7.7997542    0.0083640   -6.8652154  
H    4.7870502    0.0065093   -6.8152781  
H    3.9885434    0.0039690   -4.6246664  
H    5.6080637   -0.0005987    0.2972281  
C    0.6364680   -0.6837594   -5.1902200  
C   -0.1387086    0.0017020   -4.3179679  
C   -1.0701784    0.7476899   -5.1500536  
C   -0.7049032    0.3845507   -6.5361590  
N    0.2947985   -0.4543147   -6.5660078  
C   -1.4020130    0.9216209   -7.6722396  
C   -2.4181043    1.7820429   -7.4344017  
O   -3.1544588    2.3589952   -8.3992581  
C   -2.8109001    2.1677925   -6.0469326  
O   -3.7454947    2.9562145   -5.9050022  
C   -2.0803718    1.6033195   -4.8981843  
H   -1.1136369    0.6390103   -8.6741782  
H   -3.7960384    2.9156439   -7.9221098  
H   -2.3957805    1.9077871   -3.9092215  
H    1.4500361   -1.3562238   -4.9691494  
C    0.8676693    0.7151171    2.2619005  
C    0.5875920    0.4624972    3.5848544  
C   -0.5048400   -0.4542819    3.6114698  
C   -0.8517165   -0.7276451    2.2635546  
N    0.0000000    0.0000000    1.4700000  
C   -1.8902865   -1.5946756    1.9108239  
C   -2.5912627   -2.1969500    2.9375057  
O   -3.6148162   -3.0527051    2.6493466  
C   -2.2603868   -1.9365747    4.2886322  
O   -3.0513550   -2.6123276    5.1947621  
C   -1.2361111   -1.0811317    4.6373480  
H    1.1060808    0.8876438    4.4271209  
H   -2.1597133   -1.8070987    0.8854031  
H   -3.9636755   -3.3565188    3.4974381  
H   -2.7621927   -2.3810384    6.0827341  
H   -1.0058879   -0.9010589    5.6809233  
H    1.6167816    1.3499334    1.8205408  
