62

C    3.3041272    0.0001177   -1.5420431  
C    2.5845370   -0.0004780   -0.3695856  
C    1.2040004   -0.0000008   -0.7283590  
C    1.1422372    0.0006037   -2.1454372  
N    2.4348639    0.0026111   -2.6077465  
C   -0.0655183    0.0008798   -2.8497916  
C   -1.2321770    0.0002324   -2.1101397  
O   -2.4392813    0.0001147   -2.7472520  
C   -1.1911211   -0.0000007   -0.6955262  
O   -2.4371526   -0.0002320   -0.1032861  
C    0.0000000    0.0000000    0.0000000  
H    3.0031535   -0.0000661    0.6222581  
H    2.7054628   -0.0071098   -3.5745262  
H   -3.1132988   -0.0000650   -2.0551783  
H   -2.3200283   -0.0004072    0.8516412  
C    2.3136480   -2.1180444   -5.9171372  
C    1.6624047   -1.6181595   -7.0209781  
C    0.6419633   -0.7441447   -6.5420230  
C    0.7194920   -0.7504914   -5.1257345  
N    1.7437753   -1.5963711   -4.7793976  
C   -0.1387085    0.0017018   -4.3179686  
C   -1.0923534    0.7746129   -4.9514884  
O   -1.9557355    1.5288503   -4.2107383  
C   -1.1856790    0.7938841   -6.3634854  
O   -2.1870622    1.6126759   -6.8432319  
C   -0.3395509    0.0518697   -7.1609867  
H    1.8935966   -1.8552468   -8.0453476  
H    2.0414319   -1.7936221   -3.8410618  
H   -2.5301612    1.9837417   -4.8403211  
H   -2.1819319    1.5683232   -7.8042785  
H   -0.4351250    0.0866800   -8.2399363  
H    3.1386333   -2.8065415   -5.8513304  
C    6.5771499   -0.0035571    1.3345534  
C    7.6645488   -0.0027620    0.5288602  
C    7.1290982   -0.0009888   -0.8238370  
C    5.6614001   -0.0010504   -0.6437062  
N    5.3318749   -0.0024719    0.6193855  
C    4.7577221    0.0005130   -1.7610465  
C    5.2958120    0.0024562   -3.0019292  
O    4.5716627    0.0040581   -4.1340272  
C    6.7730249    0.0029429   -3.2164073  
O    7.1927148    0.0046218   -4.3735928  
C    7.6790894    0.0012690   -2.0540951  
H    8.7019031   -0.0032208    0.8169075  
H    5.2317436    0.0052552   -4.8505772  
H    8.7426331    0.0018008   -2.2518451  
H    6.5493805   -0.0048792    2.4126075  
C    0.8681109    0.7263879    2.2709268  
C    0.6127770    0.5096195    3.5869401  
C   -0.4920590   -0.4175482    3.6542670  
C   -0.8620974   -0.7254003    2.2596025  
N    0.0000000    0.0000000    1.4700000  
C   -1.8641242   -1.5660088    1.8976294  
C   -2.6293522   -2.2103885    2.9520183  
O   -3.5512764   -2.9839180    2.7283916  
C   -2.2549728   -1.8987399    4.4361073  
O   -2.8923672   -2.4351063    5.3323774  
C   -1.1543735   -0.9755647    4.7012123  
H    1.1382914    0.9492124    4.4159191  
H   -2.1192137   -1.7782617    0.8686553  
H   -0.9013378   -0.7652422    5.7314848  
H    1.6172880    1.3558399    1.8188057  
