58

C    3.2573667   -0.0002917   -1.5109387  
C    2.5379466   -0.0001708   -0.3591965  
C    1.1435039    0.0000333   -0.7338496  
C    1.1092602   -0.0000079   -2.2088478  
N    2.4227556    0.0001913   -2.6182614  
C   -0.0265539   -0.0002519   -2.9515658  
C   -1.3003042   -0.0002636   -2.2514974  
O   -2.3786792   -0.0004127   -2.8306423  
C   -1.2877729    0.0000313   -0.6895599  
O   -2.3539955    0.0003308   -0.0892027  
C    0.0000000    0.0000000    0.0000000  
H    2.9384091   -0.0000368    0.6389234  
H   -0.0296299   -0.0004080   -4.0327229  
H    4.3270391   -0.0004762   -1.6439451  
C    5.7040760   -2.1117448   -4.6322123  
C    5.5266106   -1.6490474   -5.8965271  
C    4.3947065   -0.7532596   -5.8619888  
C    3.9239241   -0.7318311   -4.4638842  
N    4.7594826   -1.5762332   -3.7698261  
C    2.8699633   -0.0020522   -4.0185829  
C    2.1511670    0.8167852   -4.9805456  
O    1.1885412    1.5096475   -4.6779003  
C    2.6322106    0.8091512   -6.4665954  
O    2.0346721    1.4943476   -7.2855669  
C    3.7812694   -0.0180907   -6.8260217  
H    6.1207052   -1.9060837   -6.7553617  
H    6.4453131   -2.7990531   -4.2579595  
H    4.6944954   -1.7716423   -2.7876661  
C    4.2255542   -0.0174839   -8.2272752  
C    5.2541722   -0.6946941   -8.7994694  
C    5.2612565   -0.3445520  -10.2002502  
C    4.1444588    0.5989471  -10.3986514  
N    3.5566267    0.7550270   -9.1645598  
C    3.8170468    1.1635272  -11.5885061  
C    4.6179122    0.8187544  -12.7513819  
O    4.4030359    1.2743499  -13.8669821  
C    5.8053643   -0.1786542  -12.5644608  
O    6.4864924   -0.4766425  -13.5363286  
C    6.0605379   -0.7212541  -11.2324233  
H    5.9306377   -1.3633619   -8.2975811  
H    2.9939007    1.8534392  -11.7124469  
H    6.8847157   -1.4110440  -11.1114069  
H    2.7650046    1.3415137   -8.9737304  
C    0.0000000    0.0000000    1.4700000  
C    1.0662921    0.0000102    2.3034270  
C    0.4961870   -0.0000064    3.6418889  
C   -0.9663858    0.0000850    3.4240247  
N   -1.2632773    0.0000084    2.1528658  
C   -1.8985362    0.0000517    4.5177257  
C   -1.3925775   -0.0004564    5.7720543  
O   -2.1456383   -0.0005410    6.8851312  
C    0.0786232   -0.0009323    6.0245000  
O    0.4683759   -0.0012588    7.1921102  
C    1.0143166   -0.0008442    4.8859032  
H    2.1107198   -0.0000632    2.0421868  
H   -2.9622183    0.0003270    4.3293377  
H   -1.5042274   -0.0009692    7.6184419  
H    2.0724152   -0.0013148    5.1109744  
