58

C    3.2798085    0.0005857   -1.4499648  
C    2.5571144    0.0005565   -2.5996556  
C    1.1637435    0.0001548   -2.2210363  
C    1.1336962   -0.0000199   -0.7459473  
N    2.4483513   -0.0001429   -0.3402720  
C    0.0000000    0.0000000    0.0000000  
C   -1.2757367   -0.0000186   -0.6964415  
O   -2.3524593   -0.0000638   -0.1142316  
C   -1.2676494   -0.0000872   -2.2584081  
O   -2.3355762   -0.0004099   -2.8557297  
C    0.0181558    0.0001761   -2.9516297  
H    0.0150791    0.0003319   -4.0331632  
H    4.3498548    0.0008609   -1.3200024  
H    2.7563625    0.0012823    0.6148061  
C    4.1687668   -0.6842814   -4.4361451  
C    3.1006056    0.0006262   -3.9654951  
C    2.5984210    0.7451004   -5.1100775  
C    3.5069654    0.3817818   -6.2187396  
N    4.4294532   -0.4558756   -5.8297194  
C    3.3444614    0.9174871   -7.5422569  
C    2.3206216    1.7767747   -7.7489244  
O    2.0512367    2.3523916   -8.9330430  
C    1.3864580    2.1626710   -6.6504787  
O    0.4766648    2.9500148   -6.9104517  
C    1.5741206    1.5996090   -5.3015277  
H    1.2688867    2.9084717   -8.7661407  
H    0.8760107    1.9041376   -4.5333249  
H    4.8175337   -1.3556519   -3.8963890  
C    4.7910199   -0.6901358   -8.8697119  
C    4.2683082    0.5327706   -8.6190119  
C    4.8202078    1.3955665   -9.6522052  
C    5.6785626    0.5047986  -10.4623558  
N    5.6653700   -0.7190624  -10.0085065  
C    6.4137683    0.9848596  -11.5999412  
C    6.2964933    2.2951487  -11.9141447  
O    6.9254486    2.8780676  -12.9488724  
C    5.4378612    3.2193956  -11.1162238  
O    5.3783217    4.3999428  -11.4597114  
C    4.6936828    2.7028892   -9.9537505  
H    7.0336121    0.3116226  -12.1739231  
H    6.6461056    3.8107995  -12.9152380  
H    4.0826921    3.4045761   -9.4018841  
H    4.6263416   -1.6068987   -8.3262047  
C    0.0000000    0.0000000    1.4700000  
C    1.0662921    0.0000102    2.3034270  
C    0.4961870   -0.0000064    3.6418889  
C   -0.9663858    0.0000850    3.4240247  
N   -1.2632773    0.0000084    2.1528658  
C   -1.8985362    0.0000517    4.5177257  
C   -1.3925775   -0.0004564    5.7720543  
O   -2.1456383   -0.0005410    6.8851312  
C    0.0786232   -0.0009323    6.0245000  
O    0.4683759   -0.0012588    7.1921102  
C    1.0143166   -0.0008442    4.8859032  
H    2.1107198   -0.0000632    2.0421868  
H   -2.9622183    0.0003270    4.3293377  
H   -1.5042274   -0.0009692    7.6184419  
H    2.0724152   -0.0013148    5.1109744  
