58

C   -4.2186865    2.1401321   -0.0437260  
C   -5.4804250    1.7323141   -0.3144295  
C   -5.3466896    0.8217463   -1.4411417  
C   -3.8965664    0.7958597   -1.7293372  
N   -3.2302259    1.5666944   -0.9133753  
C   -3.3460097   -0.0004262   -2.7913647  
C   -4.2050299   -0.7376505   -3.5315796  
O   -3.8298203   -1.5261787   -4.5530893  
C   -5.6737587   -0.7329691   -3.2651710  
O   -6.3965397   -1.4282090   -3.9789288  
C   -6.2140638    0.0921565   -2.1701078  
H   -6.3895960    2.0144737    0.1884321  
H   -4.6590776   -1.9185768   -4.8809748  
H   -7.2835615    0.0679007   -2.0094317  
C   -6.5207674    4.2899295    2.9673021  
C   -5.5577037    4.9746528    3.6270301  
C   -4.3157896    4.6083045    2.9637515  
C   -4.7255831    3.6688911    1.8978449  
N   -6.0169830    3.4784502    1.8949784  
C   -3.7730313    3.0700586    1.0039035  
C   -2.4703582    3.3952289    1.1671245  
O   -1.4748222    2.9114577    0.4049471  
C   -2.0254020    4.3404734    2.2332803  
O   -0.8236177    4.5908808    2.3240035  
C   -3.0216851    4.9415459    3.1377452  
H   -5.6755244    5.6455576    4.4607441  
H   -0.6671202    3.3236412    0.7611429  
H   -2.6588374    5.6214652    3.8968780  
H   -7.5827170    4.2900877    3.1550145  
C    0.0000000    0.0000000    0.0000000  
C    1.0662919   -0.0000103   -0.8334272  
C    0.4961868    0.0000066   -2.1718889  
C   -0.9663860   -0.0000849   -1.9540248  
N   -1.2632775   -0.0000084   -0.6828659  
C   -1.8985364   -0.0000515   -3.0477258  
C   -1.3925778    0.0004567   -4.3020543  
O   -2.1456385    0.0005412   -5.4151314  
C    0.0786229    0.0009326   -4.5544999  
O    0.4683756    0.0012594   -5.7221104  
C    1.0143162    0.0008443   -3.4159034  
H    2.1107195    0.0000631   -0.5721869  
H   -1.5042277    0.0009692   -6.1484420  
H    2.0724151    0.0013151   -3.6409746  
C    3.3321173   -0.0004715    2.8079335  
C    2.6974184   -0.0000116    4.0032312  
C    1.2800439    0.0002118    3.6752840  
C    1.2395035   -0.0000644    2.1971295  
N    2.4394063   -0.0005460    1.6831036  
C    0.0000000    0.0000000    1.4700000  
C   -1.1468701   -0.0000635    2.1869543  
O   -2.3742202   -0.0000073    1.6395491  
C   -1.1388768   -0.0001607    3.6796354  
O   -2.2206231   -0.0000905    4.2670412  
C    0.1454524   -0.0001816    4.4024240  
H    3.1367986    0.0000651    4.9860947  
H   -2.9844344   -0.0001026    2.3990168  
H    0.1083576   -0.0003682    5.4835595  
H    4.3940039   -0.0007619    2.6198634  
