62

C    1.1243407    0.0100058   -0.7919007  
C    0.7474066    0.0234635   -2.1148546  
C   -0.6787393    0.0234411   -2.1414696  
C   -1.1201748    0.0098460   -0.7935545  
N    0.0000000    0.0000000    0.0000000  
C   -2.4730817    0.0063415   -0.4408239  
C   -3.3971966    0.0170578   -1.4675052  
O   -4.7313521    0.0145698   -1.1793460  
C   -2.9763662    0.0303156   -2.8186315  
O   -4.0166492    0.0394646   -3.7247614  
C   -1.6418577    0.0335069   -3.1673477  
H   -2.8160163   -0.0041447    0.5845971  
H   -5.1938830    0.0230251   -2.0274365  
H   -3.6464689    0.0481864   -4.6127337  
H   -1.3497486    0.0435711   -4.2109230  
H    2.1062462    0.0053069   -0.3505412  
C    4.5589863   -2.0910929   -2.8627792  
C    4.8001599   -1.5802651   -4.1171146  
C    3.7183222   -0.7028983   -4.4244490  
C    2.8403834   -0.7185727   -3.3104901  
N    3.3796334   -1.5729828   -2.3810763  
C    1.6628937    0.0339103   -3.2649304  
C    1.3664289    0.8167065   -4.3638009  
O    0.2293465    1.5716845   -4.3719359  
C    2.2296833    0.8453769   -5.4848657  
O    1.7957817    1.6733904   -6.4994925  
C    3.3913348    0.1030837   -5.5306119  
H    5.6505872   -1.8123915   -4.7350817  
H    2.9826847   -1.7779454   -1.4819637  
H    0.2146736    2.0340791   -5.2200169  
H    2.4348223    1.6350081   -7.2176552  
H    5.1341877   -2.7851290   -2.2742084  
C    4.9098434   -0.8885383   -7.2829880  
C    4.2614041    0.1602479   -6.7140867  
C    4.5912078    1.3311703   -7.4919076  
C    5.4913726    0.8753095   -8.5683295  
N    5.6449798   -0.4796052   -8.3852980  
C    6.0259832    1.6843313   -9.5177399  
C    5.6927315    3.0984674   -9.4765380  
O    6.1236774    3.9082519  -10.2869918  
C    4.7414365    3.6032746   -8.3451610  
O    4.4539924    4.7918070   -8.3001406  
C    4.2278873    2.6355367   -7.3789303  
H    6.6840896    1.3297195  -10.2988008  
H    3.5696495    2.9931040   -6.5988065  
H    4.9126918   -1.9257430   -6.9895803  
H    6.2033243   -1.0793784   -8.9645832  
C    2.3971438    2.0127888    3.1728260  
C    1.9431056    1.6308205    1.9564670  
C    0.8496017    0.7127664    2.2356185  
C    0.7794028    0.6545384    3.7115134  
N    1.6840587    1.4146091    4.2663826  
C   -0.1885723   -0.1578550    4.3957118  
C   -1.0476298   -0.8789867    3.6398520  
O   -2.0015663   -1.6796266    4.1448486  
C   -1.0022026   -0.8410666    2.1483229  
O   -1.8147390   -1.5232959    1.5241687  
C    0.0000000    0.0000000    1.4700000  
H    2.3054237    1.9346118    0.9892483  
H   -0.2170646   -0.1815267    5.4753125  
H   -2.4487139   -2.0549881    3.3649027  
H    3.2048689    2.6911772    3.3971983  
