62

C    3.3041272    0.0001173   -1.5420433  
C    2.5845372   -0.0004782   -0.3695856  
C    1.2040006   -0.0000008   -0.7283589  
C    1.1422373    0.0006036   -2.1454374  
N    2.4348640    0.0026108   -2.6077464  
C   -0.0655182    0.0008797   -2.8497919  
C   -1.2321768    0.0002324   -2.1101400  
O   -2.4392817    0.0001147   -2.7472520  
C   -1.1911209   -0.0000008   -0.6955261  
O   -2.4371524   -0.0002319   -0.1032862  
C    0.0000000    0.0000000    0.0000000  
H    3.0031536   -0.0000662    0.6222582  
H    2.7054629   -0.0071101   -3.5745263  
H   -3.1132988   -0.0000649   -2.0551788  
H   -2.3200280   -0.0004072    0.8516410  
H    4.3686618    0.0004067   -1.7024297  
C    2.3129715   -2.1206347   -5.9853336  
C    1.8203209   -1.6593261   -4.7866021  
C    0.7463511   -0.7716032   -5.0917861  
C    0.6289214   -0.7306576   -6.5047474  
N    1.5963345   -1.5595253   -7.0163212  
C   -0.3301682    0.0460722   -7.1617303  
C   -1.1865067    0.7948776   -6.3780517  
O   -2.1420032    1.5708500   -6.9678873  
C   -1.0848071    0.7675248   -4.9667659  
O   -2.0089556    1.5677379   -4.3272726  
C   -0.1387084    0.0017016   -4.3179687  
H    2.1903014   -1.9285748   -3.8121214  
H    1.7490275   -1.7403242   -7.9920147  
H   -2.6234317    2.0034607   -6.2507130  
H   -1.8718971    1.4918035   -3.3780343  
H    3.1197747   -2.8044122   -6.1865215  
C   -0.4587464    0.0945561   -8.6252932  
C    0.2807628   -0.5621556   -9.5491092  
C   -0.2706658   -0.1521864  -10.8314320  
C   -1.3660109    0.7790257  -10.4855311  
N   -1.4809792    0.9276609   -9.1937580  
C   -2.1718644    1.4132434  -11.4922362  
C   -1.8957593    1.1303521  -12.7857096  
O   -2.5668252    1.6503342  -13.8275016  
C   -0.7966184    0.1950390  -13.1668122  
O   -0.6015828   -0.0162874  -14.3636928  
C    0.0158261   -0.4429747  -12.1157202  
H    1.0994157   -1.2408784   -9.3811245  
H   -2.9659886    2.0893363  -11.2108566  
H   -2.1419971    1.2632838  -14.6141817  
H    0.8026129   -1.1141254  -12.4331359  
C    2.5528530    2.1414826    2.8079335  
C    2.0663498    1.7338582    4.0032312  
C    0.9804344    0.8229586    3.6752840  
C    0.9495562    0.7966882    2.1971295  
N    1.8690446    1.5676019    1.6831036  
C    0.0000000    0.0000000    1.4700000  
C   -0.8785127   -0.7372425    2.1869543  
O   -1.8187535   -1.5261249    1.6395491  
C   -0.8723269   -0.7321790    3.6796354  
O   -1.7010379   -1.4274584    4.2670412  
C    0.1115397    0.0933559    4.4024240  
H    2.4028853    2.0163452    4.9860947  
H   -2.2861435   -1.9184361    2.3990168  
H    0.0832434    0.0693689    5.4835595  
H    3.3664920    2.8238276    2.6198634  
