60

C   -1.1187020    0.0190826   -0.8003806  
C    0.0000000    0.0000000    0.0000000  
C    1.1321912   -0.0210350   -0.8673528  
C    0.6381298   -0.0133224   -2.1969280  
N   -0.7323547    0.0091820   -2.1202234  
C    1.4768084   -0.0290089   -3.3154811  
C    2.8390601   -0.0526098   -3.0876859  
O    3.7032899   -0.0683351   -4.1440352  
C    3.3512313   -0.0610213   -1.7684335  
O    4.7292788   -0.0853843   -1.7073129  
C    2.5244384   -0.0458295   -0.6644819  
H   -1.3573172    0.0297682   -2.9057039  
H    4.5932365   -0.0839100   -3.7685137  
H    4.9926571   -0.0895601   -0.7819922  
H    2.9457816   -0.0529744    0.3339657  
H   -2.1616637    0.0375267   -0.5342067  
C    0.9734026   -0.0213666   -4.6965766  
C   -0.3136515    0.0008193   -5.1144027  
C   -0.2364710   -0.0017787   -6.5671706  
C    1.2120386   -0.0272940   -6.8634017  
N    1.9262407   -0.0389472   -5.7708041  
C    1.7131330   -0.0372395   -8.2102096  
C    0.8082924   -0.0227601   -9.2153900  
O    1.1345184   -0.0296592  -10.5190658  
C   -0.6601715    0.0026949   -8.9486941  
O   -1.4261515    0.0149606   -9.9122014  
C   -1.1492185    0.0125211   -7.5584926  
H   -1.2052965    0.0168647   -4.5112544  
H    2.7768449   -0.0557428   -8.3975169  
H    0.2808634   -0.0155420  -10.9883482  
C   -3.7168026    2.1538561   -4.6742898  
C   -2.6612472    1.6724844   -5.3800938  
C   -3.1964597    0.7838283   -6.3844205  
C   -4.6608523    0.7869801   -6.2046026  
N   -4.9114299    1.6367200   -5.1519666  
C   -5.5300383    0.0709028   -6.9618698  
C   -4.9869947   -0.7584200   -8.0248189  
O   -5.6874556   -1.4404919   -8.7613200  
C   -3.4390641   -0.7771794   -8.2330600  
O   -2.9702665   -1.4718651   -9.1246323  
C   -2.6046254    0.0375317   -7.3533951  
H   -1.6258429    1.9123936   -5.2157914  
H   -6.6008369    0.0874435   -6.8134545  
H   -3.7224735    2.8427158   -3.8452358  
H   -5.8220379    1.8500788   -4.7882105  
C    2.5528530    2.1414826    2.8079335  
C    2.0663498    1.7338582    4.0032312  
C    0.9804344    0.8229586    3.6752840  
C    0.9495562    0.7966882    2.1971295  
N    1.8690446    1.5676019    1.6831036  
C    0.0000000    0.0000000    1.4700000  
C   -0.8785127   -0.7372425    2.1869543  
O   -1.8187535   -1.5261249    1.6395491  
C   -0.8723269   -0.7321790    3.6796354  
O   -1.7010379   -1.4274584    4.2670412  
C    0.1115397    0.0933559    4.4024240  
H    2.4028853    2.0163452    4.9860947  
H   -2.2861435   -1.9184361    2.3990168  
H    0.0832434    0.0693689    5.4835595  
H    3.3664920    2.8238276    2.6198634  
