58

C    3.2798084    0.0005856   -1.4499652  
C    2.5571142    0.0005566   -2.5996557  
C    1.1637434    0.0001548   -2.2210362  
C    1.1336961   -0.0000200   -0.7459473  
N    2.4483514   -0.0001428   -0.3402724  
C    0.0000000    0.0000000    0.0000000  
C   -1.2757374   -0.0000187   -0.6964415  
O   -2.3524597   -0.0000640   -0.1142311  
C   -1.2676496   -0.0000874   -2.2584083  
O   -2.3355767   -0.0004101   -2.8557296  
C    0.0181557    0.0001759   -2.9516298  
H    2.9547349    0.0006074   -3.5989107  
H    2.7563629    0.0012824    0.6148060  
C    2.5092669   -2.0880364   -5.9399682  
C    1.9605213   -1.6268628   -4.7865938  
C    0.8894588   -0.7326236   -5.1580732  
C    0.8589563   -0.7104880   -6.6329865  
N    1.8659262   -1.5524065   -7.0453886  
C   -0.0149630    0.0176439   -7.3731172  
C   -0.9904844    0.8341824   -6.6701530  
O   -1.8197981    1.5255371   -7.2468408  
C   -0.9762349    0.8261497   -5.1082511  
O   -1.7925795    1.5098877   -4.5054701  
C    0.0139735    0.0003878   -4.4216240  
H    2.2707712   -1.8836547   -3.7893898  
H   -0.0204999    0.0196520   -8.4542629  
H    3.3296614   -2.7739652   -6.0754077  
H    2.0965136   -1.7491787   -8.0020273  
C    5.6938829    0.0016102   -2.2318635  
C    4.7390849    0.0009614   -1.2727288  
C    5.4706530    0.0008611   -0.0152286  
C    6.8949564    0.0014080   -0.4126505  
N    7.0320420    0.0019293   -1.7108019  
C    7.9554501    0.0015314    0.5571123  
C    7.6088233    0.0015159    1.8644700  
O    8.4940089    0.0016143    2.8756512  
C    6.1802438    0.0013412    2.2972762  
O    5.9381811    0.0012126    3.5041838  
C    5.1106709    0.0011731    1.2834028  
H    8.9875895    0.0017279    0.2383682  
H    7.9484110    0.0015988    3.6827916  
H    4.0886177    0.0011647    1.6378554  
H    5.5602496    0.0018872   -3.3019641  
C    2.5128556    2.1077716    2.9199648  
C    1.9592212    1.6432552    4.0696553  
C    0.8915788    0.7479214    3.6910360  
C    0.8684491    0.7287414    2.2159470  
N    1.8754542    1.5738793    1.8102719  
C    0.0000000    0.0000000    1.4700000  
C   -0.9772830   -0.8200135    2.1664417  
O   -1.8021297   -1.5120829    1.5842315  
C   -0.9711318   -0.8147624    3.7284083  
O   -1.7894187   -1.5009653    4.3257297  
C    0.0140216    0.0115358    4.4216297  
H    2.2638494    1.8988021    5.0689105  
H    0.0117648    0.0094386    5.5031631  
H    3.3327358    2.7953732    2.7900019  
H    2.1123206    1.7707734    0.8551938  
