58

C    3.2798090    0.0005856   -1.4499635  
C    2.5571157    0.0005565   -2.5996544  
C    1.1637443    0.0001548   -2.2210357  
C    1.1336970   -0.0000200   -0.7459466  
N    2.4483515   -0.0001429   -0.3402711  
C    0.0000000    0.0000000    0.0000000  
C   -1.2757370   -0.0000186   -0.6964421  
O   -2.3524594   -0.0000639   -0.1142324  
C   -1.2676484   -0.0000873   -2.2584088  
O   -2.3355747   -0.0004100   -2.8557305  
C    0.0181577    0.0001759   -2.9516294  
H    2.9547365    0.0006075   -3.5989094  
H    0.0150811    0.0003319   -4.0331627  
H    2.7563626    0.0012823    0.6148073  
C    6.8068859    0.0000780   -4.1746965  
C    5.5278621   -0.0005420   -3.7323432  
C    5.6328292    0.0002217   -2.2813155  
C    7.0869604    0.0011851   -2.0128292  
N    7.7802440    0.0011862   -3.1188801  
C    7.6138028    0.0021815   -0.6758464  
C    6.7282245    0.0026030    0.3464480  
O    7.0793800    0.0035197    1.6436489  
C    5.2547115    0.0020257    0.1078729  
O    4.5071896    0.0023331    1.0858464  
C    4.7390854    0.0009613   -1.2727261  
H    4.6247078   -0.0013200   -4.3183357  
H    6.2347335    0.0036359    2.1291649  
H    7.1567997   -0.0001765   -5.1947623  
C    9.9871298    0.7074481   -1.1553467  
C    9.0661429    0.0028410   -0.4486738  
C    9.7862624   -0.7385570    0.5595889  
C   11.2125013   -0.4057155    0.3811328  
N   11.2667766    0.4748958   -0.6745505  
C   12.2194851   -0.9045112    1.1419819  
C   11.8756620   -1.8311845    2.2076259  
O   12.7106360   -2.3349954    2.9474188  
C   10.3715086   -2.1979784    2.4144861  
O   10.0699449   -2.9773455    3.3083019  
C    9.3763406   -1.5956888    1.5308905  
H   13.2592036   -0.6473214    0.9945082  
H    8.3370354   -1.8546830    1.6808552  
H    9.8387130    1.3768666   -1.9870563  
H   12.1064128    0.8869164   -1.0382761  
C    2.3971438    2.0127888    3.1728260  
C    1.9431056    1.6308205    1.9564670  
C    0.8496017    0.7127664    2.2356185  
C    0.7794028    0.6545384    3.7115134  
N    1.6840587    1.4146091    4.2663826  
C   -0.1885723   -0.1578550    4.3957118  
C   -1.0476298   -0.8789867    3.6398520  
O   -2.0015663   -1.6796266    4.1448486  
C   -1.0022026   -0.8410666    2.1483229  
O   -1.8147390   -1.5232959    1.5241687  
C    0.0000000    0.0000000    1.4700000  
H    2.3054237    1.9346118    0.9892483  
H   -0.2170646   -0.1815267    5.4753125  
H   -2.4487139   -2.0549881    3.3649027  
H    3.2048689    2.6911772    3.3971983  
