58

C   -3.2798079   -0.0008362   -1.4499656  
C   -2.5571137   -0.0007518   -2.5996561  
C   -1.1637432   -0.0002436   -2.2210362  
C   -1.1336960   -0.0000666   -0.7459473  
N   -2.4483509   -0.0000442   -0.3402726  
C    0.0000000    0.0000000    0.0000000  
C    1.2757371    0.0001161   -0.6964413  
O    2.3524599    0.0002437   -0.1142313  
C    1.2676493    0.0001842   -2.2584079  
O    2.3355775    0.0005887   -2.8557294  
C   -0.0181553   -0.0001772   -2.9516296  
H   -2.9547342   -0.0008331   -3.5989109  
H   -0.0150772   -0.0003329   -4.0331630  
H   -2.7563624   -0.0014930    0.6148055  
C   -4.7390838   -0.0013234   -1.2727290  
C   -5.6949928   -0.0019857   -2.2307568  
C   -6.9549536   -0.0022117   -1.5034336  
C   -6.5623376   -0.0017154   -0.0777982  
N   -5.2646564   -0.0011128    0.0636650  
C   -7.5356715   -0.0017160    0.9794186  
C   -8.8418531   -0.0018020    0.6283840  
O   -9.8560145   -0.0018208    1.5101538  
C   -9.2698387   -0.0019283   -0.8016470  
O  -10.4759229   -0.0021261   -1.0477790  
C   -8.2523633   -0.0019688   -1.8677941  
H   -5.5615839   -0.0021938   -3.2990633  
H  -10.6613098   -0.0018617    0.9618366  
H   -8.6033667   -0.0019457   -2.8910370  
C   -7.1066604   -0.0014955    2.3854234  
C   -5.8485539   -0.0011563    2.8965426  
C   -5.9783741   -0.0011024    4.3345904  
C   -7.4256184   -0.0014695    4.6214252  
N   -8.0543465   -0.0012964    3.3976642  
C   -7.9624237   -0.0019320    5.8678378  
C   -7.0541728   -0.0018517    7.0025690  
O   -7.4396853   -0.0021806    8.1643263  
C   -5.5175520   -0.0012128    6.7222064  
O   -4.7431435   -0.0008332    7.6695985  
C   -5.0591920   -0.0010298    5.3352105  
H   -4.9339546   -0.0007834    2.3307494  
H   -9.0270165   -0.0023259    6.0563871  
H   -3.9936954   -0.0007922    5.1496265  
H   -9.0485039   -0.0030233    3.2609333  
C    2.5528530    2.1414826    2.8079335  
C    2.0663498    1.7338582    4.0032312  
C    0.9804344    0.8229586    3.6752840  
C    0.9495562    0.7966882    2.1971295  
N    1.8690446    1.5676019    1.6831036  
C    0.0000000    0.0000000    1.4700000  
C   -0.8785127   -0.7372425    2.1869543  
O   -1.8187535   -1.5261249    1.6395491  
C   -0.8723269   -0.7321790    3.6796354  
O   -1.7010379   -1.4274584    4.2670412  
C    0.1115397    0.0933559    4.4024240  
H    2.4028853    2.0163452    4.9860947  
H   -2.2861435   -1.9184361    2.3990168  
H    0.0832434    0.0693689    5.4835595  
H    3.3664920    2.8238276    2.6198634  
