58

C    5.6463485   -0.0007503   -0.7029966  
C    4.7161325   -0.0005435   -1.6923264  
C    5.4339816   -0.0003284   -2.9451346  
C    6.8689501   -0.0004567   -2.6021239  
N    6.9298893   -0.0003134   -1.2276507  
C    7.8767467   -0.0007179   -3.5109974  
C    7.5246255   -0.0006573   -4.9211555  
O    8.3596091   -0.0008153   -5.8162002  
C    6.0111284   -0.0002695   -5.3073308  
O    5.7025034    0.0000912   -6.4913954  
C    5.0159834   -0.0002905   -4.2379666  
H    8.9229464   -0.0009383   -3.2382781  
H    3.9702000   -0.0002261   -4.5137570  
H    5.5021930   -0.0009683    0.3652304  
C    8.3781343   -0.7300086    0.7238860  
C    9.6256983   -0.5154222    1.2154259  
C   10.2772907    0.4112517    0.3201388  
C    9.3000575    0.7211921   -0.7408709  
N    8.1698811   -0.0026509   -0.4381471  
C    9.5341727    1.5620254   -1.7800504  
C   10.8355548    2.2044605   -1.8588965  
O   11.1432460    2.9780229   -2.7562414  
C   11.8858840    1.8905830   -0.7461991  
O   12.9850651    2.4253010   -0.8021954  
C   11.5169891    0.9673715    0.3240580  
H   10.0420551   -0.9561494    2.1036945  
H    8.8035280    1.7758254   -2.5477467  
H   12.2498351    0.7554994    1.0907203  
H    7.5934274   -1.3584794    1.1126653  
C    3.2573665   -0.0002920   -1.5109385  
C    2.5379463   -0.0001709   -0.3591964  
C    1.1435038    0.0000331   -0.7338500  
C    1.1092599   -0.0000083   -2.2088477  
N    2.4227553    0.0001909   -2.6182613  
C   -0.0265539   -0.0002524   -2.9515660  
C   -1.3003040   -0.0002640   -2.2514977  
O   -2.3786790   -0.0004133   -2.8306421  
C   -1.2877727    0.0000311   -0.6895603  
O   -2.3539959    0.0003306   -0.0892030  
C    0.0000000    0.0000000    0.0000000  
H    2.9384091   -0.0000367    0.6389234  
H   -0.0296303   -0.0004086   -4.0327229  
H    2.7280482   -0.0013407   -3.5742119  
C    0.8175213    0.6860729    2.3021913  
C    0.0000000    0.0000000    1.4700000  
C   -0.8887526   -0.7456559    2.3478473  
C   -0.4549825   -0.3816753    3.7138435  
N    0.5448156    0.4573574    3.6934124  
C   -1.0945674   -0.9182058    4.8835240  
C   -2.1210866   -1.7789155    4.6970523  
O   -2.8083856   -2.3554314    5.6976972  
C   -2.5824069   -2.1655116    3.3310774  
O   -3.5227682   -2.9541547    3.2362962  
C   -1.9100805   -1.6015804    2.1470656  
H   -0.7567140   -0.6349833    5.8697035  
H   -3.4728268   -2.9124471    5.2533954  
H   -2.2742832   -1.9066565    1.1752040  
H    1.6189533    1.3585343    2.0405121  
