60

C    3.2573672   -0.0002920   -1.5109380  
C    2.5379470   -0.0001710   -0.3591959  
C    1.1435044    0.0000331   -0.7338498  
C    1.1092609   -0.0000083   -2.2088475  
N    2.4227564    0.0001909   -2.6182609  
C   -0.0265532   -0.0002524   -2.9515660  
C   -1.3003037   -0.0002640   -2.2514978  
O   -2.3786783   -0.0004133   -2.8306423  
C   -1.2877723    0.0000311   -0.6895608  
O   -2.3539957    0.0003306   -0.0892035  
C    0.0000000    0.0000000    0.0000000  
H    2.9384091   -0.0000368    0.6389235  
H    2.7280494   -0.0013407   -3.5742112  
C    6.7921807    0.0009712    1.2037512  
C    5.5119033    0.0013959    0.7650370  
C    5.6127425    0.0004334   -0.6862830  
C    7.0661040   -0.0004195   -0.9589043  
N    7.7625309   -0.0001897    0.1451701  
C    7.5891414   -0.0015551   -2.2973802  
C    6.7006590   -0.0022151   -3.3171514  
O    7.0481230   -0.0032833   -4.6153455  
C    5.2278296   -0.0017546   -3.0743857  
O    4.4775295   -0.0022799   -4.0502289  
C    4.7161333   -0.0005436   -1.6923256  
H    4.6104196    0.0021660    1.3535962  
H    8.6559215   -0.0019544   -2.4673541  
H    6.2020992   -0.0035564   -5.0984571  
H    7.1449944    0.0014088    2.2228169  
C   -0.0307352   -0.0004647   -4.4215603  
C    1.0331815   -0.0004859   -5.2580170  
C    0.4592709   -0.0007211   -6.5948515  
C   -1.0026761   -0.0009311   -6.3728274  
N   -1.2959500   -0.0007014   -5.1008292  
C   -1.9379342   -0.0011514   -7.4638720  
C   -1.4355461   -0.0007726   -8.7196356  
O   -2.1917704   -0.0009261   -9.8305658  
C    0.0349304   -0.0001822   -8.9762653  
O    0.4213597    0.0000156  -10.1449796  
C    0.9738592   -0.0000098   -7.8403354  
H    2.0783484   -0.0002676   -4.9997494  
H   -3.0010760   -0.0015087   -7.2724587  
H   -1.5524484   -0.0005380  -10.5656984  
H    2.0313131    0.0005368   -8.0684157  
C    0.0000000    0.0000000    1.4700000  
C    1.0521667    0.0011902    2.3562342  
C    0.4917218    0.0011957    3.6679131  
C   -0.9187428   -0.0003148    3.5178682  
N   -1.1833171    0.0009411    2.1707914  
C   -1.7951701   -0.0010350    4.6072090  
C   -1.2375837   -0.0005224    5.8710424  
O   -2.0474215   -0.0015360    6.9697579  
C    0.1673580    0.0013566    6.0411963  
O    0.5673524    0.0020687    7.3615553  
C    1.0325770    0.0023412    4.9669890  
H    2.0953057    0.0030649    2.0900562  
H   -2.0989778   -0.0102372    1.7591824  
H   -2.8710934   -0.0020419    4.4995513  
H   -1.4634884   -0.0006497    7.7393593  
H    1.5290710    0.0033153    7.3880045  
H    2.1042148    0.0039609    5.1284455  
