64

C    2.3136494   -2.1180449   -5.9171360  
C    1.6624063   -1.6181599   -7.0209771  
C    0.6419647   -0.7441450   -6.5420234  
C    0.7194932   -0.7504915   -5.1257338  
N    1.7437762   -1.5963711   -4.7793969  
C   -0.1387079    0.0017019   -4.3179684  
C   -1.0923523    0.7746130   -4.9514893  
O   -1.9557349    1.5288503   -4.2107391  
C   -1.1856778    0.7938840   -6.3634861  
O   -2.1870601    1.6126755   -6.8432329  
C   -0.3395492    0.0518695   -7.1609864  
H    2.0414323   -1.7936219   -3.8410611  
H   -2.5301599    1.9837415   -4.8403222  
H   -2.1819299    1.5683226   -7.8042790  
H   -0.4351229    0.0866796   -8.2399366  
H    3.1386345   -2.8065415   -5.8513288  
C    2.3210964   -3.1862727   -8.8954460  
C    1.9780889   -1.9418918   -8.4197056  
C    1.9928206   -1.0515363   -9.5339999  
C    2.3546101   -1.8159085  -10.6727572  
N    2.5486178   -3.1073409  -10.2494606  
C    2.4678561   -1.2611881  -11.9511345  
C    2.2109063    0.0897106  -12.0823867  
O    2.3065036    0.6824393  -13.3081707  
C    1.8489383    0.8691851  -10.9580123  
O    1.6258393    2.1985660  -11.2518099  
C    1.7372906    0.3226604   -9.6965165  
H    2.8033515   -3.8791770  -10.8388334  
H    2.7433324   -1.8383141  -12.8230526  
H    2.0901064    1.6149295  -13.1781758  
H    1.3865336    2.6537453  -10.4387005  
H    1.4583812    0.9448260   -8.8541401  
H    2.4228469   -4.1235977   -8.3758041  
C    3.3041273    0.0001178   -1.5420428  
C    2.5845373   -0.0004780   -0.3695851  
C    1.2040007   -0.0000007   -0.7283589  
C    1.1422374    0.0006038   -2.1454372  
N    2.4348641    0.0026111   -2.6077464  
C   -0.0655179    0.0008799   -2.8497918  
C   -1.2321766    0.0002325   -2.1101402  
O   -2.4392814    0.0001148   -2.7472522  
C   -1.1911209   -0.0000007   -0.6955266  
O   -2.4371528   -0.0002320   -0.1032862  
C    0.0000000    0.0000000    0.0000000  
H    3.0031533   -0.0000660    0.6222584  
H    2.7054631   -0.0071097   -3.5745261  
H   -3.1132988   -0.0000648   -2.0551787  
H   -2.3200282   -0.0004072    0.8516409  
H    4.3686625    0.0004073   -1.7024290  
C    2.5528530    2.1414826    2.8079335  
C    2.0663498    1.7338582    4.0032312  
C    0.9804344    0.8229586    3.6752840  
C    0.9495562    0.7966882    2.1971295  
N    1.8690446    1.5676019    1.6831036  
C    0.0000000    0.0000000    1.4700000  
C   -0.8785127   -0.7372425    2.1869543  
O   -1.8187535   -1.5261249    1.6395491  
C   -0.8723269   -0.7321790    3.6796354  
O   -1.7010379   -1.4274584    4.2670412  
C    0.1115397    0.0933559    4.4024240  
H    2.4028853    2.0163452    4.9860947  
H   -2.2861435   -1.9184361    2.3990168  
H    0.0832434    0.0693689    5.4835595  
H    3.3664920    2.8238276    2.6198634  
