64

C    2.3136494   -2.1180449   -5.9171360  
C    1.6624063   -1.6181599   -7.0209771  
C    0.6419647   -0.7441450   -6.5420234  
C    0.7194932   -0.7504915   -5.1257338  
N    1.7437762   -1.5963711   -4.7793969  
C   -0.1387079    0.0017019   -4.3179684  
C   -1.0923523    0.7746130   -4.9514893  
O   -1.9557349    1.5288503   -4.2107391  
C   -1.1856778    0.7938840   -6.3634861  
O   -2.1870601    1.6126755   -6.8432329  
C   -0.3395492    0.0518695   -7.1609864  
H    2.0414323   -1.7936219   -3.8410611  
H   -2.5301599    1.9837415   -4.8403222  
H   -2.1819299    1.5683226   -7.8042790  
H   -0.4351229    0.0866796   -8.2399366  
H    3.1386345   -2.8065415   -5.8513288  
C    2.7960961   -5.4178243   -8.9795931  
C    2.9217478   -4.9258422  -10.2581207  
C    2.6229832   -3.5323306  -10.1992481  
C    2.3199123   -3.2283937   -8.8473258  
N    2.4325452   -4.3959438   -8.1340529  
C    1.9780889   -1.9418918   -8.4197056  
C    1.9418442   -0.9439734   -9.3741810  
O    1.6143840    0.3303785   -9.0111235  
C    2.2406843   -1.2275840  -10.7280924  
O    2.1607221   -0.1277508  -11.5571375  
C    2.5777166   -2.4965718  -11.1507088  
H    3.1940472   -5.5008503  -11.1265746  
H    2.2863596   -4.4882433   -7.1450672  
H    1.6478958    0.8611945   -9.8175822  
H    2.3769938   -0.4054450  -12.4525256  
H    2.8013760   -2.6835409  -12.1944996  
H    2.9356447   -6.4170965   -8.6041726  
C    3.3041273    0.0001178   -1.5420428  
C    2.5845373   -0.0004780   -0.3695851  
C    1.2040007   -0.0000007   -0.7283589  
C    1.1422374    0.0006038   -2.1454372  
N    2.4348641    0.0026111   -2.6077464  
C   -0.0655179    0.0008799   -2.8497918  
C   -1.2321766    0.0002325   -2.1101402  
O   -2.4392814    0.0001148   -2.7472522  
C   -1.1911209   -0.0000007   -0.6955266  
O   -2.4371528   -0.0002320   -0.1032862  
C    0.0000000    0.0000000    0.0000000  
H    3.0031533   -0.0000660    0.6222584  
H    2.7054631   -0.0071097   -3.5745261  
H   -3.1132988   -0.0000648   -2.0551787  
H   -2.3200282   -0.0004072    0.8516409  
H    4.3686625    0.0004073   -1.7024290  
C    0.0000000    0.0000000    1.4700000  
C    1.0662921    0.0000102    2.3034270  
C    0.4961870   -0.0000064    3.6418889  
C   -0.9663858    0.0000850    3.4240247  
N   -1.2632773    0.0000084    2.1528658  
C   -1.8985362    0.0000517    4.5177257  
C   -1.3925775   -0.0004564    5.7720543  
O   -2.1456383   -0.0005410    6.8851312  
C    0.0786232   -0.0009323    6.0245000  
O    0.4683759   -0.0012588    7.1921102  
C    1.0143166   -0.0008442    4.8859032  
H    2.1107198   -0.0000632    2.0421868  
H   -2.9622183    0.0003270    4.3293377  
H   -1.5042274   -0.0009692    7.6184419  
H    2.0724152   -0.0013148    5.1109744  
