60

C    1.1188646    0.0008222   -0.8003804  
C    0.0000000    0.0000000    0.0000000  
C   -1.1323861    0.0008899   -0.8673531  
C   -0.6382658    0.0019679   -2.1969280  
N    0.7324023    0.0038481   -2.1202236  
C   -1.4770906    0.0027317   -3.3154813  
C   -2.8395469    0.0020945   -3.0876864  
O   -3.7039191    0.0024426   -4.1440354  
C   -3.3517867    0.0013931   -1.7684336  
O   -4.7300488    0.0012366   -1.7073134  
C   -2.5248543    0.0009122   -0.6644821  
H    1.3576321   -0.0056167   -2.9057040  
H   -4.5940021    0.0021828   -3.7685142  
H   -4.9934598    0.0007262   -0.7819928  
H   -2.9462578    0.0005605    0.3339647  
H    2.1619890    0.0009354   -0.5342068  
C    1.8836778   -2.1362885   -5.0810760  
C    1.8358591   -1.7275861   -6.3703606  
C    0.7030374   -0.8169590   -6.4333928  
C    0.1677643   -0.7920098   -5.0551894  
N    0.8558155   -1.5634006   -4.2579875  
C   -0.9736286    0.0040462   -4.6965764  
C   -1.5536716    0.7419465   -5.6704281  
O   -2.6247560    1.5303572   -5.4774861  
C   -1.0366284    0.7382179   -7.0707188  
O   -1.6142386    1.4340382   -7.9058361  
C    0.1355215   -0.0866895   -7.4135267  
H    2.4887449   -2.0092005   -7.1787599  
H   -2.8038808    1.9233564   -6.3507665  
H    2.5838930   -2.8188171   -4.6262937  
C    1.6279039   -3.2482669  -10.0706985  
C    1.8688365   -2.5102443  -11.1848570  
C    1.5085060   -1.1472466  -10.8730325  
C    1.0345273   -1.1517224   -9.4758515  
N    1.1316526   -2.4554057   -9.0470556  
C    0.6025524   -0.0527795   -8.8069517  
C    0.6043683    1.2192711   -9.5101012  
O    0.2341525    2.2658879   -8.9945096  
C    1.1019447    1.2473283  -10.9904514  
O    1.1077296    2.3124466  -11.5927382  
C    1.5435958   -0.0025359  -11.6041575  
H    2.2547479   -2.8786506  -12.1186465  
H    1.8868236    0.0254692  -12.6294059  
H    1.7709229   -4.3046989   -9.9113672  
H    0.8825245   -2.7804332   -8.1309003  
C    2.5528530    2.1414826    2.8079335  
C    2.0663498    1.7338582    4.0032312  
C    0.9804344    0.8229586    3.6752840  
C    0.9495562    0.7966882    2.1971295  
N    1.8690446    1.5676019    1.6831036  
C    0.0000000    0.0000000    1.4700000  
C   -0.8785127   -0.7372425    2.1869543  
O   -1.8187535   -1.5261249    1.6395491  
C   -0.8723269   -0.7321790    3.6796354  
O   -1.7010379   -1.4274584    4.2670412  
C    0.1115397    0.0933559    4.4024240  
H    2.4028853    2.0163452    4.9860947  
H   -2.2861435   -1.9184361    2.3990168  
H    0.0832434    0.0693689    5.4835595  
H    3.3664920    2.8238276    2.6198634  
