58

C    0.0591967    2.7351455   -5.3136698  
C    0.4069190    1.8086486   -4.3837408  
C    0.4865106    0.5379360   -5.0647621  
C    0.1543007    0.8019706   -6.4778129  
N   -0.0948617    2.1523958   -6.5624326  
C    0.1197627   -0.1448643   -7.4494173  
C    0.4303055   -1.5154944   -7.0786441  
O    0.4261662   -2.4398414   -7.8810562  
C    0.7846653   -1.8180422   -5.5877721  
O    1.0475855   -2.9683020   -5.2636783  
C    0.7893452   -0.7137601   -4.6315344  
H    0.5869195    1.9941809   -3.3398105  
H   -0.1262313    0.0699524   -8.4800722  
H   -0.3475140    2.6399097   -7.4023998  
C   -0.8458737    0.7521664   -0.8009272  
C   -0.5971743    0.5278173   -2.1169406  
C    0.4792792   -0.4321568   -2.1842675  
C    0.8398923   -0.7509981   -0.7896032  
N    0.0000000    0.0000000    0.0000000  
C    1.8161862   -1.6213602   -0.4276298  
C    2.5616897   -2.2884613   -1.4820188  
O    3.4599344   -3.0893664   -1.2583924  
C    2.1968518   -1.9656949   -2.9661078  
O    2.8178275   -2.5209873   -3.8623783  
C    1.1245128   -1.0098388   -3.2312129  
H   -1.1092310    0.9830153   -2.9459195  
H    2.0647773   -1.8411888    0.6013442  
H   -1.5757825    1.4038637   -0.3488064  
C   -0.1547502    4.1799560   -5.1473889  
C   -0.0501722    4.9130262   -4.0145827  
C   -0.3657531    6.2745717   -4.4184413  
C   -0.6437652    6.1785230   -5.8676027  
N   -0.5217210    4.9531005   -6.3005388  
C   -1.0004292    7.3287253   -6.6517655  
C   -1.0763036    8.5206323   -6.0169933  
O   -1.3979016    9.6754128   -6.6245268  
C   -0.8018685    8.6499099   -4.5554414  
O   -0.8895613    9.7659952   -4.0436952  
C   -0.4378668    7.4553043   -3.7729171  
H    0.2090137    4.5719386   -3.0268792  
H   -1.1980588    7.2294775   -7.7091217  
H   -1.3691764   10.3443086   -5.9167797  
H   -0.2469475    7.5910251   -2.7168113  
C    2.3971438    2.0127888    3.1728260  
C    1.9431056    1.6308205    1.9564670  
C    0.8496017    0.7127664    2.2356185  
C    0.7794028    0.6545384    3.7115134  
N    1.6840587    1.4146091    4.2663826  
C   -0.1885723   -0.1578550    4.3957118  
C   -1.0476298   -0.8789867    3.6398520  
O   -2.0015663   -1.6796266    4.1448486  
C   -1.0022026   -0.8410666    2.1483229  
O   -1.8147390   -1.5232959    1.5241687  
C    0.0000000    0.0000000    1.4700000  
H    2.3054237    1.9346118    0.9892483  
H   -0.2170646   -0.1815267    5.4753125  
H   -2.4487139   -2.0549881    3.3649027  
H    3.2048689    2.6911772    3.3971983  
