60

C    3.2573676   -0.0002917   -1.5109371  
C    2.5379470   -0.0001708   -0.3591953  
C    1.1435045    0.0000333   -0.7338497  
C    1.1092616   -0.0000080   -2.2088472  
N    2.4227572    0.0001912   -2.6182604  
C   -0.0265522   -0.0002520   -2.9515663  
C   -1.3003029   -0.0002638   -2.2514982  
O   -2.3786772   -0.0004130   -2.8306437  
C   -1.2877723    0.0000313   -0.6895611  
O   -2.3539953    0.0003306   -0.0892043  
C    0.0000000    0.0000000    0.0000000  
H    2.9384088   -0.0000367    0.6389246  
H    2.7280505   -0.0013403   -3.5742105  
C    2.4624190   -2.0918862   -5.9392945  
C    1.9141458   -1.6298145   -4.7860550  
C    0.8440001   -0.7345871   -5.1577954  
C    0.8135211   -0.7128501   -6.6327153  
N    1.8196277   -1.5559199   -7.0448709  
C   -0.0596518    0.0159612   -7.3730585  
C   -1.0343364    0.8337034   -6.6703332  
O   -1.8629407    1.5257393   -7.2472228  
C   -1.0200955    0.8261114   -5.1084288  
O   -1.8357392    1.5108613   -4.5058478  
C   -0.0307336   -0.0004643   -4.4215606  
H    2.2241323   -1.8866337   -3.7887754  
H   -0.0651858    0.0176597   -8.4542039  
H    3.2821102   -2.7786945   -6.0745342  
H    2.0500139   -1.7532072   -8.0014520  
C    6.7921787   -0.0024531    1.2037538  
C    5.5119023   -0.0013792    0.7650399  
C    5.6127424   -0.0007796   -0.6862806  
C    7.0661046   -0.0015327   -0.9589016  
N    7.7625301   -0.0025956    0.1451727  
C    7.5891422   -0.0012857   -2.2973775  
C    6.7006605   -0.0007186   -3.3171495  
O    7.0481252   -0.0004242   -4.6153438  
C    5.2278315   -0.0003229   -3.0743842  
O    4.4775319    0.0003125   -4.0502277  
C    4.7161340   -0.0005432   -1.6923240  
H    4.6104180   -0.0011264    1.3535991  
H    8.6559224   -0.0016444   -2.4673513  
H    6.2021013   -0.0000585   -5.0984555  
H    7.1449923   -0.0031693    2.2228199  
C    2.5285572    2.1210227    2.9438989  
C    1.9331703    1.6216660    4.0790748  
C    0.8903039    0.7472258    3.6520102  
C    0.8972198    0.7527806    2.2336141  
N    1.9028376    1.5986179    1.8362361  
C    0.0000000    0.0000000    1.4700000  
C   -0.9207814   -0.7726952    2.1506477  
O   -1.8198395   -1.5274828    1.4542253  
C   -0.9436862   -0.7911793    3.5655508  
O   -1.9197945   -1.6098497    4.0950179  
C   -0.0590329   -0.0485852    4.3195194  
H    2.2150357    1.8593692    5.0905303  
H    2.1533708    1.7953814    0.8841339  
H   -2.3621246   -1.9821033    2.1118817  
H   -1.8668290   -1.5649508    5.0545920  
H   -0.1007624   -0.0827977    5.4019087  
H    3.3491200    2.8096064    2.8367138  
