58

C   -3.2567594   -0.0629032   -1.5109386  
C   -2.5374724   -0.0490669   -0.3591963  
C   -1.1432883   -0.0222179   -0.7338497  
C   -1.1090517   -0.0215123   -2.2088474  
N   -2.4222962   -0.0471941   -2.6182611  
C    0.0265437    0.0007672   -2.9515658  
C    1.3000540    0.0254904   -2.2514976  
O    2.3782233    0.0465607   -2.8306421  
C    1.2875311    0.0249523   -0.6895607  
O    2.3535590    0.0453384   -0.0892030  
C    0.0000000    0.0000000    0.0000000  
H   -2.9378566   -0.0569703    0.6389241  
H    0.0296159    0.0009830   -4.0327230  
H   -4.3262340   -0.0834711   -1.6439444  
C   -2.8694636   -0.0536273   -4.0185828  
C   -4.1385451   -0.0770932   -4.4881141  
C   -4.0027197   -0.0723656   -5.9365717  
C   -2.5434658   -0.0441226   -6.1739824  
N   -1.8740185   -0.0331153   -5.0533986  
C   -1.9883658   -0.0316080   -7.4994234  
C   -2.8518018   -0.0470141   -8.5403726  
O   -2.4731635   -0.0379659   -9.8297881  
C   -4.3297854   -0.0759532   -8.3332799  
O   -5.0561688   -0.0886373   -9.3269733  
C   -4.8746037   -0.0882826   -6.9639934  
H   -5.0538095   -0.0954456   -3.9215175  
H   -3.3071171   -0.0535309  -10.3332081  
H   -5.9508139   -0.1094145   -6.8564989  
C    0.3917004   -0.7128409   -6.9430318  
C    1.6574382   -0.4710063   -7.3713996  
C    1.5588087    0.4558586   -8.4741372  
C    0.1215528    0.7362164   -8.6543739  
N   -0.5317876   -0.0031942   -7.6955685  
C   -0.3870660    1.5683734   -9.5980508  
C    0.5431346    2.2320218  -10.4962896  
O    0.1835840    2.9998903  -11.3791277  
C    2.0696510    1.9496026  -10.3236875  
O    2.8623214    2.5023672  -11.0742771  
C    2.4970349    1.0331496   -9.2695012  
H    2.5574657   -0.8938130   -6.9617674  
H   -1.4447848    1.7603671   -9.7132860  
H    3.5557286    0.8431083   -9.1564725  
H    0.0558383   -1.3499440   -6.1410433  
C    0.8175213    0.6860729    2.3021913  
C    0.0000000    0.0000000    1.4700000  
C   -0.8887526   -0.7456559    2.3478473  
C   -0.4549825   -0.3816753    3.7138435  
N    0.5448156    0.4573574    3.6934124  
C   -1.0945674   -0.9182058    4.8835240  
C   -2.1210866   -1.7789155    4.6970523  
O   -2.8083856   -2.3554314    5.6976972  
C   -2.5824069   -2.1655116    3.3310774  
O   -3.5227682   -2.9541547    3.2362962  
C   -1.9100805   -1.6015804    2.1470656  
H   -0.7567140   -0.6349833    5.8697035  
H   -3.4728268   -2.9124471    5.2533954  
H   -2.2742832   -1.9066565    1.1752040  
H    1.6189533    1.3585343    2.0405121  
