58

C    4.3047788   -2.1086498   -1.2859241  
C    5.3774559   -1.6442160   -1.9771116  
C    4.8701586   -0.7486137   -2.9897227  
C    3.4034920   -0.7291860   -2.8306572  
N    3.1250159   -1.5744517   -1.7814350  
C    2.5562217   -0.0001543   -3.6003001  
C    3.1269051    0.8199330   -4.6559100  
O    2.4474939    1.5122577   -5.4024942  
C    4.6776933    0.8144235   -4.8425424  
O    5.1696079    1.5006855   -5.7281632  
C    5.4870227   -0.0121789   -3.9505975  
H    6.5600129   -0.0102596   -4.0862901  
H    4.2768475   -2.7963881   -0.4563907  
H    2.2064273   -1.7712340   -1.4285626  
C    7.2503943   -3.2588928   -1.4085306  
C    8.5983038   -3.2534143   -1.2436504  
C    9.0450376   -1.8997284   -1.4734297  
C    7.8382452   -1.1113512   -1.7879197  
N    6.7841712   -1.9938173   -1.7325050  
C    7.8385623    0.2167603   -2.0668897  
C    9.1125268    0.9163702   -2.0569427  
O    9.2175282    2.1123830   -2.2953299  
C   10.4033795    0.1012262   -1.7267239  
O   11.4817380    0.6793963   -1.7156741  
C   10.2762670   -1.3259329   -1.4422735  
H    9.2098638   -4.1009778   -0.9901852  
H    6.9420108    0.7763251   -2.2949060  
H   11.1747885   -1.8831014   -1.2143579  
H    6.5584412   -4.0807193   -1.3208330  
C    0.0000000    0.0000000    0.0000000  
C    1.0541688   -0.0001719   -0.8560391  
C    0.5103141   -0.0000449   -2.1935955  
C   -0.9576367    0.0002461   -2.0455733  
N   -1.2018459   -0.0001392   -0.6915970  
C   -1.8348306    0.0008319   -3.0810611  
C   -1.2972842    0.0009739   -4.4314605  
O   -2.0050664    0.0014267   -5.4301321  
C    0.2542628    0.0004190   -4.6117571  
O    0.7184677    0.0002263   -5.7439119  
C    1.0974556    0.0000880   -3.4189127  
H    2.0940752   -0.0005479   -0.5817978  
H   -2.9081050    0.0011669   -2.9507065  
H   -2.1128195    0.0014911   -0.2706793  
C    1.0672568    0.0000697    2.3021913  
C    0.0000000    0.0000000    1.4700000  
C   -1.1601224    0.0000736    2.3478473  
C   -0.5938729    0.0000769    3.7138435  
N    0.7113367    0.0001554    3.6934124  
C   -1.4286986    0.0001879    4.8835240  
C   -2.7683114    0.0006799    4.6970523  
O   -3.6653903    0.0008304    5.6976972  
C   -3.3702025    0.0010610    3.3310774  
O   -4.5974910    0.0013779    3.2362962  
C   -2.4926826    0.0008943    2.1470656  
H   -0.9878360   -0.0000190    5.8697035  
H   -4.5324246    0.0012261    5.2533954  
H   -2.9677772    0.0012974    1.1752040  
H    2.1134392    0.0000545    2.0405121  
