60

C    1.1243414    0.0099912   -0.7919008  
C    0.7474077    0.0234538   -2.1148545  
C   -0.6787381    0.0234497   -2.1414700  
C   -1.1201746    0.0098604   -0.7935548  
N    0.0000000    0.0000000    0.0000000  
C   -2.4730815    0.0063734   -0.4408243  
C   -3.3971956    0.0171016   -1.4675064  
O   -4.7313519    0.0146310   -1.1793472  
C   -2.9763648    0.0303539   -2.8186327  
O   -4.0166472    0.0395161   -3.7247626  
C   -1.6418562    0.0335279   -3.1673481  
H    1.4178718    0.0310959   -2.9571207  
H   -2.8160167   -0.0041081    0.5845958  
H   -5.1938816    0.0230922   -2.0274387  
H   -3.6464673    0.0482334   -4.6127345  
H    2.1062466    0.0052798   -0.3505407  
C    1.5236698   -1.9535955   -5.5953572  
C    0.7582187   -1.5822012   -4.5428700  
C   -0.2204381   -0.6598275   -5.0978089  
C    0.1097185   -0.5877875   -6.5373887  
N    1.1311693   -1.3441370   -6.8349859  
C   -0.6387792    0.2324873   -7.4495222  
C   -1.6704573    0.9479597   -6.9464571  
O   -2.4537270    1.7547954   -7.6823555  
C   -2.0287020    0.8961218   -5.4983086  
O   -2.9800439    1.5738411   -5.1098947  
C   -1.2456326    0.0471742   -4.5828769  
H    0.8467098   -1.8955443   -3.5166819  
H   -3.0949060    2.1236233   -7.0483140  
H    2.3626182   -2.6311775   -5.6000643  
C   -0.2801568    0.2783996   -8.8743670  
C    0.7160574   -0.3732638   -9.5277941  
C    0.6361790    0.0185333  -10.9152201  
C   -0.4963351    0.9586349  -11.0172589  
N   -1.0093181    1.0731793   -9.7457961  
C   -0.8986323    1.5558239  -12.1675743  
C   -0.1675445    1.2522437  -13.3865425  
O   -0.4523522    1.7391794  -14.4728579  
C    1.0351279    0.2591615  -13.3018506  
O    1.6579781   -0.0043020  -14.3216076  
C    1.3737942   -0.3208707  -12.0046537  
H    1.4257472   -1.0512082   -9.0880832  
H   -1.7319790    2.2425697  -12.2207075  
H    2.2079928   -1.0073987  -11.9544968  
H   -1.7915092    1.6474142   -9.4899062  
C    2.3971438    2.0127888    3.1728260  
C    1.9431056    1.6308205    1.9564670  
C    0.8496017    0.7127664    2.2356185  
C    0.7794028    0.6545384    3.7115134  
N    1.6840587    1.4146091    4.2663826  
C   -0.1885723   -0.1578550    4.3957118  
C   -1.0476298   -0.8789867    3.6398520  
O   -2.0015663   -1.6796266    4.1448486  
C   -1.0022026   -0.8410666    2.1483229  
O   -1.8147390   -1.5232959    1.5241687  
C    0.0000000    0.0000000    1.4700000  
H    2.3054237    1.9346118    0.9892483  
H   -0.2170646   -0.1815267    5.4753125  
H   -2.4487139   -2.0549881    3.3649027  
H    3.2048689    2.6911772    3.3971983  
