58

C    3.2798084    0.0005862   -1.4499658  
C    2.5571139    0.0005570   -2.5996563  
C    1.1637431    0.0001551   -2.2210366  
C    1.1336964   -0.0000200   -0.7459476  
N    2.4483516   -0.0001428   -0.3402732  
C    0.0000000    0.0000000    0.0000000  
C   -1.2757365   -0.0000186   -0.6964421  
O   -2.3524598   -0.0000641   -0.1142305  
C   -1.2676499   -0.0000871   -2.2584082  
O   -2.3355769   -0.0004099   -2.8557292  
C    0.0181555    0.0001763   -2.9516302  
H    0.0150785    0.0003324   -4.0331637  
H    4.3498546    0.0008614   -1.3200035  
H    2.7563629    0.0012823    0.6148051  
C    4.2042261   -0.7245765   -4.3883895  
C    4.4532739   -0.5080827   -5.7056520  
C    3.4504637    0.4176292   -6.1771013  
C    2.5906250    0.7249264   -5.0182069  
N    3.1006048    0.0006269   -3.9654959  
C    1.5247253    1.5641944   -5.0527259  
C    1.2027488    2.2076137   -6.3156107  
O    0.2625089    2.9799151   -6.4490279  
C    2.0996876    1.8965300   -7.5559862  
O    1.8381613    2.4320973   -8.6246455  
C    3.2214639    0.9748209   -7.3949823  
H    5.2485895   -0.9469420   -6.2814026  
H    0.9070130    1.7760616   -4.1910687  
H    4.7339421   -1.3530607   -3.6910382  
C    4.5872157   -0.4983239   -8.9453655  
C    4.0590989    0.6894766   -8.5687990  
C    4.5005820    1.6346079   -9.5828602  
C    5.3075883    0.8249592  -10.5208338  
N    5.3618905   -0.4261485  -10.1523638  
C    5.9317843    1.4006373  -11.6801701  
C    5.7573768    2.7248779  -11.8930148  
O    6.2820720    3.3932216  -12.9341931  
C    4.9482644    3.5687204  -10.9648826  
O    4.8319284    4.7671883  -11.2205402  
C    4.3181073    2.9547809   -9.7825523  
H    6.5161945    0.7853255  -12.3485754  
H    5.9847268    4.3131086  -12.8135848  
H    3.7399635    3.6001921   -9.1349224  
H    4.4910275   -1.4535102   -8.4541014  
C    2.5528530    2.1414826    2.8079335  
C    2.0663498    1.7338582    4.0032312  
C    0.9804344    0.8229586    3.6752840  
C    0.9495562    0.7966882    2.1971295  
N    1.8690446    1.5676019    1.6831036  
C    0.0000000    0.0000000    1.4700000  
C   -0.8785127   -0.7372425    2.1869543  
O   -1.8187535   -1.5261249    1.6395491  
C   -0.8723269   -0.7321790    3.6796354  
O   -1.7010379   -1.4274584    4.2670412  
C    0.1115397    0.0933559    4.4024240  
H    2.4028853    2.0163452    4.9860947  
H   -2.2861435   -1.9184361    2.3990168  
H    0.0832434    0.0693689    5.4835595  
H    3.3664920    2.8238276    2.6198634  
