62

C    3.3003534    0.0005274   -1.4739007  
C    2.5232795    0.0003494   -2.6090763  
C    1.1623184   -0.0001321   -2.1820108  
C    1.1711881    0.0000583   -0.7636147  
N    2.4852294   -0.0014920   -0.3662374  
C    0.0000000    0.0000000    0.0000000  
C   -1.2020395    0.0000519   -0.6806471  
O   -2.3759253    0.0003495    0.0157761  
C   -1.2314670   -0.0005113   -2.0955500  
O   -2.5054410   -0.0008038   -2.6250164  
C   -0.0764538   -0.0007274   -2.8495193  
H    2.8919930   -0.0005622   -3.6205318  
H    2.8036263    0.0088181    0.5858648  
H   -3.0835646    0.0000348   -0.6418799  
H   -2.4360077   -0.0011529   -3.5845907  
H   -0.1304117   -0.0013424   -3.9319085  
C    6.4260906    0.0030627   -4.5098945  
C    7.5522563    0.0028886   -3.7593416  
C    7.0848206    0.0018023   -2.3816614  
C    5.6099745    0.0015407   -2.4884923  
N    5.2179684    0.0021959   -3.7336108  
C    4.7630492    0.0004753   -1.3275432  
C    5.3622555   -0.0006827   -0.1149899  
O    4.6953718   -0.0017513    1.0517601  
C    6.8483156   -0.0008253    0.0256720  
O    7.3251007   -0.0017844    1.1605269  
C    7.6953843    0.0003255   -1.1803121  
H    8.5739818    0.0033401   -4.0986817  
H    5.3903108   -0.0024424    1.7345566  
H    6.3446794    0.0037689   -5.5852290  
C   10.9509600    2.1233551   -3.2904901  
C   11.9963499    1.6230873   -2.5493027  
C   11.4336806    0.7476306   -1.5738138  
C   10.0289294    0.7535330   -1.7701942  
N    9.7695704    1.6005446   -2.8189658  
C    9.1522011   -0.0000271   -0.9838840  
C    9.7036329   -0.7738735    0.0187438  
O    8.8932482   -1.5294587    0.8158522  
C   11.1027852   -0.7927216    0.2304889  
O   11.4969942   -1.6125663    1.2676955  
C   11.9682735   -0.0493591   -0.5446678  
H   13.0364212    1.8608503   -2.6932240  
H    8.8595022    1.7978053   -3.1942607  
H    9.4725014   -1.9848189    1.4406548  
H   12.4550442   -1.5678408    1.3434769  
H   13.0353762   -0.0838760   -0.3587163  
H   10.9544483    2.8128449   -4.1172616  
C    2.3971438    2.0127888    3.1728260  
C    1.9431056    1.6308205    1.9564670  
C    0.8496017    0.7127664    2.2356185  
C    0.7794028    0.6545384    3.7115134  
N    1.6840587    1.4146091    4.2663826  
C   -0.1885723   -0.1578550    4.3957118  
C   -1.0476298   -0.8789867    3.6398520  
O   -2.0015663   -1.6796266    4.1448486  
C   -1.0022026   -0.8410666    2.1483229  
O   -1.8147390   -1.5232959    1.5241687  
C    0.0000000    0.0000000    1.4700000  
H    2.3054237    1.9346118    0.9892483  
H   -0.2170646   -0.1815267    5.4753125  
H   -2.4487139   -2.0549881    3.3649027  
H    3.2048689    2.6911772    3.3971983  
