58

C    3.2798086    0.0005852   -1.4499643  
C    2.5571145    0.0005560   -2.5996550  
C    1.1637436    0.0001543   -2.2210361  
C    1.1336959   -0.0000201   -0.7459466  
N    2.4483512   -0.0001430   -0.3402720  
C    0.0000000    0.0000000    0.0000000  
C   -1.2757364   -0.0000188   -0.6964421  
O   -2.3524600   -0.0000640   -0.1142311  
C   -1.2676494   -0.0000874   -2.2584082  
O   -2.3355759   -0.0004101   -2.8557296  
C    0.0181562    0.0001756   -2.9516298  
H    0.0150791    0.0003313   -4.0331628  
H    4.3498548    0.0008605   -1.3200017  
H    2.7563624    0.0012823    0.6148064  
C    5.9816657   -2.0880618   -4.4453412  
C    5.0429436   -1.6267506   -3.5792758  
C    4.1873010   -0.7324980   -4.3229312  
C    4.7081985   -0.7105040   -5.7031384  
N    5.7962505   -1.5525092   -5.7108626  
C    4.1727807    0.0175968   -6.7155126  
C    3.0057187    0.8342487   -6.4264095  
O    2.4508362    1.5255863   -7.2704822  
C    2.4373471    0.8263667   -4.9715218  
O    1.4553090    1.5102015   -4.7161159  
C    3.1006058    0.0006255   -3.9654945  
H    4.9595393   -1.8834605   -2.5382396  
H    4.5702217    0.0195003   -7.7209711  
H    6.7934415   -2.7740420   -4.2655055  
C    7.5606578   -5.3054643   -7.0486571  
C    8.2073572   -4.9301072   -8.1766933  
C    7.9491454   -3.5037130   -8.3000855  
C    7.1074213   -3.1747069   -7.1296831  
N    6.8764302   -4.2268773   -6.3924110  
C    6.6315174   -1.8409022   -6.8856220  
C    6.9809441   -0.8794018   -7.7703549  
O    6.6077822    0.4074660   -7.6666124  
C    7.8295822   -1.1799070   -8.9610140  
O    8.1085825   -0.2556012   -9.7245839  
C    8.3052514   -2.5559463   -9.1894429  
H    8.7879881   -5.5451911   -8.8427377  
H    7.0085335    0.8449049   -8.4393979  
H    8.9178392   -2.7323651  -10.0634241  
H    7.5077401   -6.2889857   -6.6095002  
C    2.5528530    2.1414826    2.8079335  
C    2.0663498    1.7338582    4.0032312  
C    0.9804344    0.8229586    3.6752840  
C    0.9495562    0.7966882    2.1971295  
N    1.8690446    1.5676019    1.6831036  
C    0.0000000    0.0000000    1.4700000  
C   -0.8785127   -0.7372425    2.1869543  
O   -1.8187535   -1.5261249    1.6395491  
C   -0.8723269   -0.7321790    3.6796354  
O   -1.7010379   -1.4274584    4.2670412  
C    0.1115397    0.0933559    4.4024240  
H    2.4028853    2.0163452    4.9860947  
H   -2.2861435   -1.9184361    2.3990168  
H    0.0832434    0.0693689    5.4835595  
H    3.3664920    2.8238276    2.6198634  
