64

C    6.6264029    0.0033838   -4.4617165  
C    5.3881259    0.0033501   -3.8624359  
C    5.6076651    0.0015731   -2.4530392  
C    7.0115531    0.0008610   -2.2504938  
N    7.6002641    0.0000424   -3.4906694  
C    7.5921594   -0.0005660   -0.9786119  
C    6.7400256   -0.0009802    0.1086075  
O    7.2537882   -0.0020102    1.3731470  
C    5.3365289   -0.0006588   -0.0730883  
O    4.6231718   -0.0015682    1.1077860  
C    4.7630507    0.0004755   -1.3275395  
H    4.4428892    0.0033634   -4.3777240  
H    8.6613878   -0.0012590   -0.8175189  
H    6.4980460   -0.0024348    1.9749099  
H    3.6846505   -0.0012502    0.8961676  
H    6.8919812    0.0040812   -5.5049934  
C   10.0415667    2.1348775   -6.4975622  
C   11.2676507    1.6503684   -6.1045755  
C   11.0360587    0.7780234   -5.0000478  
C    9.6376955    0.7694948   -4.7624906  
N    9.0639402    1.6053011   -5.6881525  
C    9.0482059    0.0145947   -3.7439546  
C    9.8855783   -0.7457797   -2.9509760  
O    9.3626106   -1.5020103   -1.9421982  
C   11.2833949   -0.7501182   -3.1721277  
O   11.9818820   -1.5576289   -2.2984077  
C   11.8656592   -0.0054239   -4.1765803  
H   12.2128135    1.8963754   -6.5575007  
H    8.0808481    1.7911212   -5.7717151  
H   10.1087098   -1.9468326   -1.5194295  
H   12.9174483   -1.5035519   -2.5161070  
H   12.9393624   -0.0286683   -4.3218304  
H    9.7872214    2.8174250   -7.2902762  
C    3.3003548    0.0005276   -1.4738982  
C    2.5232817    0.0003497   -2.6090743  
C    1.1623204   -0.0001319   -2.1820101  
C    1.1711886    0.0000583   -0.7636140  
N    2.4852302   -0.0014919   -0.3662356  
C    0.0000000    0.0000000    0.0000000  
C   -1.2020379    0.0000520   -0.6806479  
O   -2.3759249    0.0003495    0.0157742  
C   -1.2314652   -0.0005112   -2.0955511  
O   -2.5054384   -0.0008036   -2.6250184  
C   -0.0764510   -0.0007271   -2.8495195  
H    2.8919962   -0.0005619   -3.6205297  
H    2.8036267    0.0088181    0.5858667  
H   -3.0835636    0.0000348   -0.6418823  
H   -2.4360038   -0.0011526   -3.5845925  
H   -0.1304090   -0.0013420   -3.9319089  
C    2.3971438    2.0127888    3.1728260  
C    1.9431056    1.6308205    1.9564670  
C    0.8496017    0.7127664    2.2356185  
C    0.7794028    0.6545384    3.7115134  
N    1.6840587    1.4146091    4.2663826  
C   -0.1885723   -0.1578550    4.3957118  
C   -1.0476298   -0.8789867    3.6398520  
O   -2.0015663   -1.6796266    4.1448486  
C   -1.0022026   -0.8410666    2.1483229  
O   -1.8147390   -1.5232959    1.5241687  
C    0.0000000    0.0000000    1.4700000  
H    2.3054237    1.9346118    0.9892483  
H   -0.2170646   -0.1815267    5.4753125  
H   -2.4487139   -2.0549881    3.3649027  
H    3.2048689    2.6911772    3.3971983  
