64

C    5.9071324   -2.1224385   -4.5070223  
C    5.7365515   -1.6242144   -5.7779050  
C    4.6105082   -0.7497128   -5.7346240  
C    4.1312171   -0.7540643   -4.3996377  
N    4.9399006   -1.5992754   -3.6811211  
C    3.0267438   -0.0008951   -3.9901699  
C    2.3947819    0.7709585   -4.9457033  
O    1.3115941    1.5260769   -4.5999943  
C    2.8578549    0.7882375   -6.2828947  
O    2.1221352    1.6061780   -7.1153807  
C    3.9472181    0.0452595   -6.6876135  
H    4.8491910   -1.7951602   -2.7006202  
H    1.0273566    1.9799842   -5.4040106  
H    2.5005421    1.5604818   -7.9987397  
H    4.2787225    0.0785432   -7.7188635  
H    6.6413440   -2.8106947   -4.1246680  
C    7.0807374   -3.1947704   -7.2294390  
C    7.8255672   -3.1258094   -8.3839696  
C    7.7750178   -1.7725007   -8.8318561  
C    6.9782366   -1.0560023   -7.9025042  
N    6.5711555   -1.9498460   -6.9433660  
C    6.7128196    0.3108181   -8.0295643  
C    7.2619998    0.9663419   -9.1144007  
O    7.0349421    2.3011973   -9.2865040  
C    8.0593786    0.2687001  -10.0526427  
O    8.5334796    1.0613209  -11.0774976  
C    8.3214116   -1.0797605   -9.9280711  
H    8.3409186   -3.9498028   -8.8470473  
H    6.1062257    0.8626425   -7.3247692  
H    7.5021131    2.5558954  -10.0928196  
H    9.0618396    0.5136134  -11.6661019  
H    8.9356268   -1.5872531  -10.6626932  
H    6.8714849   -4.0337903   -6.5881763  
C    3.3003547    0.0005277   -1.4738986  
C    2.5232816    0.0003497   -2.6090746  
C    1.1623203   -0.0001319   -2.1820102  
C    1.1711884    0.0000584   -0.7636141  
N    2.4852301   -0.0014919   -0.3662359  
C    0.0000000    0.0000000    0.0000000  
C   -1.2020383    0.0000520   -0.6806479  
O   -2.3759248    0.0003493    0.0157745  
C   -1.2314655   -0.0005115   -2.0955511  
O   -2.5054388   -0.0008040   -2.6250184  
C   -0.0764513   -0.0007274   -2.8495195  
H    2.8036266    0.0088183    0.5858662  
H   -3.0835639    0.0000346   -0.6418822  
H   -2.4360043   -0.0011529   -3.5845924  
H   -0.1304091   -0.0013423   -3.9319089  
H    4.3715553    0.0004897   -1.3667133  
C    0.0000000    0.0000000    1.4700000  
C    1.0662921    0.0000102    2.3034270  
C    0.4961870   -0.0000064    3.6418889  
C   -0.9663858    0.0000850    3.4240247  
N   -1.2632773    0.0000084    2.1528658  
C   -1.8985362    0.0000517    4.5177257  
C   -1.3925775   -0.0004564    5.7720543  
O   -2.1456383   -0.0005410    6.8851312  
C    0.0786232   -0.0009323    6.0245000  
O    0.4683759   -0.0012588    7.1921102  
C    1.0143166   -0.0008442    4.8859032  
H    2.1107198   -0.0000632    2.0421868  
H   -2.9622183    0.0003270    4.3293377  
H   -1.5042274   -0.0009692    7.6184419  
H    2.0724152   -0.0013148    5.1109744  
