60

C    0.0000000    0.0000000    0.0000000  
C   -1.0115594    0.2894874   -0.8862343  
C   -0.4725688    0.1359047   -2.1979131  
C    0.8834841   -0.2520812   -2.0478684  
N    1.1382741   -0.3233792   -0.7007912  
C    1.7261612   -0.4929558   -3.1372090  
C    1.1900617   -0.3396577   -4.4010422  
O    1.9686187   -0.5625659   -5.4997576  
C   -0.1605786    0.0471691   -4.5711960  
O   -0.5450646    0.1574710   -5.8915547  
C   -0.9924041    0.2852261   -3.4969890  
H   -2.0142498    0.5771592   -0.6200565  
H    2.0158157   -0.5850629   -0.2891825  
H    2.7606182   -0.7887770   -3.0295513  
H    1.4072835   -0.4016888   -6.2693589  
H   -1.4696232    0.4222255   -5.9180046  
C   -3.7985309    3.1797361   -1.5964878  
C   -2.6822461    2.4631402   -1.8647755  
C   -3.0433061    1.6132091   -2.9889428  
C   -4.4522009    1.9565160   -3.2783208  
N   -4.9003114    2.8742817   -2.4653676  
C   -5.1872260    1.3234897   -4.3385578  
C   -4.5438874    0.3902136   -5.0764230  
O   -5.1073484   -0.2797752   -6.0960641  
C   -3.1221643    0.0221408   -4.8092394  
O   -2.5999930   -0.8360104   -5.5206705  
C   -2.3897462    0.6856912   -3.7159924  
H   -1.7312316    2.5060778   -1.3619797  
H   -6.2158903    1.5937124   -4.5276057  
H   -4.4050766   -0.8708565   -6.4225463  
C   -3.9927969    4.1957428   -0.5520306  
C   -3.1111658    4.6485683    0.3762748  
C   -3.8011459    5.6446348    1.1615227  
C   -5.1668230    5.7356223    0.6106702  
N   -5.2182067    4.8322711   -0.4257689  
C   -6.1315598    6.5665244    1.0803390  
C   -5.8028373    7.4289089    2.2031790  
O   -6.6028127    8.2121280    2.6980604  
C   -4.3624644    7.3493965    2.8021860  
O   -4.0740036    8.0708446    3.7474710  
C   -3.4090932    6.4140365    2.2105472  
H   -2.0935596    4.3222126    0.4970371  
H   -7.1271702    6.6176668    0.6619444  
H   -2.4139414    6.3649254    2.6312435  
H   -6.0226654    4.6602729   -1.0004949  
C    1.0672568    0.0000697    2.3021913  
C    0.0000000    0.0000000    1.4700000  
C   -1.1601224    0.0000736    2.3478473  
C   -0.5938729    0.0000769    3.7138435  
N    0.7113367    0.0001554    3.6934124  
C   -1.4286986    0.0001879    4.8835240  
C   -2.7683114    0.0006799    4.6970523  
O   -3.6653903    0.0008304    5.6976972  
C   -3.3702025    0.0010610    3.3310774  
O   -4.5974910    0.0013779    3.2362962  
C   -2.4926826    0.0008943    2.1470656  
H   -0.9878360   -0.0000190    5.8697035  
H   -4.5324246    0.0012261    5.2533954  
H   -2.9677772    0.0012974    1.1752040  
H    2.1134392    0.0000545    2.0405121  
