62

C    1.1188644    0.0008220   -0.8003805  
C    0.0000000    0.0000000    0.0000000  
C   -1.1323861    0.0008897   -0.8673528  
C   -0.6382658    0.0019676   -2.1969280  
N    0.7324021    0.0038479   -2.1202235  
C   -1.4770908    0.0027313   -3.3154810  
C   -2.8395468    0.0020939   -3.0876860  
O   -3.7039193    0.0024420   -4.1440354  
C   -3.3517864    0.0013925   -1.7684331  
O   -4.7300488    0.0012361   -1.7073129  
C   -2.5248543    0.0009122   -0.6644820  
H    1.3576321   -0.0056170   -2.9057040  
H   -4.5940021    0.0021818   -3.7685138  
H   -4.9934598    0.0007257   -0.7819921  
H   -2.9462577    0.0005601    0.3339650  
H    2.1619891    0.0009354   -0.5342067  
C    1.9333069   -2.1182746   -5.2802154  
C    1.0133391   -1.6572496   -4.3672080  
C    0.1426192   -0.7691975   -5.0656425  
C    0.5838558   -0.7277679   -6.4130548  
N    1.6740003   -1.5566766   -6.5085135  
C   -0.0442374    0.0493809   -7.3909748  
C   -1.1378605    0.7981152   -7.0016649  
O   -1.7887531    1.5744837   -7.9163250  
C   -1.5929370    0.7702823   -5.6619077  
O   -2.6929646    1.5704859   -5.4317842  
C   -0.9736287    0.0040457   -4.6965766  
H    0.9752628   -1.9268942   -3.3256538  
H    2.1940570   -1.7371913   -7.3481186  
H   -2.5111336    2.0069650   -7.4426253  
H   -2.9358036    1.4942139   -4.5039824  
H    2.7547995   -2.8021595   -5.1521113  
C    0.8494277   -0.9242160   -9.5572143  
C    0.4064048    0.0983676   -8.7893386  
C    0.4711203    1.2693025   -9.6502820  
C    0.9896074    0.7575682  -10.9370933  
N    1.2131524   -0.5276030  -10.8885961  
C    1.2010454    1.6180922  -12.0684106  
C    0.9074793    2.9301260  -11.9210293  
O    1.0560963    3.8462743  -12.8929475  
C    0.3823613    3.4768696  -10.6351505  
O    0.1368508    4.6814494  -10.5724351  
C    0.1741020    2.5738614   -9.4892321  
H    1.5812090    1.2171324  -12.9966436  
H    0.7668139    4.6846611  -12.4897404  
H   -0.2078851    3.0089524   -8.5754421  
H    0.9534822   -1.9624979   -9.2849697  
C    2.5528530    2.1414826    2.8079335  
C    2.0663498    1.7338582    4.0032312  
C    0.9804344    0.8229586    3.6752840  
C    0.9495562    0.7966882    2.1971295  
N    1.8690446    1.5676019    1.6831036  
C    0.0000000    0.0000000    1.4700000  
C   -0.8785127   -0.7372425    2.1869543  
O   -1.8187535   -1.5261249    1.6395491  
C   -0.8723269   -0.7321790    3.6796354  
O   -1.7010379   -1.4274584    4.2670412  
C    0.1115397    0.0933559    4.4024240  
H    2.4028853    2.0163452    4.9860947  
H   -2.2861435   -1.9184361    2.3990168  
H    0.0832434    0.0693689    5.4835595  
H    3.3664920    2.8238276    2.6198634  
