60

C    0.0000000    0.0000000    0.0000000  
C    0.7157253    0.7712285   -0.8862348  
C    0.3349575    0.3599928   -2.1979133  
C   -0.6244343   -0.6739225   -2.0478684  
N   -0.8032671   -0.8689095   -0.7007915  
C   -1.2204156   -1.3165195   -3.1372092  
C   -0.8412103   -0.9077341   -4.4010425  
O   -1.3921657   -1.5012715   -5.4997578  
C    0.1146993    0.1218780   -4.5711965  
O    0.3869820    0.4148937   -5.8915553  
C    0.7032601    0.7560717   -3.4969896  
H    1.4258193    1.5353675   -0.6200570  
H   -1.4335774   -1.5331889   -0.2891825  
H   -1.9521470   -2.1053040   -3.0295510  
H   -0.9947863   -1.0734075   -6.2693592  
H    1.0412974    1.1197166   -5.9180052  
C    2.8323914    2.0144584   -3.0037690  
C    1.6924573    1.8211663   -3.7159928  
C    1.6429613    2.8571005   -4.7205950  
C    2.8562154    3.6756148   -4.5339418  
N    3.5342421    3.1125177   -3.4774897  
C    3.1786254    4.7559184   -5.2893894  
C    2.2699469    5.1381161   -6.3574547  
O    2.4716063    6.0956534   -7.0928162  
C    0.9789329    4.2856831   -6.5729684  
O    0.2062602    4.5980306   -7.4688907  
C    0.7399117    3.1431928   -5.6946535  
H   -0.1561671    2.5580027   -5.8506001  
H    3.2186860    1.4472478   -2.1725423  
H    4.4058036    3.4464546   -3.1088248  
C    4.3955757    5.5536645   -5.0807416  
C    5.3631289    5.3706066   -4.1523508  
C    6.3227593    6.4366700   -4.3954933  
C    5.7616900    7.1898435   -5.5376471  
N    4.6320235    6.6769509   -5.9435832  
C    6.4244326    8.3388095   -6.0905795  
C    7.5943032    8.7183452   -5.5278249  
O    8.3196844    9.7711481   -5.9419129  
C    8.1860560    7.9790250   -4.3739638  
O    9.2539732    8.3806322   -3.9119194  
C    7.4870953    6.8035512   -3.8247469  
H    5.4187209    4.6065678   -3.3958922  
H    5.9917014    8.8701962   -6.9256137  
H    9.0935279    9.7871797   -5.3502527  
H    7.9486449    6.2955152   -2.9886243  
C    3.3321173   -0.0004715    2.8079335  
C    2.6974184   -0.0000116    4.0032312  
C    1.2800439    0.0002118    3.6752840  
C    1.2395035   -0.0000644    2.1971295  
N    2.4394063   -0.0005460    1.6831036  
C    0.0000000    0.0000000    1.4700000  
C   -1.1468701   -0.0000635    2.1869543  
O   -2.3742202   -0.0000073    1.6395491  
C   -1.1388768   -0.0001607    3.6796354  
O   -2.2206231   -0.0000905    4.2670412  
C    0.1454524   -0.0001816    4.4024240  
H    3.1367986    0.0000651    4.9860947  
H   -2.9844344   -0.0001026    2.3990168  
H    0.1083576   -0.0003682    5.4835595  
H    4.3940039   -0.0007619    2.6198634  
