64

C   -3.9682051    0.7216920   -2.0578206  
C   -3.2578655    0.0024282   -2.9908505  
C   -4.2079031   -0.7252728   -3.7670463  
C   -5.4928184   -0.4072582   -3.2573538  
N   -5.3110076    0.4722168   -2.2190444  
C   -6.6702484   -0.9459426   -3.7848632  
C   -6.5483633   -1.8213774   -4.8464357  
O   -7.6658887   -2.3762214   -5.3998763  
C   -5.2750889   -2.1513167   -5.3686705  
O   -5.3202343   -3.0371227   -6.4253879  
C   -4.1130838   -1.6204795   -4.8485905  
H   -7.6525699   -0.7076997   -3.4008234  
H   -7.3606740   -2.9484702   -6.1158659  
H   -4.4197931   -3.2069056   -6.7186181  
H   -3.1520153   -1.8920014   -5.2694251  
H   -3.6231571    1.3918167   -1.2891638  
C   -6.4080589    2.3722683   -0.9673590  
C   -7.5541256    2.5803071   -0.2354303  
C   -8.2739107    1.3488537   -0.2299101  
C   -7.5115225    0.4177757   -0.9807639  
N   -6.3858715    1.0723064   -1.4156391  
C   -7.9196148   -0.9037868   -1.1850225  
C   -9.1190408   -1.2925976   -0.6207680  
O   -9.5646586   -2.5717437   -0.7887666  
C   -9.8940565   -0.3780658    0.1314285  
O  -11.0631209   -0.9168563    0.6277509  
C   -9.4922103    0.9259162    0.3331141  
H   -7.8371336    3.5060974    0.2355380  
H   -7.3431924   -1.6182588   -1.7563969  
H  -10.4079071   -2.6307534   -0.3210960  
H  -11.5264979   -0.2342793    1.1226997  
H  -10.1070658    1.6036396    0.9137366  
H   -5.6053930    3.0487217   -1.2063104  
C    0.0000000    0.0000000    0.0000000  
C    1.0521666   -0.0011982   -0.8862343  
C    0.4917215   -0.0011996   -2.1979132  
C   -0.9187429    0.0003215   -2.0478682  
N   -1.1833171   -0.0009323   -0.7007913  
C   -1.7951703    0.0010483   -3.1372089  
C   -1.2375841    0.0005313   -4.4010422  
O   -2.0474218    0.0015510   -5.4997578  
C    0.1673576   -0.0013585   -4.5711963  
O    0.5673520   -0.0020735   -5.8915554  
C    1.0325768   -0.0023493   -3.4969892  
H    2.0953056   -0.0030808   -0.6200564  
H   -2.0989778    0.0102529   -0.2891822  
H   -1.4634888    0.0006601   -6.2693595  
H    1.5290707   -0.0033271   -5.9180047  
H    2.1042146   -0.0039770   -3.6584456  
C    3.1301144    0.0010313    3.1728260  
C    2.5367765    0.0002768    1.9564670  
C    1.1089900   -0.0001027    2.2356185  
C    1.0177864    0.0004150    3.7115134  
N    2.1993570    0.0011613    4.2663826  
C   -0.2459220    0.0002880    4.3957118  
C   -1.3675327    0.0000606    3.6398520  
O   -2.6129319   -0.0000866    4.1448486  
C   -1.3083589   -0.0000910    2.1483229  
O   -2.3693264   -0.0004206    1.5241687  
C    0.0000000    0.0000000    1.4700000  
H    3.0096015    0.0001008    0.9892483  
H   -0.2829642    0.0004689    5.4753125  
H   -3.1967446   -0.0002093    3.3649027  
H    4.1849273    0.0015113    3.3971983  
