58

C   -4.4297975    2.1087666   -0.2339395  
C   -5.6380117    1.6447699   -0.6450362  
C   -5.3911867    0.7496341   -1.7507688  
C   -3.9296540    0.7300036   -1.9515851  
N   -3.4052343    1.5747185   -1.0006224  
C   -3.2941073    0.0012875   -2.9038235  
C   -4.1035800   -0.8182218   -3.7902173  
O   -3.6253058   -1.5102284   -4.6794206  
C   -5.6534086   -0.8124886   -3.5957845  
O   -6.3452683   -1.4982644   -4.3362582  
C   -6.2225101    0.0137341   -2.5340250  
H   -7.2964261    0.0119728   -2.4058660  
H   -4.2016944    2.7960858    0.5644658  
H   -2.4284973    1.7712465   -0.8805867  
C    0.0000000    0.0000000    0.0000000  
C    1.0541689   -0.0001722   -0.8560390  
C    0.5103139   -0.0000454   -2.1935956  
C   -0.9576368    0.0002458   -2.0455729  
N   -1.2018455   -0.0001391   -0.6915967  
C   -1.8348312    0.0008316   -3.0810606  
C   -1.2972849    0.0009739   -4.4314602  
O   -2.0050671    0.0014266   -5.4301317  
C    0.2542626    0.0004186   -4.6117571  
O    0.7184667    0.0002261   -5.7439121  
C    1.0974551    0.0000875   -3.4189129  
H    2.0940753   -0.0005483   -0.5817984  
H    2.1707276   -0.0000910   -3.5523671  
H   -2.1128191    0.0014911   -0.2706788  
C   -6.9435640    1.9943663   -0.0669230  
C   -7.2006622    2.8289166    0.9670047  
C   -8.6476827    2.8069934    1.1158371  
C   -9.1168326    1.8824246    0.0614868  
N   -8.1223809    1.4028803   -0.6349997  
C  -10.5105001    1.5862198   -0.1256987  
C  -11.3952390    2.1860790    0.7029996  
O  -12.7249732    2.0013192    0.6420721  
C  -10.9528639    3.1237266    1.7769093  
O  -11.8132477    3.6337527    2.4944286  
C   -9.5177209    3.4114102    1.9487495  
H   -6.4954513    3.3900201    1.5560009  
H  -10.8251211    0.9068497   -0.9044024  
H  -13.0856179    2.5581653    1.3555218  
H   -9.2381939    4.0960225    2.7383066  
C    3.3321173   -0.0004715    2.8079335  
C    2.6974184   -0.0000116    4.0032312  
C    1.2800439    0.0002118    3.6752840  
C    1.2395035   -0.0000644    2.1971295  
N    2.4394063   -0.0005460    1.6831036  
C    0.0000000    0.0000000    1.4700000  
C   -1.1468701   -0.0000635    2.1869543  
O   -2.3742202   -0.0000073    1.6395491  
C   -1.1388768   -0.0001607    3.6796354  
O   -2.2206231   -0.0000905    4.2670412  
C    0.1454524   -0.0001816    4.4024240  
H    3.1367986    0.0000651    4.9860947  
H   -2.9844344   -0.0001026    2.3990168  
H    0.1083576   -0.0003682    5.4835595  
H    4.3940039   -0.0007619    2.6198634  
