60

C   -0.6780184    0.8969579   -0.7919015  
C   -0.4642145    0.5862356   -2.1148550  
C    0.3856291   -0.5590406   -2.1414702  
C    0.6595937   -0.9054418   -0.7935548  
N    0.0000000    0.0000000    0.0000000  
C    1.4685912   -1.9898271   -0.4408239  
C    2.0106560   -2.7383386   -1.4675051  
O    2.8076637   -3.8082714   -1.1793460  
C    1.7492409   -2.4082838   -2.8186320  
O    2.3617878   -3.2491517   -3.7247614  
C    0.9514582   -1.3384867   -3.1673479  
H   -0.8698808    1.1201033   -2.9571216  
H    1.6813637   -2.2589785    0.5845970  
H    3.0764908   -4.1847529   -2.0274370  
H    2.1341971   -2.9570700   -4.6127333  
H   -1.2593522    1.6882929   -0.3505414  
C    0.7024694    2.4715719   -5.3849795  
C    0.8403284    1.5260225   -4.4200931  
C    0.6693911    0.2431673   -5.0603260  
C    0.4188774    0.5208340   -6.4875380  
N    0.4513817    1.8900271   -6.6184710  
C    0.2065062   -0.4318154   -7.4304390  
C    0.2257408   -1.8234900   -7.0116219  
O    0.0452079   -2.7545390   -7.7854804  
C    0.4889393   -2.1406895   -5.5049977  
O    0.5071476   -3.3086378   -5.1405444  
C    0.7043903   -1.0284282   -4.5828766  
H    1.0389031    1.7066132   -3.3786668  
H    0.0247084   -0.2067836   -8.4721780  
H    0.3158111    2.3897634   -7.4780822  
C    1.4340431    5.3511771   -2.0627640  
C    1.2603073    4.1933690   -2.7416426  
C    1.0235832    4.5979973   -4.1188640  
C    1.0908243    6.0749001   -4.0902104  
N    1.3312564    6.5221483   -2.8876501  
C    0.9060419    6.8680531   -5.2742081  
C    0.6654232    6.2154319   -6.4341745  
O    0.4737955    6.8286162   -7.6145664  
C    0.5920110    4.7257991   -6.4955440  
O    0.3693876    4.1988708   -7.5855008  
C    0.7849690    3.9345296   -5.2672992  
H    1.2893100    3.1888007   -2.3555381  
H    0.9602709    7.9457646   -5.2241255  
H    0.3268542    6.1042590   -8.2492850  
H    1.6332915    5.4807792   -1.0108717  
C    0.8175213    0.6860729    2.3021913  
C    0.0000000    0.0000000    1.4700000  
C   -0.8887526   -0.7456559    2.3478473  
C   -0.4549825   -0.3816753    3.7138435  
N    0.5448156    0.4573574    3.6934124  
C   -1.0945674   -0.9182058    4.8835240  
C   -2.1210866   -1.7789155    4.6970523  
O   -2.8083856   -2.3554314    5.6976972  
C   -2.5824069   -2.1655116    3.3310774  
O   -3.5227682   -2.9541547    3.2362962  
C   -1.9100805   -1.6015804    2.1470656  
H   -0.7567140   -0.6349833    5.8697035  
H   -3.4728268   -2.9124471    5.2533954  
H   -2.2742832   -1.9066565    1.1752040  
H    1.6189533    1.3585343    2.0405121  
