60

C    3.3041272    0.0001178   -1.5420437  
C    2.5845373   -0.0004779   -0.3695863  
C    1.2040006   -0.0000007   -0.7283594  
C    1.1422373    0.0006039   -2.1454379  
N    2.4348636    0.0026111   -2.6077468  
C   -0.0655185    0.0008799   -2.8497924  
C   -1.2321770    0.0002325   -2.1101400  
O   -2.4392818    0.0001148   -2.7472522  
C   -1.1911211   -0.0000007   -0.6955266  
O   -2.4371525   -0.0002319   -0.1032866  
C    0.0000000    0.0000000    0.0000000  
H    3.0031536   -0.0000661    0.6222576  
H    2.7054625   -0.0071097   -3.5745267  
H   -3.1132991   -0.0000648   -2.0551789  
H   -2.3200280   -0.0004071    0.8516406  
H    4.3686620    0.0004072   -1.7024302  
C   -0.1387085    0.0017019   -4.3179685  
C    0.8715312    0.0021967   -5.2254326  
C    0.2617550    0.0029742   -6.5342516  
C   -1.1970056    0.0029205   -6.3133249  
N   -1.3734978    0.0017347   -4.9488692  
C   -2.1246679    0.0039286   -7.3038525  
C   -1.6550235    0.0049216   -8.6793407  
O   -2.4116513    0.0058065   -9.6415337  
C   -0.1143777    0.0047445   -8.9366650  
O    0.2928821    0.0052677  -10.0905283  
C    0.7871604    0.0038970   -7.7872819  
H    1.9238023    0.0018530   -5.0033081  
H    1.8524573    0.0039850   -7.9740081  
H   -2.2623846    0.0029668   -4.4831156  
C   -3.5733100    0.0040243   -7.0541797  
C   -4.2135231    0.0032053   -5.8618269  
C   -5.6293677    0.0037483   -6.1963164  
C   -5.6630798    0.0050375   -7.6746421  
N   -4.4608157    0.0051241   -8.1831202  
C   -6.8992113    0.0058478   -8.4074881  
C   -8.0493809    0.0050022   -7.6958393  
O   -9.2741898    0.0056142   -8.2489079  
C   -8.0482823    0.0033236   -6.2031385  
O   -9.1327308    0.0027502   -5.6207359  
C   -6.7673056    0.0025622   -5.4744258  
H   -3.7786871    0.0022494   -4.8769447  
H   -6.8942220    0.0069923   -9.4877124  
H   -9.8879055    0.0047022   -7.4922674  
H   -6.8093934    0.0012294   -4.3934739  
C    0.0000000    0.0000000    1.4700000  
C    1.0662921    0.0000102    2.3034270  
C    0.4961870   -0.0000064    3.6418889  
C   -0.9663858    0.0000850    3.4240247  
N   -1.2632773    0.0000084    2.1528658  
C   -1.8985362    0.0000517    4.5177257  
C   -1.3925775   -0.0004564    5.7720543  
O   -2.1456383   -0.0005410    6.8851312  
C    0.0786232   -0.0009323    6.0245000  
O    0.4683759   -0.0012588    7.1921102  
C    1.0143166   -0.0008442    4.8859032  
H    2.1107198   -0.0000632    2.0421868  
H   -2.9622183    0.0003270    4.3293377  
H   -1.5042274   -0.0009692    7.6184419  
H    2.0724152   -0.0013148    5.1109744  
