58

C    3.1301152   -0.0010311   -1.7028248  
C    2.5367767   -0.0002766   -0.4864663  
C    1.1089906    0.0001028   -0.7656180  
C    1.0177872   -0.0004148   -2.2415129  
N    2.1993581   -0.0011610   -2.7963816  
C   -0.2459210   -0.0002877   -2.9257117  
C   -1.3675316   -0.0000605   -2.1698524  
O   -2.6129307    0.0000866   -2.6748494  
C   -1.3083586    0.0000911   -0.6783233  
O   -2.3693263    0.0004206   -0.0541693  
C    0.0000000    0.0000000    0.0000000  
H    3.0096017   -0.0001007    0.4807526  
H   -3.1967436    0.0002093   -1.8949037  
C    6.8847540    0.0010459    0.6986590  
C    5.5715645    0.0014849    0.3713776  
C    5.5475447   -0.0003217   -1.0832424  
C    6.9721660   -0.0016280   -1.4795206  
N    7.7607282   -0.0009150   -0.4392516  
C    7.3784672   -0.0036303   -2.8579260  
C    6.4057884   -0.0046863   -3.7977288  
O    6.6406183   -0.0065623   -5.1209414  
C    4.9592106   -0.0037854   -3.4295261  
O    4.1279724   -0.0047102   -4.3374151  
C    4.5679462   -0.0016852   -2.0086697  
H    4.7238869    0.0027739    1.0350927  
H    8.4267356   -0.0043452   -3.1187766  
H    5.7562733   -0.0069356   -5.5297042  
H    7.3236786    0.0019892    1.6837063  
C    0.4920782   -0.6868678   -5.2544640  
C   -0.2963280   -0.0005339   -4.3948472  
C   -1.2145530    0.7451072   -5.2418310  
C   -0.8279307    0.3808332   -6.6218354  
N    0.1718600   -0.4583448   -6.6355552  
C   -1.5071716    0.9172630   -7.7689886  
C   -2.5265699    1.7781567   -7.5475759  
O   -3.2476948    2.3546073   -8.5241638  
C   -2.9407238    2.1650503   -6.1666517  
O   -3.8771692    2.9538492   -6.0398172  
C   -2.2282730    1.6012172   -5.0062937  
H   -1.2033739    0.6338251   -8.7661242  
H   -3.8964302    2.9117964   -8.0574356  
H   -2.5588924    1.9065103   -4.0225673  
H    1.3019159   -1.3594047   -5.0203037  
C    0.8175213    0.6860729    2.3021913  
C    0.0000000    0.0000000    1.4700000  
C   -0.8887526   -0.7456559    2.3478473  
C   -0.4549825   -0.3816753    3.7138435  
N    0.5448156    0.4573574    3.6934124  
C   -1.0945674   -0.9182058    4.8835240  
C   -2.1210866   -1.7789155    4.6970523  
O   -2.8083856   -2.3554314    5.6976972  
C   -2.5824069   -2.1655116    3.3310774  
O   -3.5227682   -2.9541547    3.2362962  
C   -1.9100805   -1.6015804    2.1470656  
H   -0.7567140   -0.6349833    5.8697035  
H   -3.4728268   -2.9124471    5.2533954  
H   -2.2742832   -1.9066565    1.1752040  
H    1.6189533    1.3585343    2.0405121  
