60

C   -1.1241199    0.0244224   -0.7919008  
C   -0.7477746   -0.0005692   -2.1148548  
C    0.6777034   -0.0442103   -2.1414696  
C    1.1193483   -0.0441370   -0.7935541  
N    0.0000000    0.0000000    0.0000000  
C    2.4717285   -0.0820553   -0.4408233  
C    3.3950815   -0.1210595   -1.4675053  
O    4.7286882   -0.1594198   -1.1793457  
C    2.9740430   -0.1214265   -2.8186317  
O    4.0135577   -0.1624207   -3.7247607  
C    1.6400622   -0.0837583   -3.1673477  
H    2.8148237   -0.0820737    0.5845983  
H    5.1907431   -0.1820321   -2.0274365  
H    3.6432842   -0.1598049   -4.6127330  
H    1.3477821   -0.0848745   -4.2109227  
H   -2.1054214    0.0591814   -0.3505415  
C   -1.6631522    0.0170180   -3.2649303  
C   -3.0204136    0.0587440   -3.2781792  
C   -3.4281067    0.0584657   -4.6633222  
C   -2.1882179    0.0128007   -5.4616839  
N   -1.1541417   -0.0102672   -4.5544665  
C   -2.1472025   -0.0014516   -6.8180832  
C   -3.4083916    0.0305297   -7.5398277  
O   -3.4769014    0.0210018   -8.7619224  
C   -4.7337293    0.0793276   -6.7146586  
O   -5.8016632    0.1068538   -7.3113333  
C   -4.6501815    0.0904328   -5.2563212  
H   -3.6626854    0.0867275   -2.4160205  
H   -5.5724212    0.1240874   -4.6923483  
H   -0.1798356   -0.0439915   -4.7924528  
C    0.2043676   -0.7834963   -7.2855524  
C   -0.8959096   -0.0473727   -7.5881854  
C   -0.5984358    0.6745460   -8.8027545  
C    0.7751770    0.2959279   -9.1856729  
N    1.2056983   -0.5898956   -8.2250181  
C    1.4251892    0.7653376  -10.2805902  
C    0.7252829    1.7064293  -11.1390844  
O    1.2249914    2.1862341  -12.1482330  
C   -0.7300850    2.1215622  -10.7525956  
O   -1.3292218    2.9134403  -11.4675961  
C   -1.3249980    1.5478783   -9.5480973  
H    2.4328058    0.4747195  -10.5435732  
H   -2.3331395    1.8402960   -9.2875860  
H    0.3680388   -1.4509641   -6.4551380  
H    2.1075707   -1.0297199   -8.2099262  
C    0.8175213    0.6860729    2.3021913  
C    0.0000000    0.0000000    1.4700000  
C   -0.8887526   -0.7456559    2.3478473  
C   -0.4549825   -0.3816753    3.7138435  
N    0.5448156    0.4573574    3.6934124  
C   -1.0945674   -0.9182058    4.8835240  
C   -2.1210866   -1.7789155    4.6970523  
O   -2.8083856   -2.3554314    5.6976972  
C   -2.5824069   -2.1655116    3.3310774  
O   -3.5227682   -2.9541547    3.2362962  
C   -1.9100805   -1.6015804    2.1470656  
H   -0.7567140   -0.6349833    5.8697035  
H   -3.4728268   -2.9124471    5.2533954  
H   -2.2742832   -1.9066565    1.1752040  
H    1.6189533    1.3585343    2.0405121  
