62

C   -3.3041007    0.0133623   -1.5420424  
C   -2.5845140    0.0110222   -0.3695848  
C   -1.2039907    0.0049127   -0.7283589  
C   -1.1422316    0.0040563   -2.1454368  
N   -2.4348549    0.0073227   -2.6077461  
C    0.0655133   -0.0011470   -2.8497919  
C    1.2321649   -0.0052594   -2.1101400  
O    2.4392600   -0.0100663   -2.7472527  
C    1.1911103   -0.0048587   -0.6955268  
O    2.4371330   -0.0097109   -0.1032865  
C    0.0000000    0.0000000    0.0000000  
H   -3.0031281    0.0123181    0.6222588  
H   -2.7054122    0.0181474   -3.5745255  
H    0.1193471   -0.0019713   -3.9297468  
H    3.1132732   -0.0126366   -2.0551793  
H    2.3200112   -0.0090580    0.8516404  
C   -6.7747393    0.0313099    1.2764688  
C   -5.5081714    0.0260265    0.7395840  
C   -5.6572754    0.0240909   -0.6789945  
C   -7.0493304    0.0286965   -0.9511861  
N   -7.6990533    0.0310605    0.2581411  
C   -7.5658955    0.0286148   -2.2503969  
C   -6.6606986    0.0241030   -3.2938409  
O   -7.1108670    0.0241633   -4.5823914  
C   -5.2679974    0.0190931   -3.0424922  
O   -4.4967428    0.0145586   -4.1863842  
C   -4.7576851    0.0188974   -1.7610452  
H   -4.5897688    0.0227317    1.3012947  
H   -8.6953102    0.0449721    0.3816733  
H   -8.6257730    0.0319672   -2.4645253  
H   -6.3261101    0.0203651   -5.1457800  
H   -3.5699274    0.0113765   -3.9283012  
C   -6.3621529    0.0327711    3.7800931  
C   -7.0699611    0.0345279    4.9390062  
C   -8.4680949    0.0374179    4.5783843  
C   -8.5171596    0.0371699    3.1038056  
N   -7.2078470    0.0346974    2.6812131  
C   -9.6603781    0.0390323    2.3725381  
C  -10.9270268    0.0416677    3.0853703  
O  -12.0111649    0.0435417    2.5170923  
C  -10.8987987    0.0422283    4.6471028  
O  -11.9589324    0.0447464    5.2581446  
C   -9.6041647    0.0397807    5.3236878  
H   -6.6594889    0.0340563    5.9330520  
H   -9.6743199    0.0386811    1.2914665  
H   -9.5932957    0.0399817    6.4051710  
H   -5.2938736    0.0304482    3.6363447  
C    0.0000000    0.0000000    1.4700000  
C    1.0662921    0.0000102    2.3034270  
C    0.4961870   -0.0000064    3.6418889  
C   -0.9663858    0.0000850    3.4240247  
N   -1.2632773    0.0000084    2.1528658  
C   -1.8985362    0.0000517    4.5177257  
C   -1.3925775   -0.0004564    5.7720543  
O   -2.1456383   -0.0005410    6.8851312  
C    0.0786232   -0.0009323    6.0245000  
O    0.4683759   -0.0012588    7.1921102  
C    1.0143166   -0.0008442    4.8859032  
H    2.1107198   -0.0000632    2.0421868  
H   -2.9622183    0.0003270    4.3293377  
H   -1.5042274   -0.0009692    7.6184419  
H    2.0724152   -0.0013148    5.1109744  
