60

C    3.3003538    0.0005277   -1.4738997  
C    2.5232800    0.0003498   -2.6090755  
C    1.1623189   -0.0001317   -2.1820104  
C    1.1711885    0.0000584   -0.7636143  
N    2.4852296   -0.0014919   -0.3662366  
C    0.0000000    0.0000000    0.0000000  
C   -1.2020388    0.0000520   -0.6806474  
O   -2.3759248    0.0003495    0.0157753  
C   -1.2314671   -0.0005110   -2.0955505  
O   -2.5054396   -0.0008035   -2.6250170  
C   -0.0764528   -0.0007270   -2.8495192  
H    2.8919941   -0.0005617   -3.6205310  
H    2.8036262    0.0088181    0.5858654  
H   -3.0835648    0.0000349   -0.6418809  
H   -2.4360068   -0.0011524   -3.5845911  
H   -0.1304109   -0.0013418   -3.9319085  
C    6.5323583    0.0028966   -4.4466895  
C    7.6043827    0.0022111   -3.6131201  
C    7.0889160    0.0013272   -2.2643690  
C    5.6181649    0.0015263   -2.3813358  
N    5.3453965    0.0028891   -3.7298484  
C    4.7630498    0.0004756   -1.3275417  
C    5.3290147   -0.0007198    0.0111956  
O    4.6424950   -0.0016577    1.0246014  
C    6.8840251   -0.0006990    0.1586630  
O    7.3720527   -0.0013931    1.2807547  
C    7.7018213    0.0002121   -1.0517341  
H    8.6382616    0.0024954   -3.9092761  
H    6.5095784    0.0036233   -5.5243582  
H    4.4257310    0.0017850   -4.1314211  
C    9.1640947   -0.0000558   -0.9012156  
C   10.1023232    0.0006868   -1.8765652  
C   11.3753749   -0.0000465   -1.1724071  
C   11.0088978   -0.0011282    0.2601701  
N    9.7140201   -0.0012194    0.4253425  
C   12.0014034   -0.0021337    1.2994085  
C   13.3009462   -0.0024508    0.9245441  
O   14.3310644   -0.0033627    1.7876182  
C   13.7027071   -0.0017527   -0.5130750  
O   14.9040884   -0.0019688   -0.7812236  
C   12.6659032   -0.0006813   -1.5604349  
H    9.9493990    0.0015270   -2.9422525  
H   11.7050915   -0.0027061    2.3382100  
H   15.1261971   -0.0033926    1.2246648  
H   12.9981336   -0.0003155   -2.5899263  
C    2.3971438    2.0127888    3.1728260  
C    1.9431056    1.6308205    1.9564670  
C    0.8496017    0.7127664    2.2356185  
C    0.7794028    0.6545384    3.7115134  
N    1.6840587    1.4146091    4.2663826  
C   -0.1885723   -0.1578550    4.3957118  
C   -1.0476298   -0.8789867    3.6398520  
O   -2.0015663   -1.6796266    4.1448486  
C   -1.0022026   -0.8410666    2.1483229  
O   -1.8147390   -1.5232959    1.5241687  
C    0.0000000    0.0000000    1.4700000  
H    2.3054237    1.9346118    0.9892483  
H   -0.2170646   -0.1815267    5.4753125  
H   -2.4487139   -2.0549881    3.3649027  
H    3.2048689    2.6911772    3.3971983  
