58

C    3.2573672   -0.0002920   -1.5109380  
C    2.5379470   -0.0001710   -0.3591959  
C    1.1435044    0.0000331   -0.7338498  
C    1.1092609   -0.0000083   -2.2088475  
N    2.4227564    0.0001909   -2.6182609  
C   -0.0265532   -0.0002524   -2.9515660  
C   -1.3003037   -0.0002640   -2.2514978  
O   -2.3786783   -0.0004133   -2.8306423  
C   -1.2877723    0.0000311   -0.6895608  
O   -2.3539957    0.0003306   -0.0892035  
C    0.0000000    0.0000000    0.0000000  
H    2.9384091   -0.0000368    0.6389235  
H    2.7280494   -0.0013407   -3.5742112  
C    6.5597225   -0.0008210    1.3835031  
C    7.6114516   -0.0009113    0.5244682  
C    7.0637934   -0.0009870   -0.8115355  
C    5.5962696   -0.0009038   -0.6593375  
N    5.3559138   -0.0012037    0.6953281  
C    4.7161333   -0.0005436   -1.6923256  
C    5.2498355   -0.0004422   -3.0442490  
O    4.5392149   -0.0001860   -4.0409028  
C    6.8008638   -0.0007796   -3.2289589  
O    7.2618459   -0.0010043   -4.3624299  
C    7.6474470   -0.0008761   -2.0385184  
H    8.6521337   -0.0011058    0.7957497  
H    8.7203357   -0.0009046   -2.1750253  
H    6.5627891   -0.0007239    2.4614087  
H    4.4461412    0.0003272    1.1188353  
C   -0.0307352   -0.0004647   -4.4215603  
C    1.0331815   -0.0004859   -5.2580170  
C    0.4592709   -0.0007211   -6.5948515  
C   -1.0026761   -0.0009311   -6.3728274  
N   -1.2959500   -0.0007014   -5.1008292  
C   -1.9379342   -0.0011514   -7.4638720  
C   -1.4355461   -0.0007726   -8.7196356  
O   -2.1917704   -0.0009261   -9.8305658  
C    0.0349304   -0.0001822   -8.9762653  
O    0.4213597    0.0000156  -10.1449796  
C    0.9738592   -0.0000098   -7.8403354  
H    2.0783484   -0.0002676   -4.9997494  
H   -3.0010760   -0.0015087   -7.2724587  
H   -1.5524484   -0.0005380  -10.5656984  
H    2.0313131    0.0005368   -8.0684157  
C    2.3971438    2.0127888    3.1728260  
C    1.9431056    1.6308205    1.9564670  
C    0.8496017    0.7127664    2.2356185  
C    0.7794028    0.6545384    3.7115134  
N    1.6840587    1.4146091    4.2663826  
C   -0.1885723   -0.1578550    4.3957118  
C   -1.0476298   -0.8789867    3.6398520  
O   -2.0015663   -1.6796266    4.1448486  
C   -1.0022026   -0.8410666    2.1483229  
O   -1.8147390   -1.5232959    1.5241687  
C    0.0000000    0.0000000    1.4700000  
H    2.3054237    1.9346118    0.9892483  
H   -0.2170646   -0.1815267    5.4753125  
H   -2.4487139   -2.0549881    3.3649027  
H    3.2048689    2.6911772    3.3971983  
