58

C    3.2798083    0.0005856   -1.4499654  
C    2.5571141    0.0005565   -2.5996560  
C    1.1637428    0.0001547   -2.2210363  
C    1.1336961   -0.0000201   -0.7459473  
N    2.4483511   -0.0001429   -0.3402725  
C    0.0000000    0.0000000    0.0000000  
C   -1.2757382   -0.0000187   -0.6964417  
O   -2.3524603   -0.0000641   -0.1142312  
C   -1.2676502   -0.0000875   -2.2584083  
O   -2.3355768   -0.0004103   -2.8557295  
C    0.0181556    0.0001758   -2.9516298  
H    2.9547345    0.0006074   -3.5989111  
H    0.0150785    0.0003317   -4.0331631  
H    2.7563627    0.0012824    0.6148057  
C    6.4690079    0.0019757   -4.4192242  
C    7.5790604    0.0025232   -3.6450397  
C    7.0826141    0.0021762   -2.2775453  
C    5.6103551    0.0015083   -2.4155207  
N    5.2447503    0.0013072   -3.6686457  
C    4.7390843    0.0009614   -1.2727288  
C    5.3125315    0.0006874   -0.0477826  
O    4.6211394    0.0001824    1.1046137  
C    6.7952870    0.0009745    0.1242535  
O    7.2479823    0.0008235    1.2689314  
C    7.6676530    0.0015792   -1.0635604  
H    8.6077290    0.0030020   -3.9627113  
H    5.3014934    0.0000717    1.8019445  
H    6.4103405    0.0020017   -5.4960397  
C   10.0684254    0.6882204   -1.5151548  
C    9.1199933    0.0016838   -0.8363884  
C    9.8500579   -0.7443493    0.1769924  
C   11.2666250   -0.3800568   -0.0402932  
N   11.4008232    0.4594691   -1.0308368  
C   12.3234920   -0.9168205    0.7721127  
C   11.9807496   -1.7780514    1.7570714  
O   12.8632436   -2.3548359    2.5904765  
C   10.5599489   -2.1649728    2.0015688  
O   10.3211002   -2.9540879    2.9156089  
C    9.4939790   -1.6007934    1.1546131  
H   13.3499940   -0.6333607    0.5908563  
H   12.3216794   -2.9122121    3.1780074  
H    8.4775538   -1.9061189    1.3641043  
H    9.9336438    1.3610598   -2.3470769  
C    2.5528530    2.1414826    2.8079335  
C    2.0663498    1.7338582    4.0032312  
C    0.9804344    0.8229586    3.6752840  
C    0.9495562    0.7966882    2.1971295  
N    1.8690446    1.5676019    1.6831036  
C    0.0000000    0.0000000    1.4700000  
C   -0.8785127   -0.7372425    2.1869543  
O   -1.8187535   -1.5261249    1.6395491  
C   -0.8723269   -0.7321790    3.6796354  
O   -1.7010379   -1.4274584    4.2670412  
C    0.1115397    0.0933559    4.4024240  
H    2.4028853    2.0163452    4.9860947  
H   -2.2861435   -1.9184361    2.3990168  
H    0.0832434    0.0693689    5.4835595  
H    3.3664920    2.8238276    2.6198634  
