60

C    0.0000000    0.0000000    0.0000000  
C    0.6155679    0.8533069   -0.8862344  
C    0.2881992    0.3984121   -2.1979131  
C   -0.5369210   -0.7455236   -2.0478680  
N   -0.6904474   -0.9610017   -0.7007909  
C   -1.0494532   -1.4564642   -3.1372084  
C   -0.7233348   -1.0041933   -4.4010421  
O   -1.1972076   -1.6609145   -5.4997572  
C    0.0988586    0.1350443   -4.5711962  
O    0.3330853    0.4592881   -5.8915550  
C    0.6050585    0.8367335   -3.4969893  
H    1.2264178    1.6988859   -0.6200569  
H   -1.2343848   -1.6976769   -0.2891820  
H   -1.6787489   -2.3291599   -3.0295506  
H   -0.8553962   -1.1874774   -6.2693582  
H    0.8958654    1.2391483   -5.9180049  
C    4.1886530    2.1433184   -1.3902898  
C    4.5077132    3.2813566   -2.0495687  
C    3.4849066    3.4202285   -3.0747911  
C    2.6053313    2.2467914   -2.8851147  
N    3.0128122    1.4946887   -1.8990668  
C    1.4559286    2.0152737   -3.7159930  
C    1.1967710    2.9153183   -4.6917443  
O    0.1585359    2.8244492   -5.5401848  
C    2.0654129    4.1098276   -4.9080088  
O    1.7696240    4.8874725   -5.8152009  
C    3.2386755    4.3251311   -4.0425471  
H    0.2394057    3.6064193   -6.1156280  
H    3.8425528    5.2025250   -4.2316049  
H    4.7037890    1.6915793   -0.5574994  
C    8.8029273    2.7723455   -0.9741688  
C    7.5161243    2.4899573   -1.2839653  
C    6.8833998    3.7858843   -1.4756222  
C    7.9634154    4.7670472   -1.2358934  
N    9.0909649    4.1788126   -0.9416126  
C    7.7393183    6.1833823   -1.3300297  
C    6.4930371    6.6005625   -1.6495259  
O    6.1421083    7.8920689   -1.7715934  
C    5.3820929    5.6349696   -1.8977097  
O    4.2729630    6.0855669   -2.1840898  
C    5.6371875    4.1871080   -1.7950041  
H    7.0534514    1.5218075   -1.3716911  
H    8.5468956    6.8777403   -1.1494834  
H    5.1964257    7.8710644   -2.0048243  
H    9.6012690    2.0802604   -0.7582023  
C    3.1301144    0.0010313    3.1728260  
C    2.5367765    0.0002768    1.9564670  
C    1.1089900   -0.0001027    2.2356185  
C    1.0177864    0.0004150    3.7115134  
N    2.1993570    0.0011613    4.2663826  
C   -0.2459220    0.0002880    4.3957118  
C   -1.3675327    0.0000606    3.6398520  
O   -2.6129319   -0.0000866    4.1448486  
C   -1.3083589   -0.0000910    2.1483229  
O   -2.3693264   -0.0004206    1.5241687  
C    0.0000000    0.0000000    1.4700000  
H    3.0096015    0.0001008    0.9892483  
H   -0.2829642    0.0004689    5.4753125  
H   -3.1967446   -0.0002093    3.3649027  
H    4.1849273    0.0015113    3.3971983  
