58

C    3.2798085    0.0005856   -1.4499649  
C    2.5571143    0.0005565   -2.5996559  
C    1.1637433    0.0001547   -2.2210360  
C    1.1336962   -0.0000200   -0.7459472  
N    2.4483513   -0.0001427   -0.3402725  
C    0.0000000    0.0000000    0.0000000  
C   -1.2757370   -0.0000187   -0.6964418  
O   -2.3524597   -0.0000639   -0.1142312  
C   -1.2676497   -0.0000874   -2.2584083  
O   -2.3355764   -0.0004102   -2.8557298  
C    0.0181558    0.0001758   -2.9516298  
H    2.9547351    0.0006074   -3.5989111  
H    4.3498549    0.0008611   -1.3200028  
H    2.7563628    0.0012824    0.6148065  
C    0.0139736    0.0003878   -4.4216241  
C    1.0778895    0.0017004   -5.2580809  
C    0.5039791    0.0012669   -6.5949156  
C   -0.9579668   -0.0005057   -6.3728911  
N   -1.2512405   -0.0009472   -5.1008931  
C   -1.8932246   -0.0013662   -7.4639358  
C   -1.3908374   -0.0001066   -8.7196985  
O   -2.1470615   -0.0007110   -9.8306288  
C    0.0796376    0.0020652   -8.9763288  
O    0.4660664    0.0029997  -10.1450427  
C    1.0185661    0.0028685   -7.8403987  
H    2.1230560    0.0029144   -4.9998129  
H   -1.5077404    0.0005464  -10.5657611  
H    2.0760187    0.0045651   -8.0684792  
C   -4.3245319    2.1019064   -4.4725603  
C   -5.5535086    1.6358876   -4.8139072  
C   -5.3688654    0.7412665   -5.9321182  
C   -3.9211926    0.7241420   -6.2162691  
N   -3.3446308    1.5696684   -5.2967305  
C   -3.3399614   -0.0034106   -7.2034582  
C   -4.1974552   -0.8242222   -8.0422120  
O   -3.7696923   -1.5153381   -8.9574603  
C   -5.7336202   -0.8211445   -7.7593822  
O   -6.4655680   -1.5080354   -8.4591637  
C   -6.2424116    0.0040179   -6.6666379  
H   -6.4833132    1.8899916   -4.3369291  
H   -7.3072264    0.0004170   -6.4772164  
H   -4.0522662    2.7895457   -3.6883964  
H   -2.3629591    1.7678495   -5.2327662  
C    2.5528530    2.1414826    2.8079335  
C    2.0663498    1.7338582    4.0032312  
C    0.9804344    0.8229586    3.6752840  
C    0.9495562    0.7966882    2.1971295  
N    1.8690446    1.5676019    1.6831036  
C    0.0000000    0.0000000    1.4700000  
C   -0.8785127   -0.7372425    2.1869543  
O   -1.8187535   -1.5261249    1.6395491  
C   -0.8723269   -0.7321790    3.6796354  
O   -1.7010379   -1.4274584    4.2670412  
C    0.1115397    0.0933559    4.4024240  
H    2.4028853    2.0163452    4.9860947  
H   -2.2861435   -1.9184361    2.3990168  
H    0.0832434    0.0693689    5.4835595  
H    3.3664920    2.8238276    2.6198634  
