60

C    3.3003541    0.0005279   -1.4738995  
C    2.5232808    0.0003500   -2.6090755  
C    1.1623195   -0.0001318   -2.1820103  
C    1.1711881    0.0000583   -0.7636142  
N    2.4852299   -0.0014917   -0.3662361  
C    0.0000000    0.0000000    0.0000000  
C   -1.2020385    0.0000519   -0.6806475  
O   -2.3759250    0.0003492    0.0157749  
C   -1.2314661   -0.0005113   -2.0955502  
O   -2.5054394   -0.0008037   -2.6250176  
C   -0.0764521   -0.0007271   -2.8495194  
H    2.8919946   -0.0005617   -3.6205306  
H    2.8036265    0.0088182    0.5858654  
H   -3.0835641    0.0000346   -0.6418810  
H   -2.4360053   -0.0011528   -3.5845915  
H    4.3715547    0.0004896   -1.3667139  
C    2.2883726   -2.1096666   -5.8898014  
C    1.6780794   -1.6459102   -7.0107596  
C    0.6304135   -0.7505693   -6.5799515  
C    0.6807518   -0.7305569   -5.1055513  
N    1.7068938   -1.5752687   -4.7500465  
C   -0.1496422   -0.0015612   -4.3176960  
C   -1.1605707    0.8178672   -4.9650726  
O   -1.9555605    1.5101065   -4.3429007  
C   -1.2321950    0.8117311   -6.5254046  
O   -2.0793598    1.4974361   -7.0816253  
C   -0.2825947   -0.0147688   -7.2663563  
H    1.9326347   -1.9019647   -8.0238006  
H    3.1138595   -2.7970349   -5.8004380  
H    1.9910630   -1.7715751   -3.8078371  
C    0.1280871   -3.2184402  -10.2770478  
C    0.0630328   -2.5115458   -9.1194022  
C   -0.1983285   -1.1378124   -9.4790990  
C   -0.2808284   -1.1020753  -10.9517511  
N   -0.0737983   -2.3949505  -11.3742470  
C   -0.5168157    0.0173994  -11.6816775  
C   -0.7016827    1.2707693  -10.9693408  
O   -0.9191179    2.3334726  -11.5365129  
C   -0.6181935    1.2563387   -9.4096528  
O   -0.7718925    2.3055360   -8.7990614  
C   -0.3588487   -0.0127529   -8.7343756  
H    0.1844759   -2.9072487   -8.1267869  
H   -0.5735867    0.0218838  -12.7613377  
H    0.3067412   -4.2716552  -10.4209596  
H   -0.0718829   -2.6945449  -12.3319973  
C    2.5528530    2.1414826    2.8079335  
C    2.0663498    1.7338582    4.0032312  
C    0.9804344    0.8229586    3.6752840  
C    0.9495562    0.7966882    2.1971295  
N    1.8690446    1.5676019    1.6831036  
C    0.0000000    0.0000000    1.4700000  
C   -0.8785127   -0.7372425    2.1869543  
O   -1.8187535   -1.5261249    1.6395491  
C   -0.8723269   -0.7321790    3.6796354  
O   -1.7010379   -1.4274584    4.2670412  
C    0.1115397    0.0933559    4.4024240  
H    2.4028853    2.0163452    4.9860947  
H   -2.2861435   -1.9184361    2.3990168  
H    0.0832434    0.0693689    5.4835595  
H    3.3664920    2.8238276    2.6198634  
