62

C    1.1243405    0.0100579   -0.7919005  
C    0.7474061    0.0234979   -2.1148545  
C   -0.6787397    0.0234092   -2.1414699  
C   -1.1201752    0.0097939   -0.7935547  
N    0.0000000    0.0000000    0.0000000  
C   -2.4730815    0.0062265   -0.4408247  
C   -3.3971972    0.0169000   -1.4675061  
O   -4.7313521    0.0143498   -1.1793474  
C   -2.9763670    0.0301768   -2.8186327  
O   -4.0166498    0.0392772   -3.7247625  
C   -1.6418585    0.0334300   -3.1673483  
H   -2.8160167   -0.0042754    0.5845968  
H   -5.1938833    0.0227837   -2.0274383  
H   -3.6464701    0.0480163   -4.6127342  
H   -1.3497495    0.0435080   -4.2109232  
H    2.1062464    0.0054047   -0.3505410  
C    4.5576540   -2.0608770   -2.9109854  
C    3.4088896   -1.6040004   -2.3491312  
C    2.8058657   -0.6998634   -3.2997804  
C    3.7039031   -0.6672365   -4.4699318  
N    4.7468755   -1.5131505   -4.1707198  
C    3.4850151    0.0720187   -5.5867552  
C    2.2849643    0.8903122   -5.6397499  
O    1.9987076    1.5913464   -6.6014719  
C    1.3198855    0.8712925   -4.4117158  
O    0.3065736    1.5563984   -4.4447247  
C    1.6628930    0.0339871   -3.2649301  
H    3.0275645   -1.8698619   -1.3793263  
H    4.1564149    0.0816022   -6.4341283  
H    5.2820356   -2.7514593   -2.5106644  
C    6.9259285   -5.2556226   -5.0676660  
C    7.8297479   -4.7236788   -5.9579540  
C    7.5408461   -3.3307536   -6.0623361  
C    6.4414598   -3.0683445   -5.2053546  
N    6.0916121   -4.2589652   -4.6182889  
C    5.8860981   -1.7939264   -5.0562918  
C    6.4510413   -0.7656196   -5.7854012  
O    5.9480608    0.4986312   -5.6772654  
C    7.5481256   -1.0076203   -6.6460175  
O    7.9979290    0.1188161   -7.3034075  
C    8.0963434   -2.2646618   -6.7937704  
H    8.6015527   -5.2723399   -6.4700882  
H    5.3503463   -4.3819942   -3.9524284  
H    6.4795639    1.0548497   -6.2615521  
H    8.7391995   -0.1314398   -7.8633136  
H    8.9364661   -2.4195226   -7.4606208  
H    6.8094891   -6.2673828   -4.7187501  
C    2.5528530    2.1414826    2.8079335  
C    2.0663498    1.7338582    4.0032312  
C    0.9804344    0.8229586    3.6752840  
C    0.9495562    0.7966882    2.1971295  
N    1.8690446    1.5676019    1.6831036  
C    0.0000000    0.0000000    1.4700000  
C   -0.8785127   -0.7372425    2.1869543  
O   -1.8187535   -1.5261249    1.6395491  
C   -0.8723269   -0.7321790    3.6796354  
O   -1.7010379   -1.4274584    4.2670412  
C    0.1115397    0.0933559    4.4024240  
H    2.4028853    2.0163452    4.9860947  
H   -2.2861435   -1.9184361    2.3990168  
H    0.0832434    0.0693689    5.4835595  
H    3.3664920    2.8238276    2.6198634  
