58

C   -3.2573544   -0.0091035   -1.5109382  
C   -2.5379369   -0.0071495   -0.3591961  
C   -1.1434991   -0.0033314   -0.7338498  
C   -1.1092557   -0.0031912   -2.2088475  
N   -2.4227454   -0.0071791   -2.6182608  
C    0.0265528    0.0003290   -2.9515659  
C    1.3002985    0.0040146   -2.2514974  
O    2.3786675    0.0072743   -2.8306420  
C    1.2877671    0.0036833   -0.6895604  
O    2.3539865    0.0064591   -0.0892031  
C    0.0000000    0.0000000    0.0000000  
H   -2.9383968   -0.0084388    0.6389238  
H    0.0296280    0.0004941   -4.0327229  
H   -2.7280417   -0.0065281   -3.5742114  
C   -5.6736347   -0.0157238   -0.7359117  
C   -4.7161153   -0.0130596   -1.6923260  
C   -5.4441004   -0.0148113   -2.9519025  
C   -6.8695232   -0.0187464   -2.5585351  
N   -7.0103013   -0.0192175   -1.2607791  
C   -7.9272500   -0.0213966   -3.5313115  
C   -7.5769077   -0.0197824   -4.8376770  
O   -8.4592094   -0.0219093   -5.8513731  
C   -6.1471091   -0.0154462   -5.2664168  
O   -5.9016154   -0.0143058   -6.4726307  
C   -5.0804286   -0.0128330   -4.2495041  
H   -7.9113207   -0.0199163   -6.6569576  
H   -4.0573757   -0.0095943   -4.6010469  
H   -5.5430472   -0.0155193    0.3345646  
C  -10.2663549    1.9833918   -0.3104643  
C   -9.2347955    1.6046850   -1.1004305  
C   -9.8188311    0.6853815   -2.0649426  
C  -11.2505969    0.6229363   -1.7006234  
N  -11.5189039    1.3818108   -0.6729508  
C  -12.1855839   -0.1918033   -2.4266307  
C  -11.7118478   -0.9111495   -3.4694397  
O  -12.4713907   -1.7136212   -4.2344065  
C  -10.2723140   -0.8689782   -3.8620280  
O   -9.9110397   -1.5497762   -4.8218280  
C   -9.3330218   -0.0255677   -3.1015585  
H   -8.2047754    1.9113723   -1.0365774  
H  -13.2262762   -0.2185503   -2.1382679  
H  -11.8551815   -2.0869565   -4.8901955  
H  -10.2467103    2.6614813    0.5278566  
C    0.0000000    0.0000000    1.4700000  
C    1.0662921    0.0000102    2.3034270  
C    0.4961870   -0.0000064    3.6418889  
C   -0.9663858    0.0000850    3.4240247  
N   -1.2632773    0.0000084    2.1528658  
C   -1.8985362    0.0000517    4.5177257  
C   -1.3925775   -0.0004564    5.7720543  
O   -2.1456383   -0.0005410    6.8851312  
C    0.0786232   -0.0009323    6.0245000  
O    0.4683759   -0.0012588    7.1921102  
C    1.0143166   -0.0008442    4.8859032  
H    2.1107198   -0.0000632    2.0421868  
H   -2.9622183    0.0003270    4.3293377  
H   -1.5042274   -0.0009692    7.6184419  
H    2.0724152   -0.0013148    5.1109744  
