60

C    0.0000000    0.0000000    0.0000000  
C    0.6155679    0.8533069   -0.8862344  
C    0.2881992    0.3984121   -2.1979131  
C   -0.5369210   -0.7455236   -2.0478680  
N   -0.6904474   -0.9610017   -0.7007909  
C   -1.0494532   -1.4564642   -3.1372084  
C   -0.7233348   -1.0041933   -4.4010421  
O   -1.1972076   -1.6609145   -5.4997572  
C    0.0988586    0.1350443   -4.5711962  
O    0.3330853    0.4592881   -5.8915550  
C    0.6050585    0.8367335   -3.4969893  
H    1.2264178    1.6988859   -0.6200569  
H   -1.2343848   -1.6976769   -0.2891820  
H   -1.6787489   -2.3291599   -3.0295506  
H   -0.8553962   -1.1874774   -6.2693582  
H    0.8958654    1.2391483   -5.9180049  
C    4.1886530    2.1433184   -1.3902898  
C    4.5077132    3.2813566   -2.0495687  
C    3.4849066    3.4202285   -3.0747911  
C    2.6053313    2.2467914   -2.8851147  
N    3.0128122    1.4946887   -1.8990668  
C    1.4559286    2.0152737   -3.7159930  
C    1.1967710    2.9153183   -4.6917443  
O    0.1585359    2.8244492   -5.5401848  
C    2.0654129    4.1098276   -4.9080088  
O    1.7696240    4.8874725   -5.8152009  
C    3.2386755    4.3251311   -4.0425471  
H    0.2394057    3.6064193   -6.1156280  
H    3.8425528    5.2025250   -4.2316049  
H    4.7037890    1.6915793   -0.5574994  
C    5.6371875    4.1871080   -1.7950041  
C    6.6114860    4.0968261   -0.8533745  
C    7.4758584    5.2396868   -1.0310368  
C    6.9212793    6.0087196   -2.1614441  
N    5.8078577    5.3173383   -2.5799821  
C    7.4532287    7.1610061   -2.6420367  
C    8.6521005    7.6781868   -2.0034703  
O    9.2066948    8.7084589   -2.3630034  
C    9.2567226    6.8799212   -0.8047171  
O   10.2660782    7.3054243   -0.2593637  
C    8.5935166    5.6507337   -0.3768064  
H    6.7131676    3.3183626   -0.1183444  
H    7.0306818    7.7097034   -3.4722747  
H    9.0183566    5.1040301    0.4540670  
H    5.2100475    5.5925917   -3.3375479  
C    3.3321173   -0.0004715    2.8079335  
C    2.6974184   -0.0000116    4.0032312  
C    1.2800439    0.0002118    3.6752840  
C    1.2395035   -0.0000644    2.1971295  
N    2.4394063   -0.0005460    1.6831036  
C    0.0000000    0.0000000    1.4700000  
C   -1.1468701   -0.0000635    2.1869543  
O   -2.3742202   -0.0000073    1.6395491  
C   -1.1388768   -0.0001607    3.6796354  
O   -2.2206231   -0.0000905    4.2670412  
C    0.1454524   -0.0001816    4.4024240  
H    3.1367986    0.0000651    4.9860947  
H   -2.9844344   -0.0001026    2.3990168  
H    0.1083576   -0.0003682    5.4835595  
H    4.3940039   -0.0007619    2.6198634  
