58

C    2.0060354   -2.0933382   -5.2079950  
C    1.0681400   -1.6309435   -4.3416125  
C    0.2140992   -0.7346500   -5.0846518  
C    0.7350360   -0.7126394   -6.4648440  
N    1.8215798   -1.5565847   -6.4731476  
C    0.2009226    0.0171139   -7.4767173  
C   -0.9646768    0.8356542   -7.1870517  
O   -1.5183203    1.5285633   -8.0306493  
C   -1.5330622    0.8277891   -5.7321703  
O   -2.5138750    1.5132038   -5.4762933  
C   -0.8712826    0.0001710   -4.7267111  
H    0.9842756   -1.8882191   -3.3007521  
H    0.5983676    0.0189973   -8.4821751  
H    2.8165830   -2.7808932   -5.0286317  
C    3.6410629   -5.2833459   -7.9167772  
C    4.2584498   -4.8147653   -9.0318298  
C    3.9747707   -3.4010341   -9.1075004  
C    3.1355139   -3.0821054   -7.9367222  
N    2.9695334   -4.2660401   -7.2558115  
C    2.6563296   -1.8456642   -7.6481054  
C    2.9892168   -0.7563465   -8.5509384  
O    2.6057523    0.3931181   -8.3777698  
C    3.8765312   -1.0712988   -9.7972474  
O    4.1630758   -0.1623010  -10.5646300  
C    4.3334688   -2.4435286  -10.0022957  
H    4.8454301   -5.3934677   -9.7226053  
H    4.9476020   -2.6532273  -10.8675062  
H    3.6199767   -6.2862977   -7.5224007  
H    2.4434649   -4.3740159   -6.4080853  
C    1.0965514    0.0001359   -0.8010305  
C    0.0000000    0.0000000    0.0000000  
C   -1.1546563    0.0001470   -0.8669513  
C   -0.6372014    0.0003519   -2.2486282  
N    0.7342871    0.0007337   -2.1395014  
C   -1.4147739    0.0001352   -3.3608717  
C   -2.8576049   -0.0001048   -3.1854462  
O   -3.6427779   -0.0002494   -4.1244907  
C   -3.4275840   -0.0000725   -1.7311666  
O   -4.6406831    0.0000333   -1.5710060  
C   -2.4891867   -0.0001091   -0.6116744  
H   -2.8919122   -0.0002918    0.3920866  
H    2.1388272    0.0000663   -0.5261648  
H    1.3735872   -0.0006099   -2.9130262  
C    2.3971438    2.0127888    3.1728260  
C    1.9431056    1.6308205    1.9564670  
C    0.8496017    0.7127664    2.2356185  
C    0.7794028    0.6545384    3.7115134  
N    1.6840587    1.4146091    4.2663826  
C   -0.1885723   -0.1578550    4.3957118  
C   -1.0476298   -0.8789867    3.6398520  
O   -2.0015663   -1.6796266    4.1448486  
C   -1.0022026   -0.8410666    2.1483229  
O   -1.8147390   -1.5232959    1.5241687  
C    0.0000000    0.0000000    1.4700000  
H    2.3054237    1.9346118    0.9892483  
H   -0.2170646   -0.1815267    5.4753125  
H   -2.4487139   -2.0549881    3.3649027  
H    3.2048689    2.6911772    3.3971983  
