64

C    5.6708528    0.0006686   -2.3611558  
C    4.7630507    0.0004755   -1.3275395  
C    5.5133490   -0.0015013   -0.1144244  
C    6.8855146   -0.0021655   -0.4737127  
N    6.9456606   -0.0027644   -1.8452081  
C    7.9149934   -0.0037515    0.4723107  
C    7.5526784   -0.0043769    1.8053169  
O    8.5177184   -0.0055687    2.7705673  
C    6.1889805   -0.0041066    2.1836619  
O    5.9909388   -0.0052337    3.5489900  
C    5.1728469   -0.0028155    1.2509254  
H    8.9627181   -0.0044090    0.2049625  
H    8.0554425   -0.0061260    3.6188400  
H    5.0439893   -0.0049363    3.7189637  
H    4.1374045   -0.0028212    1.5708263  
H    5.5098589    0.0015378   -3.4255988  
C    8.0814141    2.1359520   -5.6036146  
C    7.4001662    1.6654558   -4.5049777  
C    8.2847289    0.7875889   -3.8110758  
C    9.5016401    0.7618483   -4.5393552  
N    9.3434749    1.5898918   -5.6228423  
C   10.6037369   -0.0021428   -4.1437673  
C   10.4751278   -0.7536064   -2.9918386  
O   11.5205660   -1.5175503   -2.5600277  
C    9.2689095   -0.7413430   -2.2517683  
O    9.2975843   -1.5423127   -1.1288394  
C    8.1811659    0.0119068   -2.6415821  
H    6.3895655    1.9224069   -4.2372931  
H   10.0450224    1.7797242   -6.3155007  
H   11.5339551   -0.0261893   -4.6945113  
H   11.2236803   -1.9544880   -1.7511958  
H    8.4455705   -1.4769578   -0.6867943  
H    7.7664234    2.8167334   -6.3758039  
C    3.3003548    0.0005276   -1.4738982  
C    2.5232817    0.0003497   -2.6090743  
C    1.1623204   -0.0001319   -2.1820101  
C    1.1711886    0.0000583   -0.7636140  
N    2.4852302   -0.0014919   -0.3662356  
C    0.0000000    0.0000000    0.0000000  
C   -1.2020379    0.0000520   -0.6806479  
O   -2.3759249    0.0003495    0.0157742  
C   -1.2314652   -0.0005112   -2.0955511  
O   -2.5054384   -0.0008036   -2.6250184  
C   -0.0764510   -0.0007271   -2.8495195  
H    2.8919962   -0.0005619   -3.6205297  
H    2.8036267    0.0088181    0.5858667  
H   -3.0835636    0.0000348   -0.6418823  
H   -2.4360038   -0.0011526   -3.5845925  
H   -0.1304090   -0.0013420   -3.9319089  
C    0.8175213    0.6860729    2.3021913  
C    0.0000000    0.0000000    1.4700000  
C   -0.8887526   -0.7456559    2.3478473  
C   -0.4549825   -0.3816753    3.7138435  
N    0.5448156    0.4573574    3.6934124  
C   -1.0945674   -0.9182058    4.8835240  
C   -2.1210866   -1.7789155    4.6970523  
O   -2.8083856   -2.3554314    5.6976972  
C   -2.5824069   -2.1655116    3.3310774  
O   -3.5227682   -2.9541547    3.2362962  
C   -1.9100805   -1.6015804    2.1470656  
H   -0.7567140   -0.6349833    5.8697035  
H   -3.4728268   -2.9124471    5.2533954  
H   -2.2742832   -1.9066565    1.1752040  
H    1.6189533    1.3585343    2.0405121  
