60

C   -1.1187020    0.0190826   -0.8003806  
C    0.0000000    0.0000000    0.0000000  
C    1.1321912   -0.0210350   -0.8673528  
C    0.6381298   -0.0133224   -2.1969280  
N   -0.7323547    0.0091820   -2.1202234  
C    1.4768084   -0.0290089   -3.3154811  
C    2.8390601   -0.0526098   -3.0876859  
O    3.7032899   -0.0683351   -4.1440352  
C    3.3512313   -0.0610213   -1.7684335  
O    4.7292788   -0.0853843   -1.7073129  
C    2.5244384   -0.0458295   -0.6644819  
H   -1.3573172    0.0297682   -2.9057039  
H    4.5932365   -0.0839100   -3.7685137  
H    4.9926571   -0.0895601   -0.7819922  
H    2.9457816   -0.0529744    0.3339657  
H   -2.1616637    0.0375267   -0.5342067  
C    0.9734026   -0.0213666   -4.6965766  
C   -0.3136515    0.0008193   -5.1144027  
C   -0.2364710   -0.0017787   -6.5671706  
C    1.2120386   -0.0272940   -6.8634017  
N    1.9262407   -0.0389472   -5.7708041  
C    1.7131330   -0.0372395   -8.2102096  
C    0.8082924   -0.0227601   -9.2153900  
O    1.1345184   -0.0296592  -10.5190658  
C   -0.6601715    0.0026949   -8.9486941  
O   -1.4261515    0.0149606   -9.9122014  
C   -1.1492185    0.0125211   -7.5584926  
H   -1.2052965    0.0168647   -4.5112544  
H    2.7768449   -0.0557428   -8.3975169  
H    0.2808634   -0.0155420  -10.9883482  
C   -2.6046254    0.0375317   -7.3533951  
C   -3.3050848    0.0509602   -6.1901017  
C   -4.7052444    0.0742656   -6.5420176  
C   -4.7635069    0.0732778   -8.0162615  
N   -3.4570377    0.0509294   -8.4469921  
C   -5.9111118    0.0913986   -8.7404013  
C   -7.1731089    0.1135653   -8.0197025  
O   -8.2606247    0.1309823   -8.5812236  
C   -7.1351325    0.1152623   -6.4581770  
O   -8.1912786    0.1341415   -5.8405529  
C   -5.8364807    0.0942518   -5.7896609  
H   -2.8884705    0.0453797   -5.1986304  
H   -5.9318018    0.0901777   -9.8213635  
H   -5.8188627    0.0953687   -4.7082670  
H   -3.1674263    0.0432683   -9.4077803  
C    0.0000000    0.0000000    1.4700000  
C    1.0662921    0.0000102    2.3034270  
C    0.4961870   -0.0000064    3.6418889  
C   -0.9663858    0.0000850    3.4240247  
N   -1.2632773    0.0000084    2.1528658  
C   -1.8985362    0.0000517    4.5177257  
C   -1.3925775   -0.0004564    5.7720543  
O   -2.1456383   -0.0005410    6.8851312  
C    0.0786232   -0.0009323    6.0245000  
O    0.4683759   -0.0012588    7.1921102  
C    1.0143166   -0.0008442    4.8859032  
H    2.1107198   -0.0000632    2.0421868  
H   -2.9622183    0.0003270    4.3293377  
H   -1.5042274   -0.0009692    7.6184419  
H    2.0724152   -0.0013148    5.1109744  
