58

C    3.4546603   -0.7051940   -2.8655879  
C    2.5562217   -0.0001543   -3.6003001  
C    3.3075547    0.7421852   -4.5848134  
C    4.7275388    0.4094246   -4.3618646  
N    4.7487504   -0.4720438   -3.3057141  
C    5.7578594    0.9090044   -5.0902633  
C    5.4475461    1.8364968   -6.1654372  
O    6.3052794    2.3410470   -6.8781951  
C    3.9505747    2.2032205   -6.4191988  
O    3.6771248    2.9832721   -7.3214207  
C    2.9282237    1.6000478   -5.5678272  
H    6.7924735    0.6518590   -4.9103747  
H    1.8941001    1.8589998   -5.7501908  
H    3.2802844   -1.3753180   -2.0395027  
C    5.6422444   -4.5343834   -1.8239933  
C    5.0378785   -3.4345135   -2.3427454  
C    6.0171673   -2.3734839   -2.3360753  
C    7.2504500   -2.9495027   -1.7668597  
N    6.9567735   -4.2619497   -1.4768147  
C    8.4091935   -2.2650935   -1.5919232  
C    8.4439328   -0.8678392   -1.9906817  
O    9.4400963   -0.1662600   -1.8734412  
C    7.1492893   -0.2371263   -2.5955827  
O    7.1664401    0.9384555   -2.9346606  
C    5.9614381   -1.0758321   -2.7349880  
H    4.0219389   -3.3733984   -2.6902297  
H    9.3026280   -2.7065307   -1.1726150  
H    5.2378572   -5.5209800   -1.6659151  
H    7.5990999   -4.9209852   -1.0766444  
C    0.0000000    0.0000000    0.0000000  
C    1.0541688   -0.0001719   -0.8560391  
C    0.5103141   -0.0000449   -2.1935955  
C   -0.9576367    0.0002461   -2.0455733  
N   -1.2018459   -0.0001392   -0.6915970  
C   -1.8348306    0.0008319   -3.0810611  
C   -1.2972842    0.0009739   -4.4314605  
O   -2.0050664    0.0014267   -5.4301321  
C    0.2542628    0.0004190   -4.6117571  
O    0.7184677    0.0002263   -5.7439119  
C    1.0974556    0.0000880   -3.4189127  
H    2.0940752   -0.0005479   -0.5817978  
H   -2.9081050    0.0011669   -2.9507065  
H   -2.1128195    0.0014911   -0.2706793  
C    1.0672568    0.0000697    2.3021913  
C    0.0000000    0.0000000    1.4700000  
C   -1.1601224    0.0000736    2.3478473  
C   -0.5938729    0.0000769    3.7138435  
N    0.7113367    0.0001554    3.6934124  
C   -1.4286986    0.0001879    4.8835240  
C   -2.7683114    0.0006799    4.6970523  
O   -3.6653903    0.0008304    5.6976972  
C   -3.3702025    0.0010610    3.3310774  
O   -4.5974910    0.0013779    3.2362962  
C   -2.4926826    0.0008943    2.1470656  
H   -0.9878360   -0.0000190    5.8697035  
H   -4.5324246    0.0012261    5.2533954  
H   -2.9677772    0.0012974    1.1752040  
H    2.1134392    0.0000545    2.0405121  
