58

C    4.7075200   -1.3817598   -0.2339393  
C    5.8271625   -0.7325482   -0.6450359  
C    5.4418964    0.1122959   -1.7507686  
C    3.9956478   -0.0994303   -1.9515852  
N    3.6113993   -1.0164429   -1.0006221  
C    3.2528667    0.5196200   -2.9038236  
C    3.9225681    1.4568193   -3.7902172  
O    3.3408856    2.0644903   -4.6794200  
C    5.4538040    1.6962292   -3.5957841  
O    6.0285190    2.4827797   -4.3362577  
C    6.1463944    0.9703930   -2.5340248  
H    6.8107379   -0.8340611   -0.2220853  
H    7.2065205    1.1419482   -2.4058657  
H    2.6780276   -1.3649480   -0.8805867  
C    0.0000000    0.0000000    0.0000000  
C   -1.0409332   -0.1665236   -0.8560392  
C   -0.5039004   -0.0806499   -2.1935957  
C    0.9456277    0.1511867   -2.0455727  
N    1.1867030    0.1901830   -0.6915966  
C    1.8118782    0.2893174   -3.0810604  
C    1.2811176    0.2041762   -4.4314601  
O    1.9800671    0.3156494   -5.4301317  
C   -0.2509961   -0.0406189   -4.6117572  
O   -0.7093909   -0.1138324   -5.7439122  
C   -1.0836333   -0.1736245   -3.4189129  
H   -2.0678153   -0.3305907   -0.5817984  
H   -2.1434308   -0.3431629   -3.5523674  
H    2.0864729    0.3326238   -0.2706787  
C    4.5485766   -2.3564885    0.8548862  
C    5.4973213   -2.8264537    1.6978546  
C    4.7971652   -3.7581677    2.5685961  
C    3.3957569   -3.7270132    2.0977788  
N    3.2439622   -2.9072038    1.0933586  
C    2.3693376   -4.5245081    2.7106011  
C    2.7267564   -5.3173869    3.7464244  
O    1.8727347   -6.1138855    4.4114643  
C    4.1329075   -5.3710891    4.2444368  
O    4.3864501   -6.1153394    5.1915525  
C    5.1676221   -4.5435093    3.5991449  
H    6.5431411   -2.5723234    1.7253256  
H    1.3533349   -4.4818409    2.3461459  
H    2.4184401   -6.5507279    5.0900856  
H    6.1742570   -4.6110786    3.9894651  
C    1.0672568    0.0000697    2.3021913  
C    0.0000000    0.0000000    1.4700000  
C   -1.1601224    0.0000736    2.3478473  
C   -0.5938729    0.0000769    3.7138435  
N    0.7113367    0.0001554    3.6934124  
C   -1.4286986    0.0001879    4.8835240  
C   -2.7683114    0.0006799    4.6970523  
O   -3.6653903    0.0008304    5.6976972  
C   -3.3702025    0.0010610    3.3310774  
O   -4.5974910    0.0013779    3.2362962  
C   -2.4926826    0.0008943    2.1470656  
H   -0.9878360   -0.0000190    5.8697035  
H   -4.5324246    0.0012261    5.2533954  
H   -2.9677772    0.0012974    1.1752040  
H    2.1134392    0.0000545    2.0405121  
