58

C    1.7704313   -2.0997830   -5.2515180  
C    1.5928586   -1.6333168   -6.5144326  
C    0.4607458   -0.7379010   -6.4771946  
C   -0.0100423   -0.7207976   -5.0790332  
N    0.8257127   -1.5670939   -4.3875226  
C   -1.0641734    0.0073898   -4.6315339  
C   -1.7831599    0.8289562   -5.5910244  
O   -2.7459474    1.5206786   -5.2862925  
C   -1.3021140    0.8259151   -7.0770897  
O   -1.8998115    1.5134381   -7.8939922  
C   -0.1528624    0.0000284   -7.4390070  
H    0.1740159    0.0036595   -8.4699583  
H    2.5118285   -2.7880438   -4.8793388  
H    0.7607705   -1.7654785   -3.4059559  
C    2.8928075   -3.2120292   -7.9901706  
C    2.4049835   -1.9809187   -7.6893901  
C    2.8365047   -1.0889679   -8.7396515  
C    3.6213193   -1.9072246   -9.6837440  
N    3.6178424   -3.1842563   -9.1718186  
C    4.2035863   -1.4315804  -10.8135374  
C    4.0470373   -0.0194584  -11.1200321  
O    4.5333647    0.5043763  -12.1137054  
C    3.2201454    0.8659128  -10.1340433  
O    3.0817810    2.0562504  -10.3814550  
C    2.6402884    0.2391473   -8.9488092  
H    4.7750551   -2.0488581  -11.4927295  
H    2.0690030    0.8590524   -8.2712575  
H    2.7838284   -4.1372092   -7.4479021  
H    4.0704040   -3.9747759   -9.5929048  
C    1.1319248    0.0015675   -0.8009270  
C    0.7969916    0.0034959   -2.1169404  
C   -0.6453336    0.0035703   -2.1842672  
C   -1.1266831    0.0015415   -0.7896027  
N    0.0000000    0.0000000    0.0000000  
C   -2.4346129    0.0013924   -0.4276297  
C   -3.4350110    0.0031352   -1.4820184  
O   -4.6384610    0.0030897   -1.2583919  
C   -2.9478958    0.0050460   -2.9661075  
O   -3.7809377    0.0062160   -3.8623775  
C   -1.5113821    0.0053068   -3.2312125  
H    1.4821240    0.0045436   -2.9459192  
H   -2.7664565    0.0000185    0.6013447  
H    2.1104318    0.0009428   -0.3488058  
C    0.8175213    0.6860729    2.3021913  
C    0.0000000    0.0000000    1.4700000  
C   -0.8887526   -0.7456559    2.3478473  
C   -0.4549825   -0.3816753    3.7138435  
N    0.5448156    0.4573574    3.6934124  
C   -1.0945674   -0.9182058    4.8835240  
C   -2.1210866   -1.7789155    4.6970523  
O   -2.8083856   -2.3554314    5.6976972  
C   -2.5824069   -2.1655116    3.3310774  
O   -3.5227682   -2.9541547    3.2362962  
C   -1.9100805   -1.6015804    2.1470656  
H   -0.7567140   -0.6349833    5.8697035  
H   -3.4728268   -2.9124471    5.2533954  
H   -2.2742832   -1.9066565    1.1752040  
H    1.6189533    1.3585343    2.0405121  
