58

C    1.0965514    0.0001359   -0.8010305  
C    0.0000000    0.0000000    0.0000000  
C   -1.1546564    0.0001470   -0.8669509  
C   -0.6372019    0.0003521   -2.2486280  
N    0.7342869    0.0007339   -2.1395010  
C   -1.4147744    0.0001354   -3.3608710  
C   -2.8576055   -0.0001048   -3.1854456  
O   -3.6427781   -0.0002489   -4.1244902  
C   -3.4275843   -0.0000726   -1.7311659  
O   -4.6406828    0.0000334   -1.5710051  
C   -2.4891866   -0.0001091   -0.6116744  
H   -1.0150453    0.0001618   -4.3654242  
H   -2.8919120   -0.0002919    0.3920864  
H    2.1388270    0.0000663   -0.5261644  
C    4.5566853   -2.0943509   -2.8440025  
C    3.3981922   -1.6309278   -2.3080843  
C    2.8135372   -0.7361947   -3.2788915  
C    3.7329563   -0.7162208   -4.4326073  
N    4.7695081   -1.5597352   -4.1056014  
C    3.5352810    0.0116651   -5.5607967  
C    2.3371276    0.8302005   -5.6442438  
O    2.0692117    1.5215083   -6.6182129  
C    1.3496272    0.8244746   -4.4340312  
O    0.3376968    1.5099055   -4.4926967  
C    1.6707639   -0.0012341   -3.2725972  
H    2.9988744   -1.8865413   -1.3427757  
H    5.2729793   -2.7812824   -2.4233624  
H    5.5580252   -1.7581542   -4.6937494  
C    4.4691795    0.0122186   -6.6960209  
C    5.6373994   -0.6641696   -6.8437919  
C    6.1650547   -0.3145160   -8.1415433  
C    5.2015877    0.6278004   -8.7420111  
N    4.1965467    0.7837315   -7.8154756  
C    5.3401035    1.1916334   -9.9686363  
C    6.5165160    0.8472468  -10.7496517  
O    6.7319322    1.3022335  -11.8653961  
C    7.5498770   -0.1489128  -10.1335047  
O    8.5440263   -0.4465666  -10.7818325  
C    7.2913761   -0.6907873   -8.8018135  
H    6.0789968   -1.3319859   -6.1257201  
H    4.6216784    1.8806816  -10.3905216  
H    8.0118471   -1.3797133   -8.3822584  
H    3.3903084    1.3694972   -7.9333997  
C    2.5528530    2.1414826    2.8079335  
C    2.0663498    1.7338582    4.0032312  
C    0.9804344    0.8229586    3.6752840  
C    0.9495562    0.7966882    2.1971295  
N    1.8690446    1.5676019    1.6831036  
C    0.0000000    0.0000000    1.4700000  
C   -0.8785127   -0.7372425    2.1869543  
O   -1.8187535   -1.5261249    1.6395491  
C   -0.8723269   -0.7321790    3.6796354  
O   -1.7010379   -1.4274584    4.2670412  
C    0.1115397    0.0933559    4.4024240  
H    2.4028853    2.0163452    4.9860947  
H   -2.2861435   -1.9184361    2.3990168  
H    0.0832434    0.0693689    5.4835595  
H    3.3664920    2.8238276    2.6198634  
