64

C    6.6264034    0.0033837   -4.4617160  
C    5.3881259    0.0033500   -3.8624359  
C    5.6076656    0.0015729   -2.4530391  
C    7.0115531    0.0008607   -2.2504935  
N    7.6002645    0.0000422   -3.4906689  
C    7.5921589   -0.0005664   -0.9786114  
C    6.7400255   -0.0009806    0.1086079  
O    7.2537877   -0.0020108    1.3731475  
C    5.3365285   -0.0006589   -0.0730885  
O    4.6231713   -0.0015684    1.1077858  
C    4.7630507    0.0004755   -1.3275395  
H    4.4428899    0.0033635   -4.3777239  
H    8.5891817    0.0099811   -3.6636579  
H    8.6613887   -0.0012595   -0.8175183  
H    6.4980454   -0.0024352    1.9749105  
H    3.6846505   -0.0012503    0.8961680  
C    6.9890432    0.0043359   -5.8862831  
C    6.1880271    0.0078309   -7.0046878  
C    7.0547336    0.0077643   -8.1375688  
C    8.3845867    0.0038366   -7.6442115  
N    8.3086694    0.0037847   -6.2734988  
C    9.5026583    0.0023805   -8.4836764  
C    9.2740873    0.0046290   -9.8460003  
O   10.3299392    0.0029951  -10.7109788  
C    7.9545472    0.0089291  -10.3574826  
O    7.8926418    0.0111544  -11.7357082  
C    6.8510711    0.0106409   -9.5299177  
H    5.1114676    0.0112490   -7.0040692  
H    9.0944711   -0.0091663   -5.6487357  
H   10.5187677   -0.0004658   -8.1139247  
H    9.9539121    0.0053403  -11.6008444  
H    6.9671743    0.0140000  -11.9985884  
H    5.8523877    0.0141279   -9.9507484  
C    3.3003548    0.0005276   -1.4738982  
C    2.5232817    0.0003497   -2.6090743  
C    1.1623204   -0.0001319   -2.1820101  
C    1.1711886    0.0000583   -0.7636140  
N    2.4852302   -0.0014919   -0.3662356  
C    0.0000000    0.0000000    0.0000000  
C   -1.2020379    0.0000520   -0.6806479  
O   -2.3759249    0.0003495    0.0157742  
C   -1.2314652   -0.0005112   -2.0955511  
O   -2.5054384   -0.0008036   -2.6250184  
C   -0.0764510   -0.0007271   -2.8495195  
H    2.8919962   -0.0005619   -3.6205297  
H    2.8036267    0.0088181    0.5858667  
H   -3.0835636    0.0000348   -0.6418823  
H   -2.4360038   -0.0011526   -3.5845925  
H   -0.1304090   -0.0013420   -3.9319089  
C    0.8175213    0.6860729    2.3021913  
C    0.0000000    0.0000000    1.4700000  
C   -0.8887526   -0.7456559    2.3478473  
C   -0.4549825   -0.3816753    3.7138435  
N    0.5448156    0.4573574    3.6934124  
C   -1.0945674   -0.9182058    4.8835240  
C   -2.1210866   -1.7789155    4.6970523  
O   -2.8083856   -2.3554314    5.6976972  
C   -2.5824069   -2.1655116    3.3310774  
O   -3.5227682   -2.9541547    3.2362962  
C   -1.9100805   -1.6015804    2.1470656  
H   -0.7567140   -0.6349833    5.8697035  
H   -3.4728268   -2.9124471    5.2533954  
H   -2.2742832   -1.9066565    1.1752040  
H    1.6189533    1.3585343    2.0405121  
