58

C    1.1319248    0.0015676   -0.8009264  
C    0.7969916    0.0034960   -2.1169399  
C   -0.6453338    0.0035697   -2.1842669  
C   -1.1266832    0.0015408   -0.7896028  
N    0.0000000    0.0000000    0.0000000  
C   -2.4346133    0.0013914   -0.4276295  
C   -3.4350114    0.0031336   -1.4820180  
O   -4.6384612    0.0030875   -1.2583916  
C   -2.9478959    0.0050442   -2.9661077  
O   -3.7809376    0.0062135   -3.8623778  
C   -1.5113822    0.0053056   -3.2312124  
H    1.4821237    0.0045436   -2.9459189  
H   -2.7664564    0.0000174    0.6013440  
H    2.1104316    0.0009435   -0.3488055  
C   -0.0314511   -0.6768997   -5.1763403  
C   -1.0641735    0.0073884   -4.6315337  
C   -1.6445842    0.7536296   -5.7373126  
C   -0.8153932    0.3919060   -6.9070059  
N    0.1317520   -0.4464152   -6.5843234  
C   -1.0694267    0.9296198   -8.2152172  
C   -2.1049955    1.7893047   -8.3489091  
O   -2.4559516    2.3667292   -9.5105682  
C   -2.9604499    2.1736234   -7.1875921  
O   -3.8859683    2.9614356   -7.3824977  
C   -2.6795558    1.6085129   -5.8557990  
H   -3.2246978    2.9226232   -9.2888397  
H   -3.3225050    1.9119420   -5.0404604  
H    0.6531476   -1.3491381   -4.6840054  
C   -0.2227558    0.5464488   -9.3541763  
C    0.8361103   -0.2963787   -9.3591634  
C    1.2975434   -0.3107778  -10.7387909  
C    0.3780342    0.6040110  -11.4488960  
N   -0.5152339    1.1095926  -10.6423929  
C    0.5019642    0.8658307  -12.8564396  
C    1.4993903    0.2424278  -13.5241558  
O    1.7317320    0.3941668  -14.8390829  
C    2.4437353   -0.6861418  -12.8355834  
O    3.3280198   -1.2189034  -13.5059762  
C    2.2958375   -0.9383799  -11.3911375  
H    1.2526659   -0.8409777   -8.5291218  
H   -0.1841384    1.5387718  -13.3497184  
H    2.5025516   -0.1729564  -15.0217330  
H    3.0001564   -1.6174572  -10.9295979  
C    0.8175213    0.6860729    2.3021913  
C    0.0000000    0.0000000    1.4700000  
C   -0.8887526   -0.7456559    2.3478473  
C   -0.4549825   -0.3816753    3.7138435  
N    0.5448156    0.4573574    3.6934124  
C   -1.0945674   -0.9182058    4.8835240  
C   -2.1210866   -1.7789155    4.6970523  
O   -2.8083856   -2.3554314    5.6976972  
C   -2.5824069   -2.1655116    3.3310774  
O   -3.5227682   -2.9541547    3.2362962  
C   -1.9100805   -1.6015804    2.1470656  
H   -0.7567140   -0.6349833    5.8697035  
H   -3.4728268   -2.9124471    5.2533954  
H   -2.2742832   -1.9066565    1.1752040  
H    1.6189533    1.3585343    2.0405121  
