60

C    3.3041272    0.0001182   -1.5420430  
C    2.5845371   -0.0004777   -0.3695856  
C    1.2040006   -0.0000006   -0.7283593  
C    1.1422372    0.0006038   -2.1454372  
N    2.4348640    0.0026113   -2.6077468  
C   -0.0655182    0.0008798   -2.8497918  
C   -1.2321767    0.0002323   -2.1101399  
O   -2.4392815    0.0001145   -2.7472521  
C   -1.1911210   -0.0000006   -0.6955266  
O   -2.4371527   -0.0002323   -0.1032862  
C    0.0000000    0.0000000    0.0000000  
H    3.0031537   -0.0000657    0.6222579  
H    2.7054627   -0.0071095   -3.5745262  
H   -3.1132989   -0.0000651   -2.0551787  
H   -2.3200282   -0.0004073    0.8516412  
H    4.3686620    0.0004077   -1.7024292  
C    2.3446867   -2.1385760   -5.7825616  
C    1.7992123   -1.7303703   -6.9519226  
C    0.7308349   -0.8198484   -6.5697986  
C    0.7735870   -0.7944100   -5.0919257  
N    1.7176441   -1.5654466   -4.6247550  
C   -0.1387084    0.0017018   -4.3179686  
C   -1.0519392    0.7391880   -4.9898749  
O   -1.9638782    1.5275961   -4.3958874  
C   -1.1200798    0.7349601   -6.4810150  
O   -1.9771140    1.4304198   -7.0260372  
C   -0.1732961   -0.0899946   -7.2523611  
H    2.0864369   -2.0122475   -7.9504827  
H   -2.4685607    1.9202478   -5.1309194  
H   -0.2553896   -0.0654081   -8.3307333  
C    4.1702607   -3.7029969   -6.5938759  
C    5.1440182   -4.4997005   -6.0828624  
C    5.0737288   -4.3812684   -4.6455497  
C    3.9712775   -3.4435590   -4.3590302  
N    3.4652987   -3.0686354   -5.5822665  
C    3.5851946   -3.0683505   -3.1132922  
C    4.3035407   -3.6250613   -1.9790139  
O    4.0316612   -3.3491315   -0.8178740  
C    5.4747235   -4.6199024   -2.2590614  
O    6.0870052   -5.0948244   -1.3120556  
C    5.7977281   -4.9482699   -3.6453133  
H    5.8330407   -5.1015121   -6.6482691  
H    2.7736980   -2.3792105   -2.9249597  
H    6.6098756   -5.6380386   -3.8306774  
H    3.9084736   -3.5257488   -7.6243814  
C    2.5528530    2.1414826    2.8079335  
C    2.0663498    1.7338582    4.0032312  
C    0.9804344    0.8229586    3.6752840  
C    0.9495562    0.7966882    2.1971295  
N    1.8690446    1.5676019    1.6831036  
C    0.0000000    0.0000000    1.4700000  
C   -0.8785127   -0.7372425    2.1869543  
O   -1.8187535   -1.5261249    1.6395491  
C   -0.8723269   -0.7321790    3.6796354  
O   -1.7010379   -1.4274584    4.2670412  
C    0.1115397    0.0933559    4.4024240  
H    2.4028853    2.0163452    4.9860947  
H   -2.2861435   -1.9184361    2.3990168  
H    0.0832434    0.0693689    5.4835595  
H    3.3664920    2.8238276    2.6198634  
