60

C    0.0000000    0.0000000    0.0000000  
C    1.0521663   -0.0011902   -0.8862345  
C    0.4917215   -0.0011956   -2.1979133  
C   -0.9187430    0.0003149   -2.0478683  
N   -1.1833172   -0.0009411   -0.7007910  
C   -1.7951704    0.0010351   -3.1372088  
C   -1.2375840    0.0005226   -4.4010423  
O   -2.0474221    0.0015361   -5.4997580  
C    0.1673576   -0.0013565   -4.5711965  
O    0.5673516   -0.0020685   -5.8915550  
C    1.0325767   -0.0023411   -3.4969892  
H    2.0953056   -0.0030649   -0.6200563  
H   -2.0989778    0.0102372   -0.2891821  
H   -1.4634890    0.0006499   -6.2693592  
H    1.5290706   -0.0033151   -5.9180044  
C   -3.9676858    0.7292803   -2.0471632  
C   -5.3027884    0.5138129   -2.1702451  
C   -5.4806689   -0.4129644   -3.2630753  
C   -4.1300714   -0.7220055   -3.7701948  
N   -3.2578654    0.0024039   -2.9908502  
C   -3.8704657   -1.5626540   -4.8034518  
C   -4.9964195   -2.2058250   -5.4600295  
O   -4.8664338   -2.9792892   -6.3997937  
C   -6.4355612   -1.8929052   -4.9396856  
O   -7.3913524   -2.4282480   -5.4847853  
C   -6.5888871   -0.9698096   -3.8179737  
H   -6.0749066    0.9540219   -1.5647167  
H   -2.8722055   -1.7757893   -5.1597650  
H   -7.5886453   -0.7586028   -3.4635753  
H   -3.4426192    1.3580890   -1.3465961  
C    4.5241608   -2.0197577   -1.5987499  
C    3.2542962   -1.6359931   -1.8666084  
C    3.3687702   -0.7184083   -2.9897440  
C    4.8178192   -0.6623894   -3.2790566  
N    5.5001553   -1.4232463   -2.4669579  
C    5.3513656    0.1489353   -4.3383806  
C    4.4770186    0.8711558   -5.0754354  
O    4.8354373    1.6709955   -6.0941765  
C    3.0088485    0.8354670   -4.8082941  
O    2.2716109    1.5185904   -5.5189582  
C    2.4861696   -0.0045381   -3.7159924  
H    2.3514049   -1.9383216   -1.3641542  
H    6.4147068    0.1709922   -4.5274021  
H    3.9981313    2.0475014   -6.4202367  
H    4.8653676   -2.6984429   -0.8332843  
C    1.0672568    0.0000697    2.3021913  
C    0.0000000    0.0000000    1.4700000  
C   -1.1601224    0.0000736    2.3478473  
C   -0.5938729    0.0000769    3.7138435  
N    0.7113367    0.0001554    3.6934124  
C   -1.4286986    0.0001879    4.8835240  
C   -2.7683114    0.0006799    4.6970523  
O   -3.6653903    0.0008304    5.6976972  
C   -3.3702025    0.0010610    3.3310774  
O   -4.5974910    0.0013779    3.2362962  
C   -2.4926826    0.0008943    2.1470656  
H   -0.9878360   -0.0000190    5.8697035  
H   -4.5324246    0.0012261    5.2533954  
H   -2.9677772    0.0012974    1.1752040  
H    2.1134392    0.0000545    2.0405121  
