62

C   -3.3040082    0.0281028   -1.5420424  
C   -2.5844392    0.0225525   -0.3695848  
C   -1.2039567    0.0102840   -0.7283588  
C   -1.1422016    0.0091521   -2.1454372  
N   -2.4347980    0.0181853   -2.6077461  
C    0.0655074   -0.0014395   -2.8497915  
C    1.2321298   -0.0107566   -2.1101402  
O    2.4391913   -0.0209488   -2.7472522  
C    1.1910763   -0.0101726   -0.6955267  
O    2.4370656   -0.0205839   -0.1032868  
C    0.0000000    0.0000000    0.0000000  
H   -3.0030432    0.0257161    0.6222587  
H   -2.7053039    0.0302169   -3.5745259  
H    0.1193376   -0.0025040   -3.9297473  
H    3.1131857   -0.0265260   -2.0551788  
H    2.3199472   -0.0194084    0.8516408  
C   -6.5768786    0.0597326    1.3345549  
C   -7.6642453    0.0682250    0.5288622  
C   -7.1288299    0.0618786   -0.8238352  
C   -5.6611848    0.0494045   -0.6437050  
N   -5.3316589    0.0480115    0.6193867  
C   -4.7575533    0.0401229   -1.7610452  
C   -5.2956403    0.0427756   -3.0019279  
O   -4.5715316    0.0349887   -4.1340262  
C   -6.7728039    0.0549057   -3.2164052  
O   -7.1924933    0.0568115   -4.3735903  
C   -7.6788208    0.0643183   -2.0540930  
H   -5.2315990    0.0394294   -4.8505765  
H   -8.7423303    0.0728702   -2.2518429  
H   -6.5490989    0.0608174    2.4126091  
C   -9.8707762    2.2150852    3.7710640  
C   -8.8926905    1.7434976    2.9264217  
C   -9.5289142    0.8600875    2.0047896  
C  -10.9071783    0.8322447    2.3387667  
N  -11.0801665    1.6644285    3.4168029  
C  -11.8400313    0.0628863    1.6368684  
C  -11.3730792   -0.6918836    0.5783527  
O  -12.2410717   -1.4611046   -0.1413010  
C  -10.0014881   -0.6775962    0.2299972  
O   -9.6932079   -1.4823578   -0.8473450  
C   -9.0805972    0.0809490    0.9221638  
H   -7.8488522    2.0033012    2.9699681  
H  -11.9563055    1.8539444    3.8689595  
H  -12.8918063    0.0372133    1.8864920  
H  -11.7161764   -1.8996007   -0.8235547  
H   -8.7485045   -1.4153083   -1.0165861  
H   -9.8011609    2.8995638    4.5990748  
C    0.8175213    0.6860729    2.3021913  
C    0.0000000    0.0000000    1.4700000  
C   -0.8887526   -0.7456559    2.3478473  
C   -0.4549825   -0.3816753    3.7138435  
N    0.5448156    0.4573574    3.6934124  
C   -1.0945674   -0.9182058    4.8835240  
C   -2.1210866   -1.7789155    4.6970523  
O   -2.8083856   -2.3554314    5.6976972  
C   -2.5824069   -2.1655116    3.3310774  
O   -3.5227682   -2.9541547    3.2362962  
C   -1.9100805   -1.6015804    2.1470656  
H   -0.7567140   -0.6349833    5.8697035  
H   -3.4728268   -2.9124471    5.2533954  
H   -2.2742832   -1.9066565    1.1752040  
H    1.6189533    1.3585343    2.0405121  
