60

C   -1.0639420    3.1241589   -1.4738985  
C   -0.8133848    2.3885884   -2.6090745  
C   -0.3743990    1.1003696   -2.1820103  
C   -0.3774365    1.1087036   -0.7636145  
N   -0.7993802    2.3531600   -0.3662358  
C    0.0000000    0.0000000    0.0000000  
C    0.3872721   -1.1379440   -0.6806483  
O    0.7652412   -2.2493168    0.0157741  
C    0.3972869   -1.1656204   -2.0955512  
O    0.8080646   -2.3715516   -2.6250183  
C    0.0253222   -0.0721398   -2.8495194  
H   -0.9117343    2.6512524    0.5858664  
H    0.9935546   -2.9191118   -0.6418821  
H    0.7860215   -2.3057081   -3.5845925  
H    0.0432905   -0.1230218   -3.9319087  
H   -1.4090689    4.1382384   -1.3667130  
C    0.0136432    6.2000864   -4.7661442  
C   -0.0762724    5.2782262   -3.7793977  
C   -0.6425735    4.0998195   -4.4174887  
C   -0.8379886    4.4975078   -5.8282474  
N   -0.4550441    5.7275800   -6.0386398  
C   -1.3869096    3.5962995   -6.8037454  
C   -1.7248734    2.3541349   -6.3888456  
O   -2.2473147    1.4110569   -7.1911550  
C   -1.5394186    1.9227843   -4.9719107  
O   -1.8691672    0.7772945   -4.6647631  
C   -0.9744325    2.8655993   -3.9901700  
H    0.2068231    5.3847023   -2.7461525  
H   -1.5189094    3.9136428   -7.8278444  
H   -2.3808890    0.6390740   -6.6120579  
C    1.5961340    8.3896782   -1.3472400  
C    1.8908628    9.5932690   -1.8913768  
C    1.5161289    9.4735647   -3.2920000  
C    0.9993423    8.0943045   -3.4229828  
N    1.0436846    7.4541244   -2.2862359  
C    0.5198734    7.5771624   -4.6750852  
C    0.5547158    8.4006007   -5.7474983  
O    0.1393787    8.0502170   -6.9766309  
C    1.0701451    9.7978984   -5.6472291  
O    1.0725354   10.4913146   -6.6642776  
C    1.5564451   10.3050271   -4.3517529  
H    2.3106258   10.4558259   -1.4026355  
H    0.2880336    8.8424668   -7.5238003  
H    1.9217315   11.3227895   -4.3208650  
H    1.7273910    8.0730541   -0.3247460  
C    2.3971438    2.0127888    3.1728260  
C    1.9431056    1.6308205    1.9564670  
C    0.8496017    0.7127664    2.2356185  
C    0.7794028    0.6545384    3.7115134  
N    1.6840587    1.4146091    4.2663826  
C   -0.1885723   -0.1578550    4.3957118  
C   -1.0476298   -0.8789867    3.6398520  
O   -2.0015663   -1.6796266    4.1448486  
C   -1.0022026   -0.8410666    2.1483229  
O   -1.8147390   -1.5232959    1.5241687  
C    0.0000000    0.0000000    1.4700000  
H    2.3054237    1.9346118    0.9892483  
H   -0.2170646   -0.1815267    5.4753125  
H   -2.4487139   -2.0549881    3.3649027  
H    3.2048689    2.6911772    3.3971983  
