58

C    4.3630977   -2.0949039   -1.3110651  
C    3.1522512   -1.6320805   -1.7156882  
C    3.3924173   -0.7354494   -2.8216758  
C    4.8529069   -0.7137078   -3.0297342  
N    5.3832064   -1.5581154   -2.0817639  
C    5.4827045    0.0162379   -3.9848457  
C    4.6677390    0.8352839   -4.8666223  
O    5.1406430    1.5283991   -5.7578309  
C    3.1189444    0.8277104   -4.6641775  
O    2.4225435    1.5135515   -5.4003216  
C    2.5562217   -0.0001543   -3.6003001  
H    2.1995749   -1.8892844   -1.2880586  
H    6.5552966    0.0179177   -4.1206903  
H    6.3605504   -1.7557299   -1.9686510  
C    4.6807926   -3.0330188   -0.2248284  
C    3.8399309   -3.6630623    0.6354459  
C    4.6582595   -4.4734234    1.5063595  
C    6.0548146   -4.2623076    1.0799147  
N    5.9998129   -3.3791614    0.0263878  
C    7.1322815   -4.8531060    1.6558698  
C    6.9010318   -5.7574215    2.7699939  
O    7.8056712   -6.3382636    3.3552731  
C    5.4300806   -5.9959664    3.2381860  
O    5.2230090   -6.7554430    4.1749769  
C    4.3517132   -5.3018552    2.5387684  
H    2.7686577   -3.5708157    0.6573023  
H    8.1485826   -4.6845356    1.3278057  
H    3.3360962   -5.4722837    2.8692223  
H    6.7954794   -3.0370415   -0.4804817  
C    0.0000000    0.0000000    0.0000000  
C    1.0541688   -0.0001719   -0.8560391  
C    0.5103141   -0.0000449   -2.1935955  
C   -0.9576367    0.0002461   -2.0455733  
N   -1.2018459   -0.0001392   -0.6915970  
C   -1.8348306    0.0008319   -3.0810611  
C   -1.2972842    0.0009739   -4.4314605  
O   -2.0050664    0.0014267   -5.4301321  
C    0.2542628    0.0004190   -4.6117571  
O    0.7184677    0.0002263   -5.7439119  
C    1.0974556    0.0000880   -3.4189127  
H    2.0940752   -0.0005479   -0.5817978  
H   -2.9081050    0.0011669   -2.9507065  
H   -2.1128195    0.0014911   -0.2706793  
C    1.0672568    0.0000697    2.3021913  
C    0.0000000    0.0000000    1.4700000  
C   -1.1601224    0.0000736    2.3478473  
C   -0.5938729    0.0000769    3.7138435  
N    0.7113367    0.0001554    3.6934124  
C   -1.4286986    0.0001879    4.8835240  
C   -2.7683114    0.0006799    4.6970523  
O   -3.6653903    0.0008304    5.6976972  
C   -3.3702025    0.0010610    3.3310774  
O   -4.5974910    0.0013779    3.2362962  
C   -2.4926826    0.0008943    2.1470656  
H   -0.9878360   -0.0000190    5.8697035  
H   -4.5324246    0.0012261    5.2533954  
H   -2.9677772    0.0012974    1.1752040  
H    2.1134392    0.0000545    2.0405121  
