58

C    2.6001985   -2.1411817   -5.8266045  
C    2.0730544   -1.7332817   -7.0044479  
C    0.9991586   -0.8222833   -6.6393041  
C    1.0189897   -0.7962635   -5.1609560  
N    1.9554492   -1.5673976   -4.6788913  
C    0.0950446    0.0004351   -4.4015596  
C   -0.8074267    0.7379269   -5.0878433  
O   -1.7282262    1.5268493   -4.5083866  
C   -0.8524305    0.7331199   -6.5798594  
O   -1.7006935    1.4286192   -7.1383864  
C    0.1059492   -0.0924309   -7.3360990  
H   -2.2213256    1.9193583   -5.2513142  
H    0.0406002   -0.0682534   -8.4156246  
H    3.4197066   -2.8236757   -5.6666595  
C    3.3079541   -5.6080416   -8.5692974  
C    3.5586588   -5.3238323   -9.8685092  
C    3.2768792   -3.9028897  -10.0027531  
C    2.8562714   -3.4769659   -8.6506208  
N    2.8725907   -4.4721972   -7.8060859  
C    2.4862153   -2.1188250   -8.3614868  
C    2.5345356   -1.2266518   -9.3768822  
O    2.2166250    0.0729068   -9.2499135  
C    2.9552320   -1.6256521  -10.7523717  
O    2.9757162   -0.7608677  -11.6281281  
C    3.3300162   -3.0248833  -11.0236895  
H    3.8935428   -5.9954659  -10.6404139  
H    2.3486341    0.4484781  -10.1391109  
H    3.6291028   -3.2734600  -12.0331391  
H    3.3972634   -6.5588100   -8.0682624  
C    3.3321173    0.0004713   -1.3379338  
C    2.6974181    0.0000116   -2.5332314  
C    1.2800438   -0.0002119   -2.2052841  
C    1.2395034    0.0000643   -0.7271299  
N    2.4394062    0.0005460   -0.2131038  
C    0.0000000    0.0000000    0.0000000  
C   -1.1468702    0.0000634   -0.7169543  
O   -2.3742203    0.0000074   -0.1695487  
C   -1.1388770    0.0001607   -2.2096355  
O   -2.2206234    0.0000905   -2.7970411  
C    0.1454522    0.0001815   -2.9324241  
H    3.1367984   -0.0000653   -3.5160950  
H   -2.9844346    0.0001026   -0.9290167  
H    4.3940038    0.0007618   -1.1498640  
C    2.5528530    2.1414826    2.8079335  
C    2.0663498    1.7338582    4.0032312  
C    0.9804344    0.8229586    3.6752840  
C    0.9495562    0.7966882    2.1971295  
N    1.8690446    1.5676019    1.6831036  
C    0.0000000    0.0000000    1.4700000  
C   -0.8785127   -0.7372425    2.1869543  
O   -1.8187535   -1.5261249    1.6395491  
C   -0.8723269   -0.7321790    3.6796354  
O   -1.7010379   -1.4274584    4.2670412  
C    0.1115397    0.0933559    4.4024240  
H    2.4028853    2.0163452    4.9860947  
H   -2.2861435   -1.9184361    2.3990168  
H    0.0832434    0.0693689    5.4835595  
H    3.3664920    2.8238276    2.6198634  
