58

C    2.8912669   -0.6998115   -3.3332351  
C    1.7334695    0.0049281   -3.2500363  
C    1.6041098    0.7488997   -4.4807302  
C    2.7899380    0.4174240   -5.2935810  
N    3.5303611   -0.4649345   -4.5411804  
C    3.0393019    0.9187051   -6.5298007  
C    2.0755503    1.8468034   -7.0975613  
O    2.2101242    2.3528617   -8.2039496  
C    0.8125759    2.2121889   -6.2542374  
O   -0.0056411    2.9927351   -6.7217067  
C    0.6534233    1.6072169   -4.9341877  
H    3.9152832    0.6624810   -7.1093829  
H   -0.2239004    1.8652502   -4.3567398  
H    3.3315067   -1.3708305   -2.6136436  
C    5.1803175   -2.3831415   -4.7322045  
C    6.4157122   -2.6304123   -5.2388911  
C    6.8799249   -1.4002859   -5.8356588  
C    5.8060216   -0.4089697   -5.6336359  
N    4.8041503   -1.0679540   -4.9591845  
C    5.8603273    0.8800086   -6.0546948  
C    7.0561904    1.3203044   -6.7536840  
O    7.2010210    2.4614505   -7.1721456  
C    8.2059113    0.2872452   -6.9789284  
O    9.2174340    0.6463147   -7.5664239  
C    8.0315322   -1.0740930   -6.4787261  
H    6.9416914   -3.5676379   -5.1992916  
H    5.0615049    1.5911163   -5.8962072  
H    8.8323370   -1.7832369   -6.6385717  
H    4.5129539   -3.0511101   -4.2122684  
C    1.1319246    0.0015678   -0.8009268  
C    0.7969914    0.0034958   -2.1169401  
C   -0.6453340    0.0035696   -2.1842669  
C   -1.1266832    0.0015410   -0.7896025  
N    0.0000000    0.0000000    0.0000000  
C   -2.4346129    0.0013913   -0.4276292  
C   -3.4350111    0.0031335   -1.4820181  
O   -4.6384614    0.0030875   -1.2583914  
C   -2.9478961    0.0050442   -2.9661074  
O   -3.7809382    0.0062135   -3.8623773  
C   -1.5113825    0.0053055   -3.2312122  
H   -2.7664565    0.0000174    0.6013448  
H   -1.1823533    0.0068381   -4.2614848  
H    2.1104316    0.0009435   -0.3488059  
C    0.8175213    0.6860729    2.3021913  
C    0.0000000    0.0000000    1.4700000  
C   -0.8887526   -0.7456559    2.3478473  
C   -0.4549825   -0.3816753    3.7138435  
N    0.5448156    0.4573574    3.6934124  
C   -1.0945674   -0.9182058    4.8835240  
C   -2.1210866   -1.7789155    4.6970523  
O   -2.8083856   -2.3554314    5.6976972  
C   -2.5824069   -2.1655116    3.3310774  
O   -3.5227682   -2.9541547    3.2362962  
C   -1.9100805   -1.6015804    2.1470656  
H   -0.7567140   -0.6349833    5.8697035  
H   -3.4728268   -2.9124471    5.2533954  
H   -2.2742832   -1.9066565    1.1752040  
H    1.6189533    1.3585343    2.0405121  
