58

C    3.2573668   -0.0002919   -1.5109384  
C    2.5379469   -0.0001710   -0.3591966  
C    1.1435042    0.0000332   -0.7338501  
C    1.1092602   -0.0000081   -2.2088476  
N    2.4227556    0.0001910   -2.6182611  
C   -0.0265540   -0.0002522   -2.9515660  
C   -1.3003042   -0.0002638   -2.2514972  
O   -2.3786793   -0.0004130   -2.8306421  
C   -1.2877728    0.0000312   -0.6895602  
O   -2.3539960    0.0003307   -0.0892028  
C    0.0000000    0.0000000    0.0000000  
H    2.9384092   -0.0000369    0.6389232  
H   -0.0296299   -0.0004083   -4.0327227  
H    2.7280486   -0.0013405   -3.5742116  
C    6.5597228   -0.0008211    1.3835016  
C    7.6114518   -0.0009114    0.5244667  
C    7.0637934   -0.0009870   -0.8115370  
C    5.5962696   -0.0009038   -0.6593386  
N    5.3559139   -0.0012037    0.6953270  
C    4.7161331   -0.0005435   -1.6923264  
C    5.2498352   -0.0004420   -3.0442499  
O    4.5392144   -0.0001858   -4.0409033  
C    6.8008630   -0.0007796   -3.2289603  
O    7.2618449   -0.0010042   -4.3624313  
C    7.6474464   -0.0008760   -2.0385196  
H    8.6521348   -0.0011060    0.7957479  
H    8.7203346   -0.0009047   -2.1750269  
H    4.4461418    0.0003271    1.1188348  
C    9.6988508    0.0009678    4.5474093  
C    9.1020557    0.0000144    3.3327435  
C    7.6750689   -0.0005553    3.6159562  
C    7.5880645    0.0000815    5.0921041  
N    8.7712092    0.0010559    5.6436098  
C    6.3263076   -0.0001745    5.7798955  
C    5.2025511   -0.0006391    5.0272298  
O    3.9585937   -0.0009286    5.5357677  
C    5.2574815   -0.0009160    3.5355380  
O    4.1947427   -0.0014618    2.9144050  
C    6.5639050   -0.0006888    2.8534956  
H    9.5721261   -0.0001774    2.3641835  
H    6.2923371    0.0000980    6.8595973  
H    3.3725644   -0.0012096    4.7574855  
H   10.7542982    0.0016271    4.7687797  
C    2.5528530    2.1414826    2.8079335  
C    2.0663498    1.7338582    4.0032312  
C    0.9804344    0.8229586    3.6752840  
C    0.9495562    0.7966882    2.1971295  
N    1.8690446    1.5676019    1.6831036  
C    0.0000000    0.0000000    1.4700000  
C   -0.8785127   -0.7372425    2.1869543  
O   -1.8187535   -1.5261249    1.6395491  
C   -0.8723269   -0.7321790    3.6796354  
O   -1.7010379   -1.4274584    4.2670412  
C    0.1115397    0.0933559    4.4024240  
H    2.4028853    2.0163452    4.9860947  
H   -2.2861435   -1.9184361    2.3990168  
H    0.0832434    0.0693689    5.4835595  
H    3.3664920    2.8238276    2.6198634  
