58

C   -3.3320777    0.0163517   -1.3379329  
C   -2.6973844    0.0136069   -2.5332308  
C   -1.2800270    0.0066743   -2.2052838  
C   -1.2394883    0.0061936   -0.7271295  
N   -2.4393777    0.0117701   -0.2131033  
C    0.0000000    0.0000000    0.0000000  
C    1.1468540   -0.0058540   -0.7169545  
O    2.3741890   -0.0119946   -0.1695500  
C    1.1388618   -0.0059110   -2.2096360  
O    2.2205947   -0.0113024   -2.7970423  
C   -0.1454522    0.0005524   -2.9324242  
H   -3.1367589    0.0159020   -3.5160938  
H    2.9843953   -0.0151708   -0.9290177  
H   -0.1083595    0.0001785   -4.0135593  
C   -6.6780431    0.0336640   -4.1292963  
C   -7.7443259    0.0381318   -3.2958695  
C   -7.1742299    0.0348191   -1.9574078  
C   -5.7116724    0.0281005   -2.1752722  
N   -5.4147808    0.0274748   -3.4464310  
C   -4.7795345    0.0232639   -1.0815715  
C   -5.2854880    0.0254468    0.1727573  
O   -4.5324376    0.0214769    1.2858341  
C   -6.7566713    0.0325717    0.4252032  
O   -7.1464216    0.0340828    1.5928130  
C   -7.6923530    0.0373933   -0.7133932  
H   -5.1738414    0.0244773    2.0191447  
H   -8.7504384    0.0426231   -0.4883215  
H   -6.6780407    0.0342292   -5.2077089  
C   -9.8588683   -2.0917860   -6.4549294  
C  -11.1345736   -1.6782897   -6.2727876  
C  -11.0756715   -0.7682655   -5.1392599  
C   -9.6490798   -0.7488751   -4.7506130  
N   -8.9309118   -1.5227425   -5.5183063  
C   -9.1703764    0.0449924   -3.6525679  
C  -10.0756204    0.7861110   -2.9738846  
O   -9.7690435    1.5730059   -1.9284910  
C  -11.5221957    0.7880101   -3.3420901  
O  -12.2898767    1.4865309   -2.6803076  
C  -11.9884981   -0.0347451   -4.4723826  
H  -12.0077116   -1.9563927   -6.8379109  
H  -10.6173827    1.9691434   -1.6591448  
H  -13.0440643   -0.0056953   -4.7072587  
H   -9.4821808   -2.7754995   -7.1989827  
C    2.5528530    2.1414826    2.8079335  
C    2.0663498    1.7338582    4.0032312  
C    0.9804344    0.8229586    3.6752840  
C    0.9495562    0.7966882    2.1971295  
N    1.8690446    1.5676019    1.6831036  
C    0.0000000    0.0000000    1.4700000  
C   -0.8785127   -0.7372425    2.1869543  
O   -1.8187535   -1.5261249    1.6395491  
C   -0.8723269   -0.7321790    3.6796354  
O   -1.7010379   -1.4274584    4.2670412  
C    0.1115397    0.0933559    4.4024240  
H    2.4028853    2.0163452    4.9860947  
H   -2.2861435   -1.9184361    2.3990168  
H    0.0832434    0.0693689    5.4835595  
H    3.3664920    2.8238276    2.6198634  
