58

C    3.2798084    0.0005860   -1.4499649  
C    2.5571141    0.0005569   -2.5996553  
C    1.1637434    0.0001550   -2.2210363  
C    1.1336962   -0.0000199   -0.7459473  
N    2.4483513   -0.0001427   -0.3402723  
C    0.0000000    0.0000000    0.0000000  
C   -1.2757367   -0.0000186   -0.6964414  
O   -2.3524598   -0.0000639   -0.1142315  
C   -1.2676494   -0.0000872   -2.2584084  
O   -2.3355762   -0.0004101   -2.8557298  
C    0.0181556    0.0001762   -2.9516295  
H    0.0150785    0.0003321   -4.0331632  
H    4.3498546    0.0008615   -1.3200022  
H    2.7563626    0.0012825    0.6148059  
C    5.9615633   -2.0068621   -4.6598587  
C    5.0892053   -1.6259401   -3.6978460  
C    4.1745232   -0.7102535   -4.3622063  
C    4.6548505   -0.6521083   -5.7595210  
N    5.7020996   -1.4101828   -5.9400261  
C    4.0067726    0.1582102   -6.7537375  
C    2.9276596    0.8774354   -6.3695954  
O    2.2263949    1.6760224   -7.1921086  
C    2.4184944    0.8395435   -4.9669281  
O    1.4313799    1.5199740   -4.6879304  
C    3.1006052    0.0006267   -3.9654951  
H    5.0688668   -1.9289886   -2.6649741  
H    1.5218038    2.0503734   -6.6330326  
H    6.7963915   -2.6834810   -4.5691842  
C    5.5805511   -3.0056060   -9.3608098  
C    5.8523998   -2.2691782  -10.4688925  
C    5.4809727   -0.9062333  -10.1701305  
C    4.9667904   -0.9090023   -8.7872352  
N    5.0536052   -2.2117483   -8.3534087  
C    4.5138532    0.1904083   -8.1331335  
C    4.5339249    1.4611964   -8.8382788  
O    4.1472405    2.5081102   -8.3355384  
C    5.0740618    1.4874373  -10.3036693  
O    5.0955220    2.5514815  -10.9074982  
C    5.5353215    0.2372212  -10.9020427  
H    6.2657592   -2.6386074  -11.3904507  
H    5.9080122    0.2639661  -11.9169862  
H    5.7206296   -4.0615078   -9.1954630  
H    4.7786160   -2.5355515   -7.4442444  
C    0.8175213    0.6860729    2.3021913  
C    0.0000000    0.0000000    1.4700000  
C   -0.8887526   -0.7456559    2.3478473  
C   -0.4549825   -0.3816753    3.7138435  
N    0.5448156    0.4573574    3.6934124  
C   -1.0945674   -0.9182058    4.8835240  
C   -2.1210866   -1.7789155    4.6970523  
O   -2.8083856   -2.3554314    5.6976972  
C   -2.5824069   -2.1655116    3.3310774  
O   -3.5227682   -2.9541547    3.2362962  
C   -1.9100805   -1.6015804    2.1470656  
H   -0.7567140   -0.6349833    5.8697035  
H   -3.4728268   -2.9124471    5.2533954  
H   -2.2742832   -1.9066565    1.1752040  
H    1.6189533    1.3585343    2.0405121  
