60

C   -3.3002794   -0.0223200   -1.4738975  
C   -2.5232245   -0.0170111   -2.6090737  
C   -1.1622959   -0.0075430   -2.1820094  
C   -1.1711628   -0.0077918   -0.7636135  
N   -2.4851861   -0.0149181   -0.3662351  
C    0.0000000    0.0000000    0.0000000  
C    1.2020127    0.0078850   -0.6806478  
O    2.3758749    0.0153388    0.0157740  
C    1.2314351    0.0086424   -2.0955507  
O    2.5053784    0.0173469   -2.6250181  
C    0.0764446    0.0012319   -2.8495193  
H   -2.8035074   -0.0273303    0.5858668  
H    3.0834965    0.0203259   -0.6418813  
H    2.4359429    0.0172374   -3.5845921  
H    0.1303967    0.0022029   -3.9319081  
H   -4.3714567   -0.0293549   -1.3667122  
C   -3.0266843   -0.0190908   -3.9901688  
C   -4.3102568   -0.0274553   -4.4333923  
C   -4.2574057   -0.0256950   -5.8763195  
C   -2.8275741   -0.0155757   -6.2400093  
N   -2.1344213   -0.0115780   -5.0515598  
C   -2.3580942   -0.0115305   -7.5133029  
C   -3.3256131   -0.0173184   -8.5979262  
O   -3.0026862   -0.0142655   -9.7786079  
C   -4.8450384   -0.0278005   -8.2359275  
O   -5.6689089   -0.0324353   -9.1406243  
C   -5.2286797   -0.0316414   -6.8264395  
H   -5.1933219   -0.0339179   -3.8195778  
H   -1.3051105   -0.0042227   -7.7584188  
H   -1.1343944   -0.0062822   -4.9681011  
C   -7.5895141    2.0435858   -3.7254193  
C   -6.5872621    1.5886160   -4.5207612  
C   -7.1853975    0.6887741   -5.4785471  
C   -8.6286262    0.6565896   -5.1738414  
N   -8.8080927    1.4986318   -4.1006938  
C   -9.5423148   -0.0790655   -5.8562560  
C   -9.0729121   -0.8936747   -6.9646821  
O   -9.8175715   -1.5913200   -7.6407541  
C   -7.5485445   -0.8750525   -7.3049202  
O   -7.1415904   -1.5570782   -8.2357745  
C   -6.6613089   -0.0417930   -6.4972428  
H   -5.5475718    1.8530391   -4.4450066  
H  -10.5965233   -0.0883911   -5.6165335  
H   -7.5404048    2.7309701   -2.8965763  
H   -9.6889496    1.6896097   -3.6594833  
C    2.3971438    2.0127888    3.1728260  
C    1.9431056    1.6308205    1.9564670  
C    0.8496017    0.7127664    2.2356185  
C    0.7794028    0.6545384    3.7115134  
N    1.6840587    1.4146091    4.2663826  
C   -0.1885723   -0.1578550    4.3957118  
C   -1.0476298   -0.8789867    3.6398520  
O   -2.0015663   -1.6796266    4.1448486  
C   -1.0022026   -0.8410666    2.1483229  
O   -1.8147390   -1.5232959    1.5241687  
C    0.0000000    0.0000000    1.4700000  
H    2.3054237    1.9346118    0.9892483  
H   -0.2170646   -0.1815267    5.4753125  
H   -2.4487139   -2.0549881    3.3649027  
H    3.2048689    2.6911772    3.3971983  
