60

C    3.3003540    0.0005278   -1.4738998  
C    2.5232805    0.0003501   -2.6090759  
C    1.1623190   -0.0001315   -2.1820106  
C    1.1711880    0.0000584   -0.7636147  
N    2.4852300   -0.0014918   -0.3662366  
C    0.0000000    0.0000000    0.0000000  
C   -1.2020387    0.0000521   -0.6806476  
O   -2.3759253    0.0003495    0.0157752  
C   -1.2314666   -0.0005110   -2.0955505  
O   -2.5054395   -0.0008035   -2.6250174  
C   -0.0764524   -0.0007269   -2.8495195  
H    2.8919942   -0.0005615   -3.6205312  
H    2.8036265    0.0088181    0.5858650  
H   -3.0835639    0.0000348   -0.6418810  
H   -2.4360058   -0.0011523   -3.5845915  
C    0.6778483   -0.7280270   -5.1604563  
C    0.3572077   -0.5121156   -6.4622425  
C   -0.7500370    0.4145353   -6.4749821  
C   -1.0503185    0.7230184   -5.0637911  
N   -0.1496428   -0.0015607   -4.3176960  
C   -2.0334675    1.5633983   -4.6528347  
C   -2.8505407    2.2068487   -5.6681665  
O   -3.7605432    2.9801058   -5.3993364  
C   -2.5503738    1.8945201   -7.1688848  
O   -3.2318486    2.4301022   -8.0325996  
C   -1.4639138    0.9716712   -7.4879563  
H    0.8409985   -0.9519512   -7.3161187  
H   -2.2371063    1.7761245   -3.6125519  
H   -1.2623918    0.7608739   -8.5294349  
H    1.4488967   -1.3568980   -4.7458544  
C    5.6973658    0.0015112   -2.3066395  
C    4.7630502    0.0004759   -1.3275418  
C    5.5210295   -0.0005633   -0.0857829  
C    6.9366162   -0.0000803   -0.5132155  
N    7.0462376    0.0012159   -1.8139732  
C    8.0173669   -0.0007891    0.4339192  
C    7.6984457   -0.0015396    1.7483100  
O    8.6048018   -0.0022609    2.7405586  
C    6.2793317   -0.0016714    2.2112095  
O    6.0628284   -0.0024954    3.4229627  
C    5.1885716   -0.0009780    1.2201660  
H    9.0425399   -0.0006198    0.0934344  
H    8.0763830   -0.0026579    3.5590485  
H    4.1742372   -0.0009835    1.5961383  
H    5.5411482    0.0024807   -3.3736766  
C    0.8175213    0.6860729    2.3021913  
C    0.0000000    0.0000000    1.4700000  
C   -0.8887526   -0.7456559    2.3478473  
C   -0.4549825   -0.3816753    3.7138435  
N    0.5448156    0.4573574    3.6934124  
C   -1.0945674   -0.9182058    4.8835240  
C   -2.1210866   -1.7789155    4.6970523  
O   -2.8083856   -2.3554314    5.6976972  
C   -2.5824069   -2.1655116    3.3310774  
O   -3.5227682   -2.9541547    3.2362962  
C   -1.9100805   -1.6015804    2.1470656  
H   -0.7567140   -0.6349833    5.8697035  
H   -3.4728268   -2.9124471    5.2533954  
H   -2.2742832   -1.9066565    1.1752040  
H    1.6189533    1.3585343    2.0405121  
