58

C    3.2798087    0.0005848   -1.4499654  
C    2.5571146    0.0005558   -2.5996556  
C    1.1637437    0.0001542   -2.2210367  
C    1.1336967   -0.0000204   -0.7459475  
N    2.4483516   -0.0001432   -0.3402725  
C    0.0000000    0.0000000    0.0000000  
C   -1.2757367   -0.0000191   -0.6964423  
O   -2.3524593   -0.0000640   -0.1142321  
C   -1.2676494   -0.0000877   -2.2584086  
O   -2.3355759   -0.0004105   -2.8557301  
C    0.0181563    0.0001752   -2.9516303  
H    2.9547356    0.0006065   -3.5989110  
H    4.3498551    0.0008604   -1.3200026  
H    2.7563628    0.0012820    0.6148059  
C    2.4107292   -2.0068255   -6.1315649  
C    1.9593059   -1.6260421   -4.9138619  
C    0.8629756   -0.7103798   -5.1897639  
C    0.7884491   -0.6520953   -6.6654440  
N    1.6932089   -1.4100741   -7.2229985  
C   -0.1832710    0.1582441   -7.3467641  
C   -1.0417745    0.8773559   -6.5883552  
O   -1.9989204    1.6759470   -7.0905160  
C   -0.9920202    0.8393223   -5.0969669  
O   -1.8042913    1.5196548   -4.4704018  
C    0.0139740    0.0003870   -4.4216245  
H    2.3250484   -1.9291670   -3.9477234  
H   -0.2148871    0.1820077   -8.4262757  
H   -2.4446797    2.0502022   -6.3092447  
C    5.1340559   -4.2753137   -3.5391158  
C    5.8784985   -4.9003107   -4.4874084  
C    5.3676736   -4.4774127   -5.7700038  
C    4.2566584   -3.5481218   -5.4891936  
N    4.1662805   -3.4688930   -4.1186301  
C    3.5129285   -2.9290541   -6.4406797  
C    3.8275623   -3.1959943   -7.8343381  
O    3.2158280   -2.6872915   -8.7645549  
C    4.9999894   -4.1770501   -8.1548849  
O    5.2739151   -4.4097301   -9.3245363  
C    5.7291133   -4.7830913   -7.0436044  
H    6.6924550   -5.5801555   -4.3088043  
H    6.5396414   -5.4610793   -7.2740401  
H    5.2108673   -4.3361567   -2.4656691  
H    3.5011902   -2.9096597   -3.6166736  
C    0.0000000    0.0000000    1.4700000  
C    1.0662921    0.0000102    2.3034270  
C    0.4961870   -0.0000064    3.6418889  
C   -0.9663858    0.0000850    3.4240247  
N   -1.2632773    0.0000084    2.1528658  
C   -1.8985362    0.0000517    4.5177257  
C   -1.3925775   -0.0004564    5.7720543  
O   -2.1456383   -0.0005410    6.8851312  
C    0.0786232   -0.0009323    6.0245000  
O    0.4683759   -0.0012588    7.1921102  
C    1.0143166   -0.0008442    4.8859032  
H    2.1107198   -0.0000632    2.0421868  
H   -2.9622183    0.0003270    4.3293377  
H   -1.5042274   -0.0009692    7.6184419  
H    2.0724152   -0.0013148    5.1109744  
