58

C    1.1319243    0.0015660   -0.8009270  
C    0.7969904    0.0034946   -2.1169400  
C   -0.6453351    0.0035711   -2.1842662  
C   -1.1266839    0.0015432   -0.7896019  
N    0.0000000    0.0000000    0.0000000  
C   -2.4346135    0.0013961   -0.4276281  
C   -3.4350118    0.0031404   -1.4820168  
O   -4.6384624    0.0030966   -1.2583893  
C   -2.9478972    0.0050503   -2.9661058  
O   -3.7809397    0.0062215   -3.8623756  
C   -1.5113841    0.0053090   -3.2312115  
H   -2.7664565    0.0000228    0.6013460  
H   -1.1823549    0.0068404   -4.2614841  
H    2.1104314    0.0009395   -0.3488063  
C    4.5548686   -2.1353257   -2.6566590  
C    4.9410965   -1.7265247   -3.8876298  
C    3.8945904   -0.8159143   -4.3259369  
C    2.9291011   -0.7910816   -3.2062061  
N    3.3108520   -1.5625208   -2.2248106  
C    1.7334678    0.0049252   -3.2500367  
C    1.5125992    0.7428896   -4.3617741  
O    0.4386461    1.5312652   -4.5382104  
C    2.4682968    0.7392785   -5.5084165  
O    2.2033111    1.4351525   -6.4886017  
C    3.6876285   -0.0855801   -5.4394042  
H    5.8268143   -2.0080645   -4.4310582  
H    0.5619666    1.9243279   -5.4210727  
H    4.3545508   -0.0605401   -6.2907666  
C    8.3372091   -4.3843675   -3.0201721  
C    7.2695149   -3.5754220   -3.2431319  
C    6.4275440   -3.6574944   -2.0730102  
C    7.0970483   -4.5872088   -1.1433945  
N    8.2488807   -4.9926886   -1.7772389  
C    6.6174595   -4.9306811    0.0787860  
C    5.3577057   -4.3458076    0.5071298  
O    4.8429964   -4.5922162    1.5900231  
C    4.6312855   -3.3588447   -0.4613862  
O    3.5698694   -2.8604177   -0.1117759  
C    5.2470053   -3.0657203   -1.7532142  
H    7.0919247   -2.9883671   -4.1265583  
H    7.1243440   -5.6145067    0.7453901  
H    9.1810388   -4.5874699   -3.6593832  
H    8.9226762   -5.6305377   -1.3948836  
C    0.0000000    0.0000000    1.4700000  
C    1.0662921    0.0000102    2.3034270  
C    0.4961870   -0.0000064    3.6418889  
C   -0.9663858    0.0000850    3.4240247  
N   -1.2632773    0.0000084    2.1528658  
C   -1.8985362    0.0000517    4.5177257  
C   -1.3925775   -0.0004564    5.7720543  
O   -2.1456383   -0.0005410    6.8851312  
C    0.0786232   -0.0009323    6.0245000  
O    0.4683759   -0.0012588    7.1921102  
C    1.0143166   -0.0008442    4.8859032  
H    2.1107198   -0.0000632    2.0421868  
H   -2.9622183    0.0003270    4.3293377  
H   -1.5042274   -0.0009692    7.6184419  
H    2.0724152   -0.0013148    5.1109744  
