62

C    4.7092239   -1.5246681   -0.3281847  
C    5.8235316   -0.8758443   -0.8075731  
C    5.3920994   -0.0501982   -1.8877468  
C    3.9926216   -0.2381879   -2.0220864  
N    3.6105675   -1.1410059   -1.0610598  
C    3.2304645    0.4216628   -2.9908495  
C    3.8930944    1.2872835   -3.8392603  
O    3.1971563    1.9577876   -4.8031625  
C    5.2890335    1.4878509   -3.7211775  
O    5.8020153    2.3803340   -4.6396906  
C    6.0415977    0.8370229   -2.7658781  
H    6.8244146   -0.9851276   -0.4264121  
H    2.6718357   -1.4617827   -0.9065734  
H    3.8408410    2.5001609   -5.2772582  
H    6.7493888    2.4585206   -4.4914511  
H    7.1092754    1.0106716   -2.6996324  
C    0.0000000    0.0000000    0.0000000  
C   -1.0433706   -0.1357700   -0.8862346  
C   -0.4876931   -0.0628162   -2.1979131  
C    0.9109687    0.1192728   -2.0478680  
N    1.1731286    0.1549546   -0.7007908  
C    1.7800343    0.2326352   -3.1372083  
C    1.2271251    0.1605681   -4.4010422  
O    2.0302057    0.2649723   -5.4997574  
C   -0.1661091   -0.0204368   -4.5711962  
O   -0.5627934   -0.0717932   -5.8915557  
C   -1.0240966   -0.1320779   -3.4969894  
H   -2.0778797   -0.2696866   -0.6200570  
H    2.0824545    0.2630540   -0.2891816  
H    1.4511251    0.1898467   -6.2693593  
H   -1.5164929   -0.1957352   -5.9180052  
H   -2.0868287   -0.2699569   -3.6584461  
C    5.5485605   -2.9683875    1.5823939  
C    4.5757107   -2.4903027    0.7720990  
C    3.3562941   -3.1413871    1.2255435  
C    3.7884951   -4.0023431    2.3473909  
N    5.0725417   -3.9050603    2.5612835  
C    2.8621297   -4.8242169    3.0764012  
C    1.5629850   -4.7873666    2.7019685  
O    0.5908099   -5.5021693    3.2935535  
C    1.0957058   -3.9284244    1.5741259  
O   -0.1013932   -3.9447247    1.2879298  
C    2.0653238   -3.0944370    0.8418481  
H    3.2056854   -5.4438818    3.8918118  
H   -0.2206526   -5.2656817    2.8090387  
H    1.6868071   -2.4862278    0.0312701  
H    6.6000720   -2.7293319    1.5701812  
C    1.0672568    0.0000697    2.3021913  
C    0.0000000    0.0000000    1.4700000  
C   -1.1601224    0.0000736    2.3478473  
C   -0.5938729    0.0000769    3.7138435  
N    0.7113367    0.0001554    3.6934124  
C   -1.4286986    0.0001879    4.8835240  
C   -2.7683114    0.0006799    4.6970523  
O   -3.6653903    0.0008304    5.6976972  
C   -3.3702025    0.0010610    3.3310774  
O   -4.5974910    0.0013779    3.2362962  
C   -2.4926826    0.0008943    2.1470656  
H   -0.9878360   -0.0000190    5.8697035  
H   -4.5324246    0.0012261    5.2533954  
H   -2.9677772    0.0012974    1.1752040  
H    2.1134392    0.0000545    2.0405121  
