62

C    1.1188645    0.0008227   -0.8003808  
C    0.0000000    0.0000000    0.0000000  
C   -1.1323862    0.0008891   -0.8673529  
C   -0.6382656    0.0019670   -2.1969285  
N    0.7324021    0.0038481   -2.1202242  
C   -1.4770907    0.0027303   -3.3154814  
C   -2.8395473    0.0020921   -3.0876861  
O   -3.7039194    0.0024395   -4.1440351  
C   -3.3517865    0.0013906   -1.7684336  
O   -4.7300498    0.0012335   -1.7073130  
C   -2.5248545    0.0009106   -0.6644821  
H   -1.1067563    0.0036973   -4.3313815  
H   -4.5940026    0.0021793   -3.7685137  
H   -4.9934603    0.0007230   -0.7819922  
H   -2.9462574    0.0005583    0.3339649  
H    2.1619895    0.0009367   -0.5342067  
C    4.4769682   -2.1470614   -2.7027275  
C    4.8409703   -1.7539531   -3.9455258  
C    3.7877276   -0.8472118   -4.3756414  
C    2.8430658   -0.8072129   -3.2387164  
N    3.2418508   -1.5671421   -2.2551171  
C    1.6478439   -0.0100096   -3.2702999  
C    1.4074693    0.7146090   -4.3867595  
O    0.3314540    1.5023744   -4.5530626  
C    2.3418723    0.6955152   -5.5506700  
O    2.0597584    1.3797242   -6.5342805  
C    3.5612161   -0.1302649   -5.4939929  
H    0.4389873    1.8844054   -5.4428046  
H    4.2123698   -0.1166587   -6.3577315  
H    4.9959845   -2.8222013   -2.0410771  
C    6.9614433   -5.6632650   -4.4043662  
C    6.0794510   -4.6731148   -4.0380887  
C    6.5084883   -3.4744983   -4.6813966  
C    7.6669443   -3.7974917   -5.4334491  
N    7.9155394   -5.1338969   -5.2415154  
C    8.3596368   -2.8539226   -6.1980683  
C    7.8738534   -1.5608029   -6.2038384  
O    8.5115924   -0.5998481   -6.9338166  
C    6.7196712   -1.2189668   -5.4596413  
O    6.3618435    0.1090587   -5.5675844  
C    6.0359662   -2.1492457   -4.7048870  
H    5.2318205   -4.7989873   -3.3864197  
H    8.6690032   -5.6498260   -5.6587574  
H    9.2432501   -3.0936967   -6.7733401  
H    8.0158283    0.2184657   -6.8002334  
H    5.5738294    0.2559397   -5.0355474  
H    6.9862658   -6.7048997   -4.1335521  
C    0.8175213    0.6860729    2.3021913  
C    0.0000000    0.0000000    1.4700000  
C   -0.8887526   -0.7456559    2.3478473  
C   -0.4549825   -0.3816753    3.7138435  
N    0.5448156    0.4573574    3.6934124  
C   -1.0945674   -0.9182058    4.8835240  
C   -2.1210866   -1.7789155    4.6970523  
O   -2.8083856   -2.3554314    5.6976972  
C   -2.5824069   -2.1655116    3.3310774  
O   -3.5227682   -2.9541547    3.2362962  
C   -1.9100805   -1.6015804    2.1470656  
H   -0.7567140   -0.6349833    5.8697035  
H   -3.4728268   -2.9124471    5.2533954  
H   -2.2742832   -1.9066565    1.1752040  
H    1.6189533    1.3585343    2.0405121  
