58

C    3.1301152   -0.0010311   -1.7028248  
C    2.5367767   -0.0002766   -0.4864663  
C    1.1089906    0.0001028   -0.7656180  
C    1.0177872   -0.0004148   -2.2415129  
N    2.1993581   -0.0011610   -2.7963816  
C   -0.2459210   -0.0002877   -2.9257117  
C   -1.3675316   -0.0000605   -2.1698524  
O   -2.6129307    0.0000866   -2.6748494  
C   -1.3083586    0.0000911   -0.6783233  
O   -2.3693263    0.0004206   -0.0541693  
C    0.0000000    0.0000000    0.0000000  
H    3.0096017   -0.0001007    0.4807526  
H   -3.1967436    0.0002093   -1.8949037  
C    5.6039779   -0.0014371   -1.1379120  
C    4.5679462   -0.0016852   -2.0086697  
C    5.1852106   -0.0028975   -3.3260469  
C    6.6391268   -0.0031436   -3.0563953  
N    6.8907017   -0.0023714   -1.7754976  
C    7.6095179   -0.0043134   -4.1163127  
C    7.1484104   -0.0055863   -5.3878123  
O    7.9405131   -0.0067605   -6.4734520  
C    5.6870991   -0.0057477   -5.6923302  
O    5.3390451   -0.0068138   -6.8730408  
C    4.7115731   -0.0044882   -4.5876710  
H    8.6658411   -0.0042611   -3.8902799  
H    7.3255410   -0.0075177   -7.2290714  
H    3.6621316   -0.0047652   -4.8501656  
H    5.5656912   -0.0006307   -0.0601797  
C    2.2088393   -2.1426203   -5.8191629  
C    1.6816931   -1.7351239   -6.9971451  
C    0.6077920   -0.8240078   -6.6323119  
C    0.6276223   -0.7974852   -5.1539723  
N    1.5640858   -1.5684496   -4.6716451  
C   -0.2963280   -0.0005339   -4.3948472  
C   -1.1988032    0.7367192   -5.0813824  
O   -2.1196076    1.5258332   -4.5021939  
C   -1.2438065    0.7314048   -6.5733968  
O   -2.0920731    1.4267091   -7.1321601  
C   -0.2854213   -0.0943976   -7.3293548  
H    1.9842874   -2.0178255   -7.9909217  
H   -2.6127091    1.9180867   -5.2452560  
H   -0.3507702   -0.0705874   -8.4088886  
H    3.0283512   -2.8250548   -5.6589855  
C    0.0000000    0.0000000    1.4700000  
C    1.0541688    0.0001722    2.3260392  
C    0.5103138    0.0000454    3.6635956  
C   -0.9576371   -0.0002459    3.5155732  
N   -1.2018458    0.0001392    2.1615969  
C   -1.8348311   -0.0008317    4.5510609  
C   -1.2972847   -0.0009736    5.9014604  
O   -2.0050672   -0.0014265    6.9001319  
C    0.2542623   -0.0004184    6.0817573  
O    0.7184670   -0.0002256    7.2139121  
C    1.0974552   -0.0000873    4.8889129  
H    2.0940752    0.0005483    2.0517982  
H   -2.9081052   -0.0011668    4.4207061  
H    2.1707277    0.0000911    5.0223670  
H   -2.1128194   -0.0014912    1.7406791  
