58

C    2.4862159   -2.1188255   -8.3614859  
C    3.4809645   -2.9628290   -8.7216434  
C    3.4505505   -2.9794787  -10.1760486  
C    2.3461089   -2.0645700  -10.5362368  
N    1.7771322   -1.5569842   -9.4767040  
C    1.9886914   -1.8046632  -11.9036386  
C    2.7024257   -2.4300102  -12.8674113  
O    2.4782188   -2.2801867  -14.1839692  
C    3.8229876   -3.3587548  -12.5358455  
O    4.4293512   -3.8933394  -13.4641577  
C    4.1702785   -3.6090067  -11.1256368  
H    4.1525033   -3.5068412   -8.0796444  
H    1.1769169   -1.1315865  -12.1379460  
H    3.1420726   -2.8483921  -14.6147748  
H    4.9885064   -4.2882800  -10.9273414  
C    2.6001991   -2.1411822   -5.8266036  
C    2.0730547   -1.7332820   -7.0044479  
C    0.9991591   -0.8222837   -6.6393041  
C    1.0189900   -0.7962637   -5.1609555  
N    1.9554492   -1.5673976   -4.6788913  
C    0.0950446    0.0004351   -4.4015596  
C   -0.8074265    0.7379267   -5.0878438  
O   -1.7282260    1.5268491   -4.5083871  
C   -0.8524303    0.7331197   -6.5798604  
O   -1.7006928    1.4286186   -7.1383869  
C    0.1059499   -0.0924314   -7.3360990  
H   -2.2213255    1.9193581   -5.2513151  
H    0.0406008   -0.0682539   -8.4156246  
H    3.4197066   -2.8236757   -5.6666591  
C    3.3321173    0.0004713   -1.3379338  
C    2.6974181    0.0000116   -2.5332314  
C    1.2800438   -0.0002119   -2.2052841  
C    1.2395034    0.0000643   -0.7271299  
N    2.4394062    0.0005460   -0.2131038  
C    0.0000000    0.0000000    0.0000000  
C   -1.1468702    0.0000634   -0.7169543  
O   -2.3742203    0.0000074   -0.1695487  
C   -1.1388770    0.0001607   -2.2096355  
O   -2.2206234    0.0000905   -2.7970411  
C    0.1454522    0.0001815   -2.9324241  
H    3.1367984   -0.0000653   -3.5160950  
H   -2.9844346    0.0001026   -0.9290167  
H    4.3940038    0.0007618   -1.1498640  
C    0.8175213    0.6860729    2.3021913  
C    0.0000000    0.0000000    1.4700000  
C   -0.8887526   -0.7456559    2.3478473  
C   -0.4549825   -0.3816753    3.7138435  
N    0.5448156    0.4573574    3.6934124  
C   -1.0945674   -0.9182058    4.8835240  
C   -2.1210866   -1.7789155    4.6970523  
O   -2.8083856   -2.3554314    5.6976972  
C   -2.5824069   -2.1655116    3.3310774  
O   -3.5227682   -2.9541547    3.2362962  
C   -1.9100805   -1.6015804    2.1470656  
H   -0.7567140   -0.6349833    5.8697035  
H   -3.4728268   -2.9124471    5.2533954  
H   -2.2742832   -1.9066565    1.1752040  
H    1.6189533    1.3585343    2.0405121  
