60

C    3.3041272    0.0001175   -1.5420435  
C    2.5845371   -0.0004783   -0.3695853  
C    1.2040006   -0.0000009   -0.7283590  
C    1.1422372    0.0006035   -2.1454375  
N    2.4348637    0.0026107   -2.6077467  
C   -0.0655185    0.0008795   -2.8497920  
C   -1.2321771    0.0002323   -2.1101398  
O   -2.4392814    0.0001144   -2.7472513  
C   -1.1911211   -0.0000008   -0.6955259  
O   -2.4371530   -0.0002319   -0.1032851  
C    0.0000000    0.0000000    0.0000000  
H    3.0031536   -0.0000662    0.6222579  
H   -0.1193552    0.0014841   -3.9297469  
H   -3.1132988   -0.0000648   -2.0551785  
H   -2.3200282   -0.0004071    0.8516417  
H    4.3686621    0.0004070   -1.7024297  
C    5.6515792   -2.1002976   -4.7819019  
C    4.8081953   -1.6310299   -3.8266184  
C    3.8761256   -0.7467205   -4.4854643  
C    4.2482777   -0.7392326   -5.9131329  
N    5.3319456   -1.5792872   -6.0265390  
C    3.6067587   -0.0234896   -6.8711881  
C    2.4743151    0.7942200   -6.4693699  
O    1.8313252    1.4750508   -7.2576178  
C    2.0627995    0.8015928   -4.9625836  
O    1.1111835    1.4864535   -4.6123650  
C    2.8310660   -0.0116222   -4.0232754  
H    4.8359708   -1.8762190   -2.7798496  
H    6.4798585   -2.7827408   -4.6813314  
H    5.8148552   -1.7840908   -6.8820513  
C    3.9997301   -0.0352238   -8.2876403  
C    5.0134431   -0.7206875   -8.8656573  
C    4.9483859   -0.3684292  -10.2756863  
C    3.8052260    0.5643153  -10.3744640  
N    3.2452386    0.7635230   -9.2122600  
C    3.4062005    1.1490189  -11.6250581  
C    4.1171244    0.8173041  -12.7268248  
O    3.8561501    1.2878837  -13.9582826  
C    5.2761650   -0.1209125  -12.6594843  
O    5.8775990   -0.3780983  -13.7022467  
C    5.6657828   -0.7075554  -11.3648908  
H    5.7183555   -1.3834299   -8.3934846  
H    2.5666846    1.8274520  -11.6680795  
H    4.5282137    0.8740372  -14.5294343  
H    6.5110839   -1.3825763  -11.3583635  
C    2.3971438    2.0127888    3.1728260  
C    1.9431056    1.6308205    1.9564670  
C    0.8496017    0.7127664    2.2356185  
C    0.7794028    0.6545384    3.7115134  
N    1.6840587    1.4146091    4.2663826  
C   -0.1885723   -0.1578550    4.3957118  
C   -1.0476298   -0.8789867    3.6398520  
O   -2.0015663   -1.6796266    4.1448486  
C   -1.0022026   -0.8410666    2.1483229  
O   -1.8147390   -1.5232959    1.5241687  
C    0.0000000    0.0000000    1.4700000  
H    2.3054237    1.9346118    0.9892483  
H   -0.2170646   -0.1815267    5.4753125  
H   -2.4487139   -2.0549881    3.3649027  
H    3.2048689    2.6911772    3.3971983  
