60

C    3.3003542    0.0005282   -1.4738997  
C    2.5232803    0.0003507   -2.6090755  
C    1.1623193   -0.0001311   -2.1820104  
C    1.1711880    0.0000587   -0.7636145  
N    2.4852301   -0.0014918   -0.3662363  
C    0.0000000    0.0000000    0.0000000  
C   -1.2020386    0.0000523   -0.6806476  
O   -2.3759249    0.0003495    0.0157756  
C   -1.2314665   -0.0005103   -2.0955504  
O   -2.5054398   -0.0008029   -2.6250172  
C   -0.0764525   -0.0007263   -2.8495195  
H    2.8919941   -0.0005606   -3.6205312  
H    2.8036266    0.0088181    0.5858649  
H   -3.0835642    0.0000351   -0.6418807  
H   -2.4360060   -0.0011516   -3.5845913  
H    4.3715544    0.0004903   -1.3667153  
C    0.6503140   -0.7058432   -5.1592003  
C   -0.1496429   -0.0015598   -4.3176959  
C   -1.0769635    0.7392947   -5.1399167  
C   -0.7493517    0.4064874   -6.5394519  
N    0.3066292   -0.4735875   -6.4823320  
C   -1.4003429    0.9048547   -7.6209074  
C   -2.4966996    1.8309975   -7.3911351  
O   -3.1448418    2.3343974   -8.2993208  
C   -2.8607684    2.1977463   -5.9171082  
O   -3.7817323    2.9766691   -5.7112798  
C   -2.0864169    1.5959473   -4.8344868  
H   -1.1442248    0.6476984   -8.6393295  
H   -2.3449696    1.8549064   -3.8167369  
H    1.4621418   -1.3748312   -4.9240837  
C    0.9661167   -1.0769120   -7.6493689  
C    2.0032022   -1.9462965   -7.6636548  
C    2.2491060   -2.2136857   -9.0723898  
C    1.2416453   -1.4010474   -9.7873905  
N    0.4867587   -0.7324506   -8.9584668  
C    1.1525746   -1.3889240  -11.2216165  
C    2.0303174   -2.1535561  -11.9102677  
O    2.0613591   -2.2379119  -13.2511487  
C    3.0589057   -2.9843601  -11.2174963  
O    3.8253518   -3.6560721  -11.9078471  
C    3.1300026   -2.9798507   -9.7454736  
H    2.5356408   -2.3555255   -6.8221579  
H    0.4063139   -0.7857893  -11.7178352  
H    2.7895515   -2.8557521  -13.4439230  
H    3.8893731   -3.5951302   -9.2817741  
C    0.0000000    0.0000000    1.4700000  
C    1.0662921    0.0000102    2.3034270  
C    0.4961870   -0.0000064    3.6418889  
C   -0.9663858    0.0000850    3.4240247  
N   -1.2632773    0.0000084    2.1528658  
C   -1.8985362    0.0000517    4.5177257  
C   -1.3925775   -0.0004564    5.7720543  
O   -2.1456383   -0.0005410    6.8851312  
C    0.0786232   -0.0009323    6.0245000  
O    0.4683759   -0.0012588    7.1921102  
C    1.0143166   -0.0008442    4.8859032  
H    2.1107198   -0.0000632    2.0421868  
H   -2.9622183    0.0003270    4.3293377  
H   -1.5042274   -0.0009692    7.6184419  
H    2.0724152   -0.0013148    5.1109744  
