58

C    3.2798082    0.0005862   -1.4499650  
C    2.5571139    0.0005570   -2.5996554  
C    1.1637431    0.0001552   -2.2210361  
C    1.1336960   -0.0000198   -0.7459469  
N    2.4483511   -0.0001427   -0.3402720  
C    0.0000000    0.0000000    0.0000000  
C   -1.2757371   -0.0000185   -0.6964412  
O   -2.3524599   -0.0000640   -0.1142311  
C   -1.2676497   -0.0000868   -2.2584076  
O   -2.3355765   -0.0004097   -2.8557291  
C    0.0181554    0.0001764   -2.9516295  
H    0.0150782    0.0003325   -4.0331629  
H    4.3498545    0.0008616   -1.3200025  
H    2.7563624    0.0012824    0.6148065  
C    4.2042264   -0.7245765   -4.3883883  
C    4.4532742   -0.5080826   -5.7056510  
C    3.4504640    0.4176292   -6.1771001  
C    2.5906250    0.7249267   -5.0182058  
N    3.1006049    0.0006270   -3.9654950  
C    1.5247255    1.5641946   -5.0527251  
C    1.2027489    2.2076140   -6.3156099  
O    0.2625092    2.9799153   -6.4490272  
C    2.0996878    1.8965305   -7.5559858  
O    1.8381619    2.4320976   -8.6246447  
C    3.2214644    0.9748211   -7.3949816  
H    0.9070130    1.7760617   -4.1910679  
H    3.8377462    0.7648819   -8.2586052  
H    4.7339420   -1.3530606   -3.6910372  
C    5.9758912   -2.3914436   -6.4089227  
C    5.5403572   -1.1079407   -6.4926200  
C    6.3468178   -0.4543177   -7.4962308  
C    7.2946661   -1.4695222   -7.9939564  
N    7.0179441   -2.6214178   -7.2943487  
C    8.2283195   -1.2450719   -8.9529237  
C    8.3049159    0.0852189   -9.5334358  
O    9.1116212    0.3869968  -10.4031814  
C    7.3110486    1.1759385   -9.0212201  
O    7.3662835    2.2996683   -9.5023026  
C    6.3488527    0.8140693   -7.9833938  
H    8.9140110   -2.0037255   -9.3038960  
H    5.6640730    1.5749717   -7.6343563  
H    5.6234197   -3.1886125   -5.7747502  
H    7.4976012   -3.4951740   -7.4106478  
C    0.0000000    0.0000000    1.4700000  
C    1.0662921    0.0000102    2.3034270  
C    0.4961870   -0.0000064    3.6418889  
C   -0.9663858    0.0000850    3.4240247  
N   -1.2632773    0.0000084    2.1528658  
C   -1.8985362    0.0000517    4.5177257  
C   -1.3925775   -0.0004564    5.7720543  
O   -2.1456383   -0.0005410    6.8851312  
C    0.0786232   -0.0009323    6.0245000  
O    0.4683759   -0.0012588    7.1921102  
C    1.0143166   -0.0008442    4.8859032  
H    2.1107198   -0.0000632    2.0421868  
H   -2.9622183    0.0003270    4.3293377  
H   -1.5042274   -0.0009692    7.6184419  
H    2.0724152   -0.0013148    5.1109744  
