60

C    1.1243409    0.0099920   -0.7919010  
C    0.7474074    0.0234540   -2.1148551  
C   -0.6787386    0.0234487   -2.1414701  
C   -1.1201748    0.0098591   -0.7935547  
N    0.0000000    0.0000000    0.0000000  
C   -2.4730816    0.0063711   -0.4408240  
C   -3.3971960    0.0170983   -1.4675056  
O   -4.7313520    0.0146263   -1.1793466  
C   -2.9763654    0.0303508   -2.8186318  
O   -4.0166481    0.0395118   -3.7247620  
C   -1.6418567    0.0335258   -3.1673482  
H    1.4178710    0.0310964   -2.9571212  
H   -2.8160167   -0.0041105    0.5845963  
H   -5.1938821    0.0230870   -2.0274377  
H   -3.6464681    0.0482293   -4.6127339  
H    2.1062465    0.0052813   -0.3505407  
C    1.5648140   -2.0538521   -5.3222154  
C    1.3416075   -1.5771838   -6.5740305  
C    0.2115233   -0.6825126   -6.4885403  
C   -0.2083430   -0.6769645   -5.0741599  
N    0.6519551   -1.5285585   -4.4202758  
C   -1.2456335    0.0471722   -4.5828767  
C   -1.9989392    0.8762618   -5.5089850  
O   -2.9501118    1.5651299   -5.1639732  
C   -1.5720047    0.8854945   -7.0114648  
O   -2.1989302    1.5794286   -7.8005659  
C   -0.4365512    0.0629997   -7.4214650  
H    1.9042726   -1.8242681   -7.4566242  
H    2.3192453   -2.7448504   -4.9827386  
H    0.6226025   -1.7349519   -3.4386511  
C    0.9073189   -3.1127109  -10.1792363  
C    0.4785746   -2.4168550   -9.0947845  
C    0.3449799   -1.0388209   -9.5046728  
C    0.7337991   -0.9885302  -10.9270242  
N    1.0639521   -2.2779439  -11.2753071  
C    0.7416511    0.1387615  -11.6825736  
C    0.3405879    1.3857872  -11.0528043  
O    0.3144087    2.4546702  -11.6487111  
C   -0.0748931    1.3559549   -9.5473838  
O   -0.4141582    2.3996995   -9.0063134  
C   -0.0432833    0.0795047   -8.8377868  
H    0.2788820   -2.8225711   -8.1190121  
H    1.0302280    0.1539043  -12.7244015  
H    1.1222421   -4.1650814  -10.2698706  
H    1.3694785   -2.5682449  -12.1860360  
C    0.0000000    0.0000000    1.4700000  
C    1.0662921    0.0000102    2.3034270  
C    0.4961870   -0.0000064    3.6418889  
C   -0.9663858    0.0000850    3.4240247  
N   -1.2632773    0.0000084    2.1528658  
C   -1.8985362    0.0000517    4.5177257  
C   -1.3925775   -0.0004564    5.7720543  
O   -2.1456383   -0.0005410    6.8851312  
C    0.0786232   -0.0009323    6.0245000  
O    0.4683759   -0.0012588    7.1921102  
C    1.0143166   -0.0008442    4.8859032  
H    2.1107198   -0.0000632    2.0421868  
H   -2.9622183    0.0003270    4.3293377  
H   -1.5042274   -0.0009692    7.6184419  
H    2.0724152   -0.0013148    5.1109744  
