58

C    3.2573665   -0.0002918   -1.5109388  
C    2.5379466   -0.0001710   -0.3591966  
C    1.1435040    0.0000335   -0.7338503  
C    1.1092603   -0.0000076   -2.2088478  
N    2.4227558    0.0001914   -2.6182613  
C   -0.0265538   -0.0002516   -2.9515662  
C   -1.3003041   -0.0002634   -2.2514980  
O   -2.3786785   -0.0004126   -2.8306424  
C   -1.2877729    0.0000315   -0.6895604  
O   -2.3539958    0.0003310   -0.0892033  
C    0.0000000    0.0000000    0.0000000  
H    2.9384089   -0.0000368    0.6389231  
H    4.3270390   -0.0004762   -1.6439448  
H    2.7280488   -0.0013401   -3.5742116  
C    2.4624159   -2.0918857   -5.9392958  
C    1.9141434   -1.6298141   -4.7860562  
C    0.8439976   -0.7345865   -5.1577959  
C    0.8135178   -0.7128492   -6.6327158  
N    1.8196243   -1.5559191   -7.0448722  
C   -0.0596554    0.0159622   -7.3730584  
C   -1.0343397    0.8337045   -6.6703323  
O   -1.8629443    1.5257407   -7.2472220  
C   -1.0200979    0.8261120   -5.1084280  
O   -1.8357413    1.5108621   -4.5058467  
C   -0.0307360   -0.0004637   -4.4215603  
H    2.2241300   -1.8866333   -3.7887769  
H   -0.0651900    0.0176607   -8.4542043  
H    2.0500099   -1.7532061   -8.0014533  
C    5.1791257   -4.3622302   -3.2319969  
C    4.1968942   -3.5396301   -3.6680362  
C    4.2704701   -3.6041114   -5.1195628  
C    5.3835990   -4.5376753   -5.3952172  
N    5.9200540   -4.9853833   -4.2926006  
C    5.7809970   -4.8734298   -6.7347813  
C    5.0972015   -4.3028044   -7.7526937  
O    5.3601202   -4.5258114   -9.0516097  
C    3.9688310   -3.3570220   -7.5068535  
O    3.3911581   -2.8750406   -8.4811267  
C    3.5802702   -3.0285210   -6.1237291  
H    3.5075039   -2.9606674   -3.0775964  
H    6.5982529   -5.5585201   -6.9069823  
H    4.7102787   -3.9825186   -9.5329527  
H    5.4520907   -4.5891114   -2.2136704  
C    0.0000000    0.0000000    1.4700000  
C    1.0662921    0.0000102    2.3034270  
C    0.4961870   -0.0000064    3.6418889  
C   -0.9663858    0.0000850    3.4240247  
N   -1.2632773    0.0000084    2.1528658  
C   -1.8985362    0.0000517    4.5177257  
C   -1.3925775   -0.0004564    5.7720543  
O   -2.1456383   -0.0005410    6.8851312  
C    0.0786232   -0.0009323    6.0245000  
O    0.4683759   -0.0012588    7.1921102  
C    1.0143166   -0.0008442    4.8859032  
H    2.1107198   -0.0000632    2.0421868  
H   -2.9622183    0.0003270    4.3293377  
H   -1.5042274   -0.0009692    7.6184419  
H    2.0724152   -0.0013148    5.1109744  
