58

C   -2.4827765    2.1086144   -1.5109393  
C   -1.9344689    1.6428641   -0.3591968  
C   -0.8716707    0.7401291   -0.7338500  
C   -0.8455409    0.7179951   -2.2088474  
N   -1.8468970    1.5680281   -2.6182616  
C    0.0204048   -0.0169962   -2.9515657  
C    0.9913432   -0.8414463   -2.2514966  
O    1.8134438   -1.5393313   -2.8306413  
C    0.9816000   -0.8335600   -0.6895596  
O    1.7941464   -1.5239205   -0.0892022  
C    0.0000000    0.0000000    0.0000000  
H   -2.2398128    1.9019692    0.6389226  
H    0.0228505   -0.0188682   -4.0327224  
H   -3.2980274    2.8011208   -1.6439460  
C   -2.9944360    5.2917968   -4.6950698  
C   -2.6271210    4.3716307   -3.7663887  
C   -2.5171246    3.1044899   -4.4498285  
C   -2.8528451    3.3637221   -5.8629388  
N   -3.1328596    4.7082299   -5.9452810  
C   -2.8638898    2.4183452   -6.8365122  
C   -2.5225473    1.0544606   -6.4679475  
O   -2.5040150    0.1319163   -7.2722293  
C   -2.1639332    0.7570748   -4.9770546  
O   -1.8751889   -0.3874979   -4.6548100  
C   -2.1863339    1.8592015   -4.0185833  
H   -2.4532652    4.5591049   -2.7217637  
H   -3.1129550    2.6295687   -7.8671732  
H   -3.3951886    5.1915314   -6.7847154  
C   -3.1556843    7.4626332   -3.3910030  
C   -3.2418554    6.7309589   -4.5262591  
C   -3.6353890    7.6807038   -5.5556350  
C   -3.7453010    8.9739694   -4.8471381  
N   -3.4651878    8.8523880   -3.5779871  
C   -4.1189814   10.1841129   -5.5261093  
C   -4.3710119   10.1059175   -6.8526469  
O   -4.7293959   11.1554243   -7.6116832  
C   -4.2682864    8.8155190   -7.5959371  
O   -4.5121143    8.8183142   -8.8024859  
C   -3.8831999    7.5880111   -6.8770090  
H   -4.1917396   11.1152496   -4.9833383  
H   -4.8379745   10.7880050   -8.5074319  
H   -3.8199169    6.6735935   -7.4515213  
H   -2.8899492    7.1250094   -2.4018780  
C    0.0000000    0.0000000    1.4700000  
C    1.0662921    0.0000102    2.3034270  
C    0.4961870   -0.0000064    3.6418889  
C   -0.9663858    0.0000850    3.4240247  
N   -1.2632773    0.0000084    2.1528658  
C   -1.8985362    0.0000517    4.5177257  
C   -1.3925775   -0.0004564    5.7720543  
O   -2.1456383   -0.0005410    6.8851312  
C    0.0786232   -0.0009323    6.0245000  
O    0.4683759   -0.0012588    7.1921102  
C    1.0143166   -0.0008442    4.8859032  
H    2.1107198   -0.0000632    2.0421868  
H   -2.9622183    0.0003270    4.3293377  
H   -1.5042274   -0.0009692    7.6184419  
H    2.0724152   -0.0013148    5.1109744  
