62

C    3.3041269    0.0001180   -1.5420440  
C    2.5845369   -0.0004778   -0.3695863  
C    1.2040001   -0.0000004   -0.7283596  
C    1.1422367    0.0006041   -2.1454377  
N    2.4348632    0.0026118   -2.6077472  
C   -0.0655191    0.0008805   -2.8497920  
C   -1.2321774    0.0002330   -2.1101397  
O   -2.4392828    0.0001156   -2.7472515  
C   -1.1911212   -0.0000004   -0.6955259  
O   -2.4371524   -0.0002317   -0.1032858  
C    0.0000000    0.0000000    0.0000000  
H    3.0031536   -0.0000660    0.6222569  
H    2.7054620   -0.0071092   -3.5745270  
H   -3.1132995   -0.0000643   -2.0551781  
H   -2.3200275   -0.0004071    0.8516414  
H    4.3686615    0.0004074   -1.7024307  
C    2.3129701   -2.1206335   -5.9853346  
C    1.8203197   -1.6593250   -4.7866029  
C    0.7463499   -0.7716021   -5.0917862  
C    0.6289197   -0.7306562   -6.5047477  
N    1.5963326   -1.5595237   -7.0163222  
C   -0.3301700    0.0460735   -7.1617302  
C   -1.1865083    0.7948790   -6.3780511  
O   -2.1420048    1.5708512   -6.9678864  
C   -1.0848083    0.7675257   -4.9667656  
O   -2.0089569    1.5677390   -4.3272717  
C   -0.1387095    0.0017026   -4.3179683  
H    2.1903004   -1.9285739   -3.8121224  
H    1.7490254   -1.7403223   -7.9920158  
H   -0.4247493    0.0817375   -8.2382915  
H   -2.6234336    2.0034617   -6.2507119  
H   -1.8718982    1.4918044   -3.3780339  
C    5.0754588   -4.3315334   -3.3439319  
C    4.0956224   -3.5298225   -3.8351093  
C    4.1502183   -3.6317911   -5.2743651  
C    5.2500474   -4.5653409   -5.5836397  
N    5.7701803   -4.9531838   -4.3704082  
C    5.6221706   -4.9266258   -6.8377137  
C    4.8907830   -4.3579004   -7.9576059  
O    5.1497014   -4.6208131   -9.1247131  
C    3.7224371   -3.3668206   -7.6534116  
O    3.0996569   -2.8814050   -8.5881720  
C    3.4146383   -3.0543135   -6.2600520  
H    3.4126772   -2.9347684   -3.2553594  
H    6.4318268   -5.6131493   -7.0427788  
H    5.3486239   -4.5203559   -2.3184483  
H    6.5351665   -5.5912748   -4.2492386  
C    0.0000000    0.0000000    1.4700000  
C    1.0662921    0.0000102    2.3034270  
C    0.4961870   -0.0000064    3.6418889  
C   -0.9663858    0.0000850    3.4240247  
N   -1.2632773    0.0000084    2.1528658  
C   -1.8985362    0.0000517    4.5177257  
C   -1.3925775   -0.0004564    5.7720543  
O   -2.1456383   -0.0005410    6.8851312  
C    0.0786232   -0.0009323    6.0245000  
O    0.4683759   -0.0012588    7.1921102  
C    1.0143166   -0.0008442    4.8859032  
H    2.1107198   -0.0000632    2.0421868  
H   -2.9622183    0.0003270    4.3293377  
H   -1.5042274   -0.0009692    7.6184419  
H    2.0724152   -0.0013148    5.1109744  
