60

C    3.3003542    0.0005282   -1.4738997  
C    2.5232803    0.0003507   -2.6090755  
C    1.1623193   -0.0001311   -2.1820104  
C    1.1711880    0.0000587   -0.7636145  
N    2.4852301   -0.0014918   -0.3662363  
C    0.0000000    0.0000000    0.0000000  
C   -1.2020386    0.0000523   -0.6806476  
O   -2.3759249    0.0003495    0.0157756  
C   -1.2314665   -0.0005103   -2.0955504  
O   -2.5054398   -0.0008029   -2.6250172  
C   -0.0764525   -0.0007263   -2.8495195  
H    2.8919941   -0.0005606   -3.6205312  
H    2.8036266    0.0088181    0.5858649  
H   -3.0835642    0.0000351   -0.6418807  
H   -2.4360060   -0.0011516   -3.5845913  
H    4.3715544    0.0004903   -1.3667153  
C    0.6503140   -0.7058432   -5.1592003  
C   -0.1496429   -0.0015598   -4.3176959  
C   -1.0769635    0.7392947   -5.1399167  
C   -0.7493517    0.4064874   -6.5394519  
N    0.3066292   -0.4735875   -6.4823320  
C   -1.4003429    0.9048547   -7.6209074  
C   -2.4966996    1.8309975   -7.3911351  
O   -3.1448418    2.3343974   -8.2993208  
C   -2.8607684    2.1977463   -5.9171082  
O   -3.7817323    2.9766691   -5.7112798  
C   -2.0864169    1.5959473   -4.8344868  
H   -1.1442248    0.6476984   -8.6393295  
H   -2.3449696    1.8549064   -3.8167369  
H    1.4621418   -1.3748312   -4.9240837  
C    1.3956890   -2.3610718   -7.7517239  
C    0.9661167   -1.0769120   -7.6493689  
C    1.2813911   -0.4266304   -8.8993977  
C    1.9345093   -1.4445123   -9.7444684  
N    1.9735481   -2.5946092   -8.9903843  
C    2.3836061   -1.2235586  -11.0058947  
C    2.2124745    0.1055254  -11.5687314  
O    2.5834474    0.4042063  -12.6963268  
C    1.5236391    1.1990338  -10.6914918  
O    1.3743476    2.3217782  -11.1545436  
C    1.0813440    0.8408586   -9.3461523  
H    2.8598509   -1.9841316  -11.6089113  
H    0.6051231    1.6036756   -8.7452799  
H    1.3389288   -3.1564213   -7.0264053  
H    2.3602376   -3.4694715   -9.2939215  
C    2.3971438    2.0127888    3.1728260  
C    1.9431056    1.6308205    1.9564670  
C    0.8496017    0.7127664    2.2356185  
C    0.7794028    0.6545384    3.7115134  
N    1.6840587    1.4146091    4.2663826  
C   -0.1885723   -0.1578550    4.3957118  
C   -1.0476298   -0.8789867    3.6398520  
O   -2.0015663   -1.6796266    4.1448486  
C   -1.0022026   -0.8410666    2.1483229  
O   -1.8147390   -1.5232959    1.5241687  
C    0.0000000    0.0000000    1.4700000  
H    2.3054237    1.9346118    0.9892483  
H   -0.2170646   -0.1815267    5.4753125  
H   -2.4487139   -2.0549881    3.3649027  
H    3.2048689    2.6911772    3.3971983  
