60

C   -3.3460099   -0.0004264   -2.7913642  
C   -3.9807095   -0.0008722   -1.5960664  
C   -5.3980834   -0.0010998   -1.9240135  
C   -5.4386243   -0.0006189   -3.4021680  
N   -4.2387215   -0.0003037   -3.9161939  
C   -6.6781275   -0.0007181   -4.1292972  
C   -7.8249965   -0.0016615   -3.4123430  
O   -9.0523468   -0.0018579   -3.9597487  
C   -7.8170046   -0.0025378   -1.9196621  
O   -8.8987506   -0.0032509   -1.3322562  
C   -6.5326743   -0.0023731   -1.1968737  
H   -3.5413288   -0.0011175   -0.6132030  
H   -6.6781281   -0.0001519   -5.2095331  
H   -9.6625609   -0.0026195   -3.2002804  
H   -6.5697687   -0.0031427   -0.1157385  
C    0.0000000    0.0000000    0.0000000  
C    1.0662919   -0.0000103   -0.8334270  
C    0.4961866    0.0000065   -2.1718889  
C   -0.9663862   -0.0000850   -1.9540246  
N   -1.2632775   -0.0000084   -0.6828656  
C   -1.8985367   -0.0000517   -3.0477255  
C   -1.3925784    0.0004565   -4.3020543  
O   -2.1456390    0.0005410   -5.4151309  
C    0.0786224    0.0009324   -4.5544999  
O    0.4683751    0.0012590   -5.7221101  
C    1.0143159    0.0008443   -3.4159032  
H    2.1107193    0.0000633   -0.5721870  
H   -1.5042281    0.0009693   -6.1484413  
C    4.2926939   -2.1403417   -1.5040822  
C    5.3604699   -1.7320209   -2.2284490  
C    4.8134468   -0.8208704   -3.2219630  
C    3.3612063   -0.7952320   -2.9446120  
N    3.0500060   -1.5667026   -1.9386411  
C    2.4521472    0.0014839   -3.7217486  
C    2.9703719    0.7393567   -4.7298761  
O    2.2390447    1.5283417   -5.5352979  
C    4.4316764    0.7349404   -5.0343926  
O    4.8335639    1.4307757   -5.9668730  
C    5.3436381   -0.0906365   -4.2228059  
H    6.3919426   -2.0142023   -2.1038965  
H    2.8845107    1.9211526   -6.1502985  
H    6.3952190   -0.0661688   -4.4754112  
H    4.2782624   -2.8230633   -0.6694228  
C    3.3003543   -0.0005276    2.9438989  
C    2.5232812   -0.0003497    4.0790748  
C    1.1623199    0.0001319    3.6520102  
C    1.1711883   -0.0000583    2.2336141  
N    2.4852299    0.0014920    1.8362361  
C    0.0000000    0.0000000    1.4700000  
C   -1.2020384   -0.0000520    2.1506477  
O   -2.3759250   -0.0003494    1.4542253  
C   -1.2314658    0.0005113    3.5655508  
O   -2.5054393    0.0008037    4.0950179  
C   -0.0764518    0.0007272    4.3195194  
H    2.8919952    0.0005619    5.0905303  
H    2.8036267   -0.0088181    0.8841339  
H   -3.0835639   -0.0000348    2.1118817  
H   -2.4360050    0.0011527    5.0545920  
H   -0.1304098    0.0013421    5.4019087  
H    4.3715549   -0.0004895    2.8367138  
