58

C   -3.3320426    0.0222003   -1.3379349  
C   -2.6973541    0.0183414   -2.5332321  
C   -1.2800117    0.0089209   -2.2052845  
C   -1.2394747    0.0083692   -0.7271299  
N   -2.4393529    0.0160519   -0.2131048  
C    0.0000000    0.0000000    0.0000000  
C    1.1468433   -0.0078670   -0.7169532  
O    2.3741651   -0.0161618   -0.1695474  
C    1.1388510   -0.0079100   -2.2096345  
O    2.2205732   -0.0152002   -2.7970398  
C   -0.1454485    0.0008076   -2.9324237  
H   -3.1367234    0.0214076   -3.5160961  
H    2.9843646   -0.0204091   -0.9290152  
H   -0.1083557    0.0003685   -4.0135593  
C   -5.7850231    0.0387411   -1.9873469  
C   -4.7794850    0.0316532   -1.0815745  
C   -5.4415513    0.0352614    0.2138616  
C   -6.8853331    0.0450005   -0.1054879  
N   -7.0928278    0.0469996   -1.3942590  
C   -7.8914820    0.0509983    0.9205309  
C   -7.4742636    0.0470401    2.2070950  
O   -8.3031149    0.0518061    3.2649343  
C   -6.0242896    0.0368563    2.5615435  
O   -5.7169415    0.0338529    3.7534949  
C   -5.0114747    0.0308943    1.4909854  
H   -7.7144339    0.0470860    4.0411977  
H   -3.9716784    0.0234375    1.7893119  
H   -5.7098001    0.0388441   -3.0631322  
C   -9.3175142    0.0609251    0.5638314  
C   -9.8672740    0.0656627   -0.6728254  
C  -11.3040396    0.0751885   -0.4445404  
C  -11.4475898    0.0748332    1.0271855  
N  -10.2864933    0.0665709    1.6236539  
C  -12.7347659    0.0830217    1.6660872  
C  -13.8288026    0.0915825    0.8708843  
O  -15.0913189    0.0998053    1.3313468  
C  -13.7167030    0.0925486   -0.6176028  
O  -14.7548129    0.1004382   -1.2790303  
C  -12.3851143    0.0839993   -1.2490474  
H   -9.3604140    0.0631098   -1.6226477  
H  -12.8101209    0.0823524    2.7436913  
H  -15.6470531    0.1046560    0.5311664  
H  -12.3466997    0.0851162   -2.3301361  
C    0.0000000    0.0000000    1.4700000  
C    1.0662921    0.0000102    2.3034270  
C    0.4961870   -0.0000064    3.6418889  
C   -0.9663858    0.0000850    3.4240247  
N   -1.2632773    0.0000084    2.1528658  
C   -1.8985362    0.0000517    4.5177257  
C   -1.3925775   -0.0004564    5.7720543  
O   -2.1456383   -0.0005410    6.8851312  
C    0.0786232   -0.0009323    6.0245000  
O    0.4683759   -0.0012588    7.1921102  
C    1.0143166   -0.0008442    4.8859032  
H    2.1107198   -0.0000632    2.0421868  
H   -2.9622183    0.0003270    4.3293377  
H   -1.5042274   -0.0009692    7.6184419  
H    2.0724152   -0.0013148    5.1109744  
