60

C    0.0000000    0.0000000    0.0000000  
C    1.0662919   -0.0000101   -0.8334274  
C    0.4961866    0.0000066   -2.1718887  
C   -0.9663861   -0.0000848   -1.9540244  
N   -1.2632774   -0.0000083   -0.6828655  
C   -1.8985365   -0.0000514   -3.0477254  
C   -1.3925782    0.0004568   -4.3020539  
O   -2.1456391    0.0005413   -5.4151308  
C    0.0786225    0.0009327   -4.5544999  
O    0.4683751    0.0012594   -5.7221099  
C    1.0143161    0.0008446   -3.4159033  
H    2.1107197    0.0000634   -0.5721869  
H   -1.5042286    0.0009697   -6.1484420  
C    4.6180729   -2.0061846   -1.7279419  
C    3.3335591   -1.6255747   -1.9196175  
C    3.3783508   -0.7093970   -3.0488257  
C    4.8072956   -0.6506551   -3.4246589  
N    5.5388544   -1.4088314   -2.6539582  
C    5.2744730    0.1602677   -4.5151799  
C    4.3558404    0.8795011   -5.1993965  
O    4.6506679    1.6786180   -6.2388815  
C    2.9064336    0.8410150   -4.8445744  
O    2.1263347    1.5214885   -5.5106242  
C    2.4521478    0.0014842   -3.7217489  
H    2.4631338   -1.9291251   -1.3634758  
H    6.3245009    0.1843571   -4.7677083  
H    3.7944552    2.0528232   -6.5146054  
H    5.0061343   -2.6829996   -0.9834262  
C   -4.2186865    2.1401321   -0.0437253  
C   -5.4804245    1.7323143   -0.3144287  
C   -5.3466894    0.8217464   -1.4411410  
C   -3.8965664    0.7958598   -1.7293366  
N   -3.2302255    1.5666945   -0.9133749  
C   -3.3460099   -0.0004261   -2.7913641  
C   -4.2050303   -0.7376506   -3.5315791  
O   -3.8298209   -1.5261787   -4.5530889  
C   -5.6737593   -0.7329690   -3.2651702  
O   -6.3965400   -1.4282088   -3.9789281  
C   -6.2140637    0.0921568   -2.1701072  
H   -6.3895956    2.0144738    0.1884326  
H   -4.6590780   -1.9185766   -4.8809744  
H   -7.2835614    0.0679007   -2.0094311  
H   -3.8917473    2.8223390    0.7248303  
C    3.3041272   -0.0001177    3.0120429  
C    2.5845372    0.0004780    1.8395852  
C    1.2040006    0.0000008    2.1983588  
C    1.1422373   -0.0006037    3.6154372  
N    2.4348639   -0.0026109    4.0777464  
C   -0.0655181   -0.0008797    4.3197917  
C   -1.2321768   -0.0002324    3.5801400  
O   -2.4392816   -0.0001146    4.2172520  
C   -1.1911209    0.0000007    2.1655264  
O   -2.4371527    0.0002320    1.5732860  
C    0.0000000    0.0000000    1.4700000  
H    3.0031534    0.0000661    0.8477417  
H    2.7054629    0.0071099    5.0445261  
H   -0.1193549   -0.0014844    5.3997470  
H   -3.1132988    0.0000648    3.5251786  
H   -2.3200282    0.0004071    0.6183591  
H    4.3686625   -0.0004071    3.1724291  
