58

C    3.2573675   -0.0002918   -1.5109378  
C    2.5379470   -0.0001710   -0.3591959  
C    1.1435044    0.0000332   -0.7338498  
C    1.1092611   -0.0000081   -2.2088473  
N    2.4227565    0.0001908   -2.6182606  
C   -0.0265530   -0.0002522   -2.9515656  
C   -1.3003034   -0.0002640   -2.2514978  
O   -2.3786783   -0.0004131   -2.8306423  
C   -1.2877725    0.0000312   -0.6895603  
O   -2.3539955    0.0003305   -0.0892033  
C    0.0000000    0.0000000    0.0000000  
H    2.9384087   -0.0000368    0.6389241  
H    4.3270399   -0.0004764   -1.6439436  
H    2.7280496   -0.0013406   -3.5742107  
C    2.3639623   -2.0106296   -6.1309148  
C    1.9129296   -1.6290290   -4.9133234  
C    0.8175378   -0.7123244   -5.1894918  
C    0.7430710   -0.6543937   -6.6651889  
N    1.6470539   -1.4134614   -7.2225230  
C   -0.2278184    0.1567421   -7.3467457  
C   -1.0855847    0.8769544   -6.5885464  
O   -2.0419117    1.6763793   -7.0909404  
C   -1.0358692    0.8393042   -5.0971472  
O   -1.8474427    1.5206510   -4.4707802  
C   -0.0307349   -0.0004645   -4.4215600  
H    2.2783611   -1.9322471   -3.9470961  
H   -2.4872876    2.0513183   -6.3097782  
H    3.1718573   -2.6880832   -6.3574887  
C   -0.2708088    0.1886962   -8.8157697  
C    0.5217678   -0.4773410   -9.6874320  
C    0.0458397   -0.0824473  -11.0042659  
C   -1.0684213    0.8511512  -10.7333411  
N   -1.2586651    1.0140674   -9.4522270  
C   -1.8145675    1.4730300  -11.7924057  
C   -1.4632759    1.1760562  -13.0643091  
O   -2.0727434    1.6834893  -14.1492525  
C   -0.3431690    0.2379684  -13.3701067  
O   -0.0784911    0.0135295  -14.5511205  
C    0.4069695   -0.3872015  -12.2663046  
H    1.3296602   -1.1530810   -9.4643597  
H   -2.6241920    2.1511951  -11.5654489  
H   -1.6024870    1.2882210  -14.9054102  
H    1.2113686   -1.0608370  -12.5297184  
C    0.8175213    0.6860729    2.3021913  
C    0.0000000    0.0000000    1.4700000  
C   -0.8887526   -0.7456559    2.3478473  
C   -0.4549825   -0.3816753    3.7138435  
N    0.5448156    0.4573574    3.6934124  
C   -1.0945674   -0.9182058    4.8835240  
C   -2.1210866   -1.7789155    4.6970523  
O   -2.8083856   -2.3554314    5.6976972  
C   -2.5824069   -2.1655116    3.3310774  
O   -3.5227682   -2.9541547    3.2362962  
C   -1.9100805   -1.6015804    2.1470656  
H   -0.7567140   -0.6349833    5.8697035  
H   -3.4728268   -2.9124471    5.2533954  
H   -2.2742832   -1.9066565    1.1752040  
H    1.6189533    1.3585343    2.0405121  
