58

C    4.2926943   -2.1403416   -1.5040812  
C    5.3604705   -1.7320208   -2.2284476  
C    4.8134481   -0.8208705   -3.2219618  
C    3.3612073   -0.7952320   -2.9446112  
N    3.0500070   -1.5667026   -1.9386405  
C    2.4521483    0.0014840   -3.7217481  
C    2.9703733    0.7393566   -4.7298752  
O    2.2390464    1.5283417   -5.5352971  
C    4.4316781    0.7349405   -5.0343914  
O    4.8335659    1.4307759   -5.9668719  
C    5.3436397   -0.0906362   -4.2228043  
H    6.3919432   -2.0142022   -2.1038945  
H    2.8845128    1.9211528   -6.1502975  
H    6.3952202   -0.0661689   -4.4754092  
C    4.2730226   -3.0709696   -0.3663449  
C    5.3184958   -3.7178858    0.1993975  
C    4.7356455   -4.5014687    1.2777222  
C    3.2892603   -4.1998390    1.2179465  
N    3.0120610   -3.3619360    0.2561427  
C    2.3509204   -4.7879757    2.1337526  
C    2.8354386   -5.6390629    3.0666129  
O    2.0742985   -6.2595417    3.9840616  
C    4.2898594   -5.9638445    3.1522688  
O    4.6604099   -6.7468917    4.0267695  
C    5.2323187   -5.3476401    2.2014862  
H    6.3569414   -3.6694073   -0.0805269  
H    1.2994395   -4.5494945    2.0672370  
H    2.7000240   -6.7958763    4.5036450  
H    6.2777494   -5.6088696    2.2966864  
C    0.0000000    0.0000000    0.0000000  
C    1.0662923   -0.0000101   -0.8334270  
C    0.4961873    0.0000065   -2.1718887  
C   -0.9663854   -0.0000848   -1.9540250  
N   -1.2632773   -0.0000083   -0.6828660  
C   -1.8985359   -0.0000514   -3.0477261  
C   -1.3925770    0.0004566   -4.3020547  
O   -2.1456378    0.0005414   -5.4151314  
C    0.0786240    0.0009326   -4.5545000  
O    0.4683767    0.0012591   -5.7221100  
C    1.0143171    0.0008444   -3.4159031  
H    2.1107200    0.0000633   -0.5721865  
H   -2.9622181   -0.0003268   -2.8593381  
H   -1.5042265    0.0009697   -6.1484419  
C    3.3321173   -0.0004715    2.8079335  
C    2.6974184   -0.0000116    4.0032312  
C    1.2800439    0.0002118    3.6752840  
C    1.2395035   -0.0000644    2.1971295  
N    2.4394063   -0.0005460    1.6831036  
C    0.0000000    0.0000000    1.4700000  
C   -1.1468701   -0.0000635    2.1869543  
O   -2.3742202   -0.0000073    1.6395491  
C   -1.1388768   -0.0001607    3.6796354  
O   -2.2206231   -0.0000905    4.2670412  
C    0.1454524   -0.0001816    4.4024240  
H    3.1367986    0.0000651    4.9860947  
H   -2.9844344   -0.0001026    2.3990168  
H    0.1083576   -0.0003682    5.4835595  
H    4.3940039   -0.0007619    2.6198634  
