58

C   -0.3197117    3.2416399   -1.5109369  
C   -0.2491568    2.5256872   -0.3591949  
C   -0.1123706    1.1379700   -0.7338497  
C   -0.1089652    1.1038965   -2.2088471  
N   -0.2382007    2.4110191   -2.6182602  
C    0.0028598   -0.0263991   -2.9515658  
C    0.1280038   -1.2939875   -2.2514982  
O    0.2340916   -2.3671312   -2.8306431  
C    0.1264791   -1.2815460   -0.6895611  
O    0.2309266   -2.3426409   -0.0892039  
C    0.0000000    0.0000000    0.0000000  
H   -0.2886315    2.9241989    0.6389249  
H    0.0033170   -0.0294444   -4.0327228  
H   -0.4246126    4.3061561   -1.6439430  
C    1.4474893    5.8433750   -4.9077631  
C    1.1449373    5.0067813   -3.8878842  
C    0.3271180    3.9640161   -4.4881439  
C    0.2339613    4.3387673   -5.9155425  
N    0.8888131    5.4395264   -6.1675100  
C   -0.5021048    3.5481290   -6.8632685  
C   -1.1168287    2.4335629   -6.4058944  
O   -1.8374458    1.6031135   -7.1786208  
C   -1.0410890    2.0285866   -4.9711753  
O   -1.6252477    1.0018588   -4.6250407  
C   -0.2799016    2.8562843   -4.0185813  
H    1.4403333    5.0872931   -2.8557336  
H   -0.5535857    3.8457932   -7.9004071  
H   -2.1464570    0.9058952   -6.5723601  
C    2.2546350    7.0711224   -4.8624715  
C    2.8673344    7.6266786   -3.7912404  
C    3.5193301    8.8197042   -4.3090157  
C    3.1870743    8.8304361   -5.7498752  
N    2.4458675    7.8079277   -6.0801428  
C    3.6520100    9.8667574   -6.6301932  
C    4.4139001   10.8479704   -6.0953294  
O    4.9154780   11.8769009   -6.7994339  
C    4.7660815   10.8651883   -4.6448698  
O    5.4636055   11.7891908   -4.2266592  
C    4.2770556    9.7908751   -3.7624716  
H    2.8757264    7.2708914   -2.7751588  
H    3.3941027    9.8494435   -7.6790467  
H    5.4110531   12.4050654   -6.1478203  
H    4.5541321    9.8396669   -2.7179250  
C    0.8175213    0.6860729    2.3021913  
C    0.0000000    0.0000000    1.4700000  
C   -0.8887526   -0.7456559    2.3478473  
C   -0.4549825   -0.3816753    3.7138435  
N    0.5448156    0.4573574    3.6934124  
C   -1.0945674   -0.9182058    4.8835240  
C   -2.1210866   -1.7789155    4.6970523  
O   -2.8083856   -2.3554314    5.6976972  
C   -2.5824069   -2.1655116    3.3310774  
O   -3.5227682   -2.9541547    3.2362962  
C   -1.9100805   -1.6015804    2.1470656  
H   -0.7567140   -0.6349833    5.8697035  
H   -3.4728268   -2.9124471    5.2533954  
H   -2.2742832   -1.9066565    1.1752040  
H    1.6189533    1.3585343    2.0405121  
