58

C    5.9718891   -2.1066114   -4.3836097  
C    5.8824617   -1.6421429   -5.6565381  
C    4.7503165   -0.7470247   -5.6994994  
C    4.1834492   -0.7279189   -4.3374836  
N    4.9692736   -1.5728897   -3.5882214  
C    3.1006054    0.0006263   -3.9654951  
C    2.4499047    0.8204919   -4.9739314  
O    1.4681175    1.5123811   -4.7379561  
C    3.0331143    0.8153162   -6.4229469  
O    2.4935221    1.5013959   -7.2804989  
C    4.2049177   -0.0107666   -6.7027951  
H    4.6026870   -0.0086185   -7.7085282  
H    6.6857548   -2.7940674   -3.9597112  
H    4.8362804   -1.7697855   -2.6132382  
C    7.2821970   -3.2227159   -7.0358623  
C    6.7743884   -1.9912971   -6.7716434  
C    7.2777077   -1.1008271   -7.7907454  
C    8.1264340   -1.9202892   -8.6767108  
N    8.0876319   -3.1965331   -8.1642796  
C    8.7857491   -1.4462006   -9.7640225  
C    8.6506004   -0.0346004  -10.0828564  
O    9.2047344    0.4878580  -11.0411239  
C    7.7569723    0.8520271   -9.1581261  
O    7.6359016    2.0419397   -9.4164107  
C    7.0962370    0.2269034   -8.0151045  
H    9.4031865   -2.0643433  -10.4008762  
H    6.4790969    0.8476710   -7.3798802  
H    7.1359667   -4.1470951   -6.5010447  
H    8.5685389   -3.9875578   -8.5516508  
C    3.2798083    0.0005857   -1.4499652  
C    2.5571142    0.0005565   -2.5996556  
C    1.1637432    0.0001548   -2.2210361  
C    1.1336964   -0.0000200   -0.7459473  
N    2.4483512   -0.0001428   -0.3402723  
C    0.0000000    0.0000000    0.0000000  
C   -1.2757368   -0.0000186   -0.6964415  
O   -2.3524598   -0.0000639   -0.1142311  
C   -1.2676497   -0.0000872   -2.2584083  
O   -2.3355766   -0.0004101   -2.8557295  
C    0.0181558    0.0001758   -2.9516296  
H    0.0150788    0.0003319   -4.0331631  
H    4.3498547    0.0008612   -1.3200026  
H    2.7563626    0.0012823    0.6148059  
C    0.0000000    0.0000000    1.4700000  
C    1.0662921    0.0000102    2.3034270  
C    0.4961870   -0.0000064    3.6418889  
C   -0.9663858    0.0000850    3.4240247  
N   -1.2632773    0.0000084    2.1528658  
C   -1.8985362    0.0000517    4.5177257  
C   -1.3925775   -0.0004564    5.7720543  
O   -2.1456383   -0.0005410    6.8851312  
C    0.0786232   -0.0009323    6.0245000  
O    0.4683759   -0.0012588    7.1921102  
C    1.0143166   -0.0008442    4.8859032  
H    2.1107198   -0.0000632    2.0421868  
H   -2.9622183    0.0003270    4.3293377  
H   -1.5042274   -0.0009692    7.6184419  
H    2.0724152   -0.0013148    5.1109744  
