58

C    5.9779324   -2.0928592   -4.4468273  
C    5.0400355   -1.6304888   -3.5804344  
C    4.1859906   -0.7341820   -4.3234533  
C    4.7069273   -0.7121372   -5.7036450  
N    5.7934744   -1.5560774   -5.7119679  
C    4.1728103    0.0176372   -6.7155010  
C    3.0072076    0.8361657   -6.4258172  
O    2.4535609    1.5290916   -7.2693982  
C    2.4388223    0.8282644   -4.9709354  
O    1.4580063    1.5136693   -4.7150426  
C    3.1006054    0.0006263   -3.9654951  
H    4.9561720   -1.8877883   -2.5395806  
H    4.5702548    0.0195454   -7.7209579  
H    6.3633299   -1.7534011   -6.5140748  
C    7.3119641   -4.2508696   -0.8329952  
C    6.6463652   -3.4595062   -1.7132208  
C    7.3166412   -3.5885787   -2.9855827  
C    8.4353017   -4.5267574   -2.7729538  
N    8.3774054   -4.8911302   -1.4475215  
C    9.3100403   -4.9113025   -3.7366250  
C    9.1384159   -4.3645177   -5.0723294  
O    9.8742092   -4.6491737   -6.0082133  
C    7.9605797   -3.3689806   -5.3201469  
O    7.8063120   -2.9018916   -6.4405440  
C    7.0833207   -3.0305131   -4.2022428  
H    5.7843436   -2.8542602   -1.4959418  
H   10.1237961   -5.6008070   -3.5597186  
H    7.1139083   -4.4200375    0.2129712  
H    9.0102905   -5.5260935   -0.9966056  
C    3.2798083    0.0005857   -1.4499652  
C    2.5571142    0.0005565   -2.5996556  
C    1.1637432    0.0001548   -2.2210361  
C    1.1336964   -0.0000200   -0.7459473  
N    2.4483512   -0.0001428   -0.3402723  
C    0.0000000    0.0000000    0.0000000  
C   -1.2757368   -0.0000186   -0.6964415  
O   -2.3524598   -0.0000639   -0.1142311  
C   -1.2676497   -0.0000872   -2.2584083  
O   -2.3355766   -0.0004101   -2.8557295  
C    0.0181558    0.0001758   -2.9516296  
H    0.0150788    0.0003319   -4.0331631  
H    4.3498547    0.0008612   -1.3200026  
H    2.7563626    0.0012823    0.6148059  
C    2.3971438    2.0127888    3.1728260  
C    1.9431056    1.6308205    1.9564670  
C    0.8496017    0.7127664    2.2356185  
C    0.7794028    0.6545384    3.7115134  
N    1.6840587    1.4146091    4.2663826  
C   -0.1885723   -0.1578550    4.3957118  
C   -1.0476298   -0.8789867    3.6398520  
O   -2.0015663   -1.6796266    4.1448486  
C   -1.0022026   -0.8410666    2.1483229  
O   -1.8147390   -1.5232959    1.5241687  
C    0.0000000    0.0000000    1.4700000  
H    2.3054237    1.9346118    0.9892483  
H   -0.2170646   -0.1815267    5.4753125  
H   -2.4487139   -2.0549881    3.3649027  
H    3.2048689    2.6911772    3.3971983  
