64

C    6.7748110   -0.0038150    1.2764661  
C    5.5082321   -0.0036674    0.7395816  
C    5.6573268   -0.0010630   -0.6789965  
C    7.0493888    0.0000132   -0.9511885  
N    7.6991163    0.0002434    0.2581378  
C    7.5659481    0.0022552   -2.2503999  
C    6.6607394    0.0031251   -3.2938434  
O    7.1109048    0.0049543   -4.5823937  
C    5.2680300    0.0024512   -3.0424940  
O    4.4967628    0.0038936   -4.1863856  
C    4.7577216    0.0005129   -1.7610467  
H    4.5898243   -0.0041379    1.3012931  
H    8.6954215   -0.0096156    0.3816693  
H    8.6258305    0.0032294   -2.4645286  
H    6.3261381    0.0055801   -5.1457827  
H    3.5699423    0.0032895   -3.9283025  
C    7.2079301   -0.0054991    2.6812097  
C    6.4635919   -0.0097626    3.8381070  
C    7.3856285   -0.0101746    4.9264304  
C    8.6892679   -0.0057335    4.3674752  
N    8.5451981   -0.0049287    3.0022426  
C    9.8477483   -0.0045471    5.1502326  
C    9.6872901   -0.0075982    6.5222457  
O   10.7848995   -0.0062593    7.3335817  
C    8.3948540   -0.0124200    7.0987901  
O    8.4016458   -0.0154271    8.4783871  
C    7.2515429   -0.0138662    6.3271912  
H    5.3883372   -0.0133726    3.8910881  
H    9.2989174    0.0085121    2.3391375  
H   10.8441873   -0.0013125    4.7303495  
H   10.4536438   -0.0091694    8.2410644  
H    7.4904155   -0.0185850    8.7870177  
H    6.2750514   -0.0177668    6.7972214  
C    3.3041270    0.0001177   -1.5420435  
C    2.5845370   -0.0004780   -0.3695856  
C    1.2040004   -0.0000007   -0.7283590  
C    1.1422370    0.0006038   -2.1454373  
N    2.4348634    0.0026110   -2.6077469  
C   -0.0655187    0.0008799   -2.8497918  
C   -1.2321769    0.0002326   -2.1101398  
O   -2.4392822    0.0001149   -2.7472517  
C   -1.1911211   -0.0000007   -0.6955263  
O   -2.4371526   -0.0002319   -0.1032858  
C    0.0000000    0.0000000    0.0000000  
H    3.0031534   -0.0000661    0.6222578  
H    2.7054623   -0.0071098   -3.5745266  
H   -0.1193555    0.0014846   -3.9297472  
H   -3.1132992   -0.0000646   -2.0551783  
H   -2.3200279   -0.0004070    0.8516411  
C    0.0000000    0.0000000    1.4700000  
C    1.0662921    0.0000102    2.3034270  
C    0.4961870   -0.0000064    3.6418889  
C   -0.9663858    0.0000850    3.4240247  
N   -1.2632773    0.0000084    2.1528658  
C   -1.8985362    0.0000517    4.5177257  
C   -1.3925775   -0.0004564    5.7720543  
O   -2.1456383   -0.0005410    6.8851312  
C    0.0786232   -0.0009323    6.0245000  
O    0.4683759   -0.0012588    7.1921102  
C    1.0143166   -0.0008442    4.8859032  
H    2.1107198   -0.0000632    2.0421868  
H   -2.9622183    0.0003270    4.3293377  
H   -1.5042274   -0.0009692    7.6184419  
H    2.0724152   -0.0013148    5.1109744  
