60

C    1.1188649    0.0008221   -0.8003804  
C    0.0000000    0.0000000    0.0000000  
C   -1.1323857    0.0008896   -0.8673533  
C   -0.6382653    0.0019679   -2.1969282  
N    0.7324024    0.0038481   -2.1202234  
C   -1.4770903    0.0027316   -3.3154811  
C   -2.8395464    0.0020941   -3.0876863  
O   -3.7039188    0.0024421   -4.1440360  
C   -3.3517863    0.0013927   -1.7684336  
O   -4.7300487    0.0012365   -1.7073135  
C   -2.5248538    0.0009121   -0.6644827  
H    1.3576323   -0.0056167   -2.9057037  
H   -4.5940020    0.0021826   -3.7685144  
H   -4.9934599    0.0007260   -0.7819922  
H   -2.9462576    0.0005599    0.3339650  
H    2.1619893    0.0009354   -0.5342059  
C    1.8906719   -2.0861103   -5.2626200  
C    0.9779278   -1.6251677   -4.3690289  
C    0.1016446   -0.7294209   -5.0863858  
C    0.5821206   -0.7061488   -6.4811591  
N    1.6688588   -1.5489159   -6.5215724  
C    0.0179729    0.0235399   -7.4766474  
C   -1.1395617    0.8406737   -7.1527018  
O   -1.7182887    1.5334119   -7.9794364  
C   -1.6653046    0.8314581   -5.6818808  
O   -2.6389745    1.5156840   -5.3971660  
C   -0.9736282    0.0040461   -4.6965765  
H    0.9247018   -1.8830608   -3.3263057  
H    0.3859497    0.0263615   -8.4932573  
H    2.7068325   -2.7728804   -5.1073197  
C    2.9721512   -3.0810729   -8.0682749  
C    3.6710342   -3.0161652   -9.2307828  
C    3.6244478   -1.6427261   -9.6738741  
C    2.8355036   -0.9075237   -8.6669813  
N    2.4693254   -1.8364986   -7.7205088  
C    2.5627241    0.4206553   -8.7238741  
C    3.0805500    1.1764622   -9.8522127  
O    2.8892267    2.3771532   -9.9937666  
C    3.9184238    0.4181993  -10.9305492  
O    4.3593363    1.0439390  -11.8851736  
C    4.1459757   -1.0146229  -10.7599831  
H    4.1628931   -3.8367993   -9.7219538  
H    1.9820943    0.9407136   -7.9746626  
H    4.7272825   -1.5321990  -11.5109300  
H    2.7819517   -3.9334423   -7.4364673  
C    0.8175213    0.6860729    2.3021913  
C    0.0000000    0.0000000    1.4700000  
C   -0.8887526   -0.7456559    2.3478473  
C   -0.4549825   -0.3816753    3.7138435  
N    0.5448156    0.4573574    3.6934124  
C   -1.0945674   -0.9182058    4.8835240  
C   -2.1210866   -1.7789155    4.6970523  
O   -2.8083856   -2.3554314    5.6976972  
C   -2.5824069   -2.1655116    3.3310774  
O   -3.5227682   -2.9541547    3.2362962  
C   -1.9100805   -1.6015804    2.1470656  
H   -0.7567140   -0.6349833    5.8697035  
H   -3.4728268   -2.9124471    5.2533954  
H   -2.2742832   -1.9066565    1.1752040  
H    1.6189533    1.3585343    2.0405121  
