58

C    2.4782023   -2.1081876   -5.8783640  
C    1.9212516   -1.6438941   -7.0265419  
C    0.8545985   -0.7486151   -6.6450158  
C    0.8356633   -0.7292244   -5.1698696  
N    1.8439055   -1.5742005   -4.7669395  
C   -0.0307352   -0.0004644   -4.4215602  
C   -1.0100801    0.8193483   -5.1153368  
O   -1.8333386    1.5114172   -4.5308819  
C   -1.0083721    0.8138724   -6.6773136  
O   -1.8284254    1.4999049   -7.2724037  
C   -0.0251094   -0.0124252   -7.3732163  
H   -0.0304432   -0.0104844   -8.4547390  
H    3.2985197   -2.7956862   -5.7506351  
H    2.0835083   -1.7709322   -3.8125106  
C    3.2573668   -0.0002920   -1.5109382  
C    2.5379469   -0.0001709   -0.3591961  
C    1.1435042    0.0000333   -0.7338498  
C    1.1092608   -0.0000080   -2.2088472  
N    2.4227562    0.0001910   -2.6182608  
C   -0.0265532   -0.0002521   -2.9515661  
C   -1.3003035   -0.0002638   -2.2514980  
O   -2.3786783   -0.0004130   -2.8306421  
C   -1.2877725    0.0000313   -0.6895601  
O   -2.3539956    0.0003307   -0.0892035  
C    0.0000000    0.0000000    0.0000000  
H    2.9384091   -0.0000368    0.6389239  
H    4.3270395   -0.0004766   -1.6439447  
H    2.7280494   -0.0013405   -3.5742114  
C    2.7093684   -3.2049035   -8.8653575  
C    2.3337833   -1.9933445   -8.3935098  
C    2.4255913   -1.1001209   -9.5381596  
C    2.8843319   -1.9626902  -10.6481667  
N    3.0523184   -3.1975795  -10.2598132  
C    3.1013170   -1.4478262  -11.9721444  
C    2.8701437   -0.1311903  -12.1779671  
O    3.0313649    0.4829788  -13.3623842  
C    2.4062975    0.7651494  -11.0781564  
O    2.2159783    1.9533349  -11.3374140  
C    2.1910282    0.2131515   -9.7287560  
H    3.4369721   -2.1009658  -12.7643906  
H    2.7908531    1.4120557  -13.1946860  
H    1.8546467    0.8953621   -8.9595573  
H    2.7752510   -4.1363916   -8.3259472  
C    2.5528530    2.1414826    2.8079335  
C    2.0663498    1.7338582    4.0032312  
C    0.9804344    0.8229586    3.6752840  
C    0.9495562    0.7966882    2.1971295  
N    1.8690446    1.5676019    1.6831036  
C    0.0000000    0.0000000    1.4700000  
C   -0.8785127   -0.7372425    2.1869543  
O   -1.8187535   -1.5261249    1.6395491  
C   -0.8723269   -0.7321790    3.6796354  
O   -1.7010379   -1.4274584    4.2670412  
C    0.1115397    0.0933559    4.4024240  
H    2.4028853    2.0163452    4.9860947  
H   -2.2861435   -1.9184361    2.3990168  
H    0.0832434    0.0693689    5.4835595  
H    3.3664920    2.8238276    2.6198634  
