58

C    9.1704840    0.0013080   -3.6525722  
C    9.7202644    0.0005432   -4.8892292  
C   11.1570611    0.0013530   -4.6609441  
C   11.3006050    0.0027212   -3.1892180  
N   10.1394791    0.0026203   -2.5927501  
C   12.5878065    0.0037863   -2.5503165  
C   13.6818754    0.0031088   -3.3455188  
O   14.9444179    0.0039646   -2.8850556  
C   13.5697880    0.0013563   -4.8340057  
O   14.6079279    0.0009458   -5.4954333  
C   12.2381717    0.0003324   -5.4654506  
H    9.2133993   -0.0005382   -5.8390514  
H   12.6631550    0.0049831   -1.4727121  
H   15.5001723    0.0031238   -3.6852362  
H   12.1997656   -0.0010463   -6.5465396  
C    6.6781257    0.0000527   -4.1292994  
C    7.7444173    0.0009685   -3.2958729  
C    7.1743129    0.0014029   -1.9574112  
C    5.7117403    0.0007372   -2.1752748  
N    5.4148486   -0.0001361   -3.4464332  
C    4.7795901    0.0008674   -1.0815733  
C    5.2855490    0.0012392    0.1727550  
O    4.5324888    0.0014071    1.2858323  
C    6.7567498    0.0015422    0.4252004  
O    7.1465030    0.0019990    1.5928102  
C    7.6924432    0.0014449   -0.7133968  
H    5.1738997    0.0016452    2.0191429  
H    8.7505413    0.0015572   -0.4883257  
H    6.6781253   -0.0005125   -5.2077115  
C    3.3321168    0.0004716   -1.3379341  
C    2.6974177    0.0000118   -2.5332316  
C    1.2800432   -0.0002116   -2.2052842  
C    1.2395033    0.0000644   -0.7271298  
N    2.4394059    0.0005460   -0.2131041  
C    0.0000000    0.0000000    0.0000000  
C   -1.1468704    0.0000635   -0.7169542  
O   -2.3742206    0.0000074   -0.1695488  
C   -1.1388774    0.0001608   -2.2096352  
O   -2.2206238    0.0000906   -2.7970409  
C    0.1454514    0.0001818   -2.9324241  
H    3.1367978   -0.0000649   -3.5160956  
H   -2.9844350    0.0001027   -0.9290164  
H    0.1083567    0.0003684   -4.0135594  
C    2.5528530    2.1414826    2.8079335  
C    2.0663498    1.7338582    4.0032312  
C    0.9804344    0.8229586    3.6752840  
C    0.9495562    0.7966882    2.1971295  
N    1.8690446    1.5676019    1.6831036  
C    0.0000000    0.0000000    1.4700000  
C   -0.8785127   -0.7372425    2.1869543  
O   -1.8187535   -1.5261249    1.6395491  
C   -0.8723269   -0.7321790    3.6796354  
O   -1.7010379   -1.4274584    4.2670412  
C    0.1115397    0.0933559    4.4024240  
H    2.4028853    2.0163452    4.9860947  
H   -2.2861435   -1.9184361    2.3990168  
H    0.0832434    0.0693689    5.4835595  
H    3.3664920    2.8238276    2.6198634  
