58

C    3.2573677   -0.0002923   -1.5109371  
C    2.5379474   -0.0001713   -0.3591956  
C    1.1435046    0.0000329   -0.7338495  
C    1.1092617   -0.0000086   -2.2088470  
N    2.4227573    0.0001904   -2.6182602  
C   -0.0265523   -0.0002527   -2.9515661  
C   -1.3003027   -0.0002644   -2.2514983  
O   -2.3786775   -0.0004135   -2.8306429  
C   -1.2877720    0.0000309   -0.6895608  
O   -2.3539953    0.0003304   -0.0892038  
C    0.0000000    0.0000000    0.0000000  
H    2.9384088   -0.0000370    0.6389247  
H    4.3270401   -0.0004772   -1.6439429  
H    2.7280503   -0.0013411   -3.5742105  
C    0.7846897   -0.6863335   -5.2559754  
C   -0.0307340   -0.0004652   -4.4215598  
C   -0.9222766    0.7447106   -5.2969827  
C   -0.4922494    0.3807050   -6.6641549  
N    0.5079366   -0.4579276   -6.6464477  
C   -1.1353723    0.9168121   -7.8320881  
C   -2.1616992    1.7771408   -7.6428207  
O   -2.8520713    2.3532389   -8.6415891  
C   -2.6192854    2.1637509   -6.2755942  
O   -3.5596869    2.9520343   -6.1782516  
C   -1.9433695    1.6002582   -5.0934191  
H   -3.5154673    2.9100549   -8.1954790  
H   -2.3049274    1.9053299   -4.1205691  
H    1.5871301   -1.3584386   -4.9964804  
C   -0.6792830    0.5313878   -9.1753417  
C    0.3266570   -0.3122939   -9.5037713  
C    0.3423594   -0.3289713  -10.9584104  
C   -0.7504113    0.5855707  -11.3534421  
N   -1.3528493    1.0929832  -10.3124851  
C   -1.0643965    0.8453440  -12.7314899  
C   -0.3202701    0.2202191  -13.6721437  
O   -0.5026864    0.3699529  -14.9951496  
C    0.7895244   -0.7081538  -13.3052084  
O    1.4251797   -1.2425506  -14.2138244  
C    1.0920277   -0.9582746  -11.8846953  
H    0.9776893   -0.8560781   -8.8407994  
H   -1.8685574    1.5181515  -12.9914226  
H    0.1746736   -0.1980399  -15.4046864  
H    1.9037820   -1.6372768  -11.6605513  
C    2.5528530    2.1414826    2.8079335  
C    2.0663498    1.7338582    4.0032312  
C    0.9804344    0.8229586    3.6752840  
C    0.9495562    0.7966882    2.1971295  
N    1.8690446    1.5676019    1.6831036  
C    0.0000000    0.0000000    1.4700000  
C   -0.8785127   -0.7372425    2.1869543  
O   -1.8187535   -1.5261249    1.6395491  
C   -0.8723269   -0.7321790    3.6796354  
O   -1.7010379   -1.4274584    4.2670412  
C    0.1115397    0.0933559    4.4024240  
H    2.4028853    2.0163452    4.9860947  
H   -2.2861435   -1.9184361    2.3990168  
H    0.0832434    0.0693689    5.4835595  
H    3.3664920    2.8238276    2.6198634  
