58

C   -3.2573635   -0.0043578   -1.5109391  
C   -2.5379445   -0.0034519   -0.3591969  
C   -1.1435025   -0.0016654   -0.7338503  
C   -1.1092584   -0.0015751   -2.2088480  
N   -2.4227520   -0.0036493   -2.6182620  
C    0.0265545    0.0002904   -2.9515659  
C    1.3003034    0.0021202   -2.2514974  
O    2.3786763    0.0038089   -2.8306416  
C    1.2877718    0.0018072   -0.6895602  
O    2.3539938    0.0030297   -0.0892027  
C    0.0000000    0.0000000    0.0000000  
H   -2.9384056   -0.0041578    0.6389226  
H    0.0296302    0.0004510   -4.0327235  
H   -2.7280470   -0.0025534   -3.5742126  
C   -6.4549966   -0.0082886    1.4492333  
C   -7.5628416   -0.0093246    0.6718933  
C   -7.0625066   -0.0087088   -0.6941831  
C   -5.5906468   -0.0071445   -0.5520193  
N   -5.2286089   -0.0069723    0.7021412  
C   -4.7161285   -0.0061885   -1.6923272  
C   -5.2860866   -0.0071579   -2.9189002  
O   -4.5914184   -0.0064339   -4.0693246  
C   -6.7683453   -0.0091141   -3.0951549  
O   -7.2177819   -0.0097878   -4.2411159  
C   -7.6440877   -0.0100207   -1.9098278  
H   -5.2697850   -0.0074820   -4.7685884  
H   -8.7123827   -0.0115542   -2.0800437  
H   -6.3993934   -0.0083328    2.5262115  
C   -9.5261894    0.6744755    2.1268167  
C   -8.9686194   -0.0108845    1.1016458  
C  -10.0671375   -0.7576569    0.5082759  
C  -11.2470346   -0.3950355    1.3224828  
N  -10.9361097    0.4442270    2.2727215  
C  -12.5520179   -0.9329404    1.0527352  
C  -12.6728681   -1.7936658    0.0164529  
O  -13.8301065   -2.3713867   -0.3483460  
C  -11.5010218   -2.1789086   -0.8240966  
O  -11.6844458   -2.9676469   -1.7511720  
C  -10.1727915   -1.6135809   -0.5272249  
H  -13.3966460   -0.6506940    1.6641680  
H  -13.5988651   -2.9280694   -1.1137115  
H   -9.3495350   -1.9177016   -1.1596723  
H   -9.0423691    1.3473815    2.8168087  
C    0.0000000    0.0000000    1.4700000  
C    1.0662921    0.0000102    2.3034270  
C    0.4961870   -0.0000064    3.6418889  
C   -0.9663858    0.0000850    3.4240247  
N   -1.2632773    0.0000084    2.1528658  
C   -1.8985362    0.0000517    4.5177257  
C   -1.3925775   -0.0004564    5.7720543  
O   -2.1456383   -0.0005410    6.8851312  
C    0.0786232   -0.0009323    6.0245000  
O    0.4683759   -0.0012588    7.1921102  
C    1.0143166   -0.0008442    4.8859032  
H    2.1107198   -0.0000632    2.0421868  
H   -2.9622183    0.0003270    4.3293377  
H   -1.5042274   -0.0009692    7.6184419  
H    2.0724152   -0.0013148    5.1109744  
