60

C    0.0000000    0.0000000    0.0000000  
C   -1.0521664   -0.0013232   -0.8862345  
C   -0.4917225    0.0000211   -2.1979133  
C    0.9187418    0.0018797   -2.0478681  
N    1.1833123    0.0037676   -0.7007907  
C    1.7951686    0.0032530   -3.1372085  
C    1.2375830    0.0024337   -4.4010421  
O    2.0474213    0.0033545   -5.4997575  
C   -0.1673588    0.0009568   -4.5711962  
O   -0.5673538    0.0007135   -5.8915550  
C   -1.0325785   -0.0001253   -3.4969894  
H   -2.0953064   -0.0019400   -0.6200569  
H    2.0989964   -0.0052234   -0.2891820  
H    2.8710909    0.0048160   -3.0295506  
H    1.4634882    0.0028460   -6.2693590  
H   -1.5290726   -0.0003372   -5.9180050  
C   -2.4861726   -0.0014005   -3.7159928  
C   -3.4691557   -0.0025891   -2.7857662  
C   -4.7077449   -0.0035123   -3.5489158  
C   -4.2744152   -0.0025793   -4.9627081  
N   -2.9732124   -0.0014208   -5.0669066  
C   -5.2170366   -0.0031454   -6.0473972  
C   -6.5327450   -0.0049675   -5.7339580  
O   -7.5212076   -0.0056816   -6.6444428  
C   -7.0015547   -0.0063189   -4.3167858  
O   -8.2141993   -0.0078322   -4.1053356  
C   -6.0150664   -0.0056606   -3.2219044  
H   -3.3664317   -0.0029019   -1.7140744  
H   -4.8722825   -0.0022321   -7.0711419  
H   -8.3418922   -0.0070321   -6.1194404  
C   -6.0277345    0.6976346   -0.8000828  
C   -6.5317078   -0.0072070   -1.8456852  
C   -7.6633523   -0.7514183   -1.3453194  
C   -7.7781945   -0.4199722    0.0877699  
N   -6.7572650    0.4625998    0.3554619  
C   -8.7261766   -0.9214558    0.9193641  
C   -9.6981130   -1.8497561    0.3660703  
O  -10.5906235   -2.3560049    1.0334819  
C   -9.5952317   -2.2151142   -1.1490977  
O  -10.4077763   -2.9958300   -1.6260839  
C   -8.5296623   -1.6099155   -1.9441745  
H   -8.7929065   -0.6652498    1.9676081  
H   -8.4654505   -1.8679311   -2.9925200  
H   -5.1846299    1.3688309   -0.7764182  
H   -6.5720287    0.8742956    1.2516993  
C    1.0672568    0.0000697    2.3021913  
C    0.0000000    0.0000000    1.4700000  
C   -1.1601224    0.0000736    2.3478473  
C   -0.5938729    0.0000769    3.7138435  
N    0.7113367    0.0001554    3.6934124  
C   -1.4286986    0.0001879    4.8835240  
C   -2.7683114    0.0006799    4.6970523  
O   -3.6653903    0.0008304    5.6976972  
C   -3.3702025    0.0010610    3.3310774  
O   -4.5974910    0.0013779    3.2362962  
C   -2.4926826    0.0008943    2.1470656  
H   -0.9878360   -0.0000190    5.8697035  
H   -4.5324246    0.0012261    5.2533954  
H   -2.9677772    0.0012974    1.1752040  
H    2.1134392    0.0000545    2.0405121  
