58

C    6.6174604   -0.0017047    1.3537077  
C    5.3857487   -0.0012517    0.7819026  
C    5.5854744   -0.0008503   -0.6481130  
C    7.0449748   -0.0011376   -0.8640996  
N    7.6133356   -0.0012547    0.3888392  
C    7.6418654   -0.0012958   -2.0828799  
C    6.7899755   -0.0009488   -3.2605124  
O    7.2316300   -0.0009950   -4.4021091  
C    5.2415210   -0.0003889   -3.0553448  
O    4.5141870    0.0002132   -4.0393394  
C    4.7161325   -0.0005435   -1.6923264  
H    4.4446705   -0.0010218    1.3024658  
H    8.7143807   -0.0016363   -2.2193396  
H    6.8814402   -0.0021124    2.3987941  
C    9.6840184   -0.7314099    1.6606525  
C   11.0249271   -0.5169977    1.6523281  
C   11.2964098    0.4098000    0.5789326  
C    9.9944115    0.7200031   -0.0418444  
N    9.0581380   -0.0038216    0.6598388  
C    9.8248478    1.5610148   -1.0933442  
C   11.0033682    2.2033789   -1.6510125  
O   10.9548945    2.9770883   -2.5982844  
C   12.3924515    1.8892240   -1.0094837  
O   13.3918064    2.4238799   -1.4706695  
C   12.4484900    0.9658372    0.1210335  
H   11.7420432   -0.9579183    2.3216173  
H    8.8609111    1.7750063   -1.5337356  
H   13.4140837    0.7537734    0.5596456  
H    9.1004275   -1.3599015    2.3135762  
C    3.2573665   -0.0002920   -1.5109385  
C    2.5379463   -0.0001709   -0.3591964  
C    1.1435038    0.0000331   -0.7338500  
C    1.1092599   -0.0000083   -2.2088477  
N    2.4227553    0.0001909   -2.6182613  
C   -0.0265539   -0.0002524   -2.9515660  
C   -1.3003040   -0.0002640   -2.2514977  
O   -2.3786790   -0.0004133   -2.8306421  
C   -1.2877727    0.0000311   -0.6895603  
O   -2.3539959    0.0003306   -0.0892030  
C    0.0000000    0.0000000    0.0000000  
H    2.9384091   -0.0000367    0.6389234  
H   -0.0296303   -0.0004086   -4.0327229  
H    2.7280482   -0.0013407   -3.5742119  
C    0.0000000    0.0000000    1.4700000  
C    1.0662921    0.0000102    2.3034270  
C    0.4961870   -0.0000064    3.6418889  
C   -0.9663858    0.0000850    3.4240247  
N   -1.2632773    0.0000084    2.1528658  
C   -1.8985362    0.0000517    4.5177257  
C   -1.3925775   -0.0004564    5.7720543  
O   -2.1456383   -0.0005410    6.8851312  
C    0.0786232   -0.0009323    6.0245000  
O    0.4683759   -0.0012588    7.1921102  
C    1.0143166   -0.0008442    4.8859032  
H    2.1107198   -0.0000632    2.0421868  
H   -2.9622183    0.0003270    4.3293377  
H   -1.5042274   -0.0009692    7.6184419  
H    2.0724152   -0.0013148    5.1109744  
