60

C    3.3003537    0.0005277   -1.4739000  
C    2.5232799    0.0003499   -2.6090757  
C    1.1623189   -0.0001317   -2.1820106  
C    1.1711885    0.0000585   -0.7636144  
N    2.4852295   -0.0014918   -0.3662368  
C    0.0000000    0.0000000    0.0000000  
C   -1.2020393    0.0000521   -0.6806474  
O   -2.3759254    0.0003495    0.0157755  
C   -1.2314656   -0.0005110   -2.0955503  
O   -2.5054398   -0.0008034   -2.6250168  
C   -0.0764531   -0.0007269   -2.8495194  
H    2.8919938   -0.0005616   -3.6205312  
H    2.8036265    0.0088181    0.5858651  
H   -3.0835643    0.0000349   -0.6418807  
H   -2.4360069   -0.0011524   -3.5845912  
H   -0.1304110   -0.0013418   -3.9319084  
C    6.5907940    0.0004125   -4.4182901  
C    5.3731470    0.0003988   -3.8171156  
C    5.6071040    0.0003106   -2.3923001  
C    7.0713633    0.0003030   -2.2113713  
N    7.6095187   -0.0000323   -3.4775776  
C    7.6973063    0.0006260   -1.0072532  
C    6.8738980    0.0007803    0.1904669  
O    7.3427984    0.0010090    1.3211452  
C    5.3209689    0.0005394    0.0224868  
O    4.6174387    0.0003599    1.0236386  
C    4.7630496    0.0004757   -1.3275420  
H    4.4198578    0.0002628   -4.3149641  
H    6.8296397    0.0004931   -5.4694055  
H    8.5911147    0.0014371   -3.6861768  
C   10.0451212    0.7270924   -1.6384223  
C   11.3280922    0.5105177   -1.2496347  
C   11.2820200   -0.4164268   -0.1435214  
C    9.8568234   -0.7243590    0.0818306  
N    9.1595802    0.0007866   -0.8567347  
C    9.3942267   -1.5648113    1.0416998  
C   10.3647765   -2.2089262    1.9110007  
O   10.0479943   -2.9823001    2.8053403  
C   11.8793714   -1.8971887    1.6904861  
O   12.7057129   -2.4333326    2.4164127  
C   12.2556946   -0.9741995    0.6226269  
H   12.2064849    0.9500985   -1.6875953  
H    8.3445598   -1.7771268    1.1901317  
H   13.3064435   -0.7638139    0.4763713  
H    9.6720318    1.3563486   -2.4300854  
C    0.8175213    0.6860729    2.3021913  
C    0.0000000    0.0000000    1.4700000  
C   -0.8887526   -0.7456559    2.3478473  
C   -0.4549825   -0.3816753    3.7138435  
N    0.5448156    0.4573574    3.6934124  
C   -1.0945674   -0.9182058    4.8835240  
C   -2.1210866   -1.7789155    4.6970523  
O   -2.8083856   -2.3554314    5.6976972  
C   -2.5824069   -2.1655116    3.3310774  
O   -3.5227682   -2.9541547    3.2362962  
C   -1.9100805   -1.6015804    2.1470656  
H   -0.7567140   -0.6349833    5.8697035  
H   -3.4728268   -2.9124471    5.2533954  
H   -2.2742832   -1.9066565    1.1752040  
H    1.6189533    1.3585343    2.0405121  
