58

C    3.2573665   -0.0002919   -1.5109388  
C    2.5379466   -0.0001709   -0.3591967  
C    1.1435036    0.0000331   -0.7338501  
C    1.1092601   -0.0000083   -2.2088478  
N    2.4227553    0.0001910   -2.6182616  
C   -0.0265541   -0.0002524   -2.9515659  
C   -1.3003053   -0.0002640   -2.2514974  
O   -2.3786791   -0.0004133   -2.8306419  
C   -1.2877726    0.0000311   -0.6895604  
O   -2.3539953    0.0003306   -0.0892029  
C    0.0000000    0.0000000    0.0000000  
H    2.9384088   -0.0000367    0.6389228  
H   -0.0296302   -0.0004086   -4.0327231  
H    2.7280481   -0.0013407   -3.5742122  
C    6.6174610    0.0016340    1.3537063  
C    5.3857492    0.0013496    0.7819012  
C    5.5854749    0.0003217   -0.6481140  
C    7.0449750   -0.0000008   -0.8641006  
N    7.6133366    0.0012283    0.3888376  
C    7.6418657   -0.0013231   -2.0828804  
C    6.7899754   -0.0022817   -3.2605123  
O    7.2316297   -0.0034332   -4.4021083  
C    5.2415211   -0.0017089   -3.0553447  
O    4.5141872   -0.0021996   -4.0393396  
C    4.7161326   -0.0005435   -1.6923270  
H    4.4446714    0.0019900    1.3024640  
H    6.8814410    0.0023226    2.3987923  
H    8.5996524   -0.0002111    0.5738411  
C   10.0286951   -0.6873594   -1.5618031  
C    9.1001096   -0.0017905   -2.2684175  
C    9.8589089    0.7427509   -3.2615852  
C   11.2686581    0.3787437   -3.0033406  
N   11.3744154   -0.4593426   -2.0081441  
C   12.3483643    0.9143012   -3.7859641  
C   12.0339899    1.7741052   -4.7815745  
O   12.9399975    2.3496567   -5.5902346  
C   10.6207886    2.1607018   -5.0671737  
O   10.4082322    2.9484911   -5.9888184  
C    9.5309933    1.5977791   -4.2502353  
H   13.3692437    0.6310827   -3.5750086  
H   12.4154956    2.9061892   -6.1938254  
H    8.5209955    1.9028219   -4.4891576  
H    9.8701303   -1.3589843   -0.7330988  
C    0.0000000    0.0000000    1.4700000  
C    1.0662921    0.0000102    2.3034270  
C    0.4961870   -0.0000064    3.6418889  
C   -0.9663858    0.0000850    3.4240247  
N   -1.2632773    0.0000084    2.1528658  
C   -1.8985362    0.0000517    4.5177257  
C   -1.3925775   -0.0004564    5.7720543  
O   -2.1456383   -0.0005410    6.8851312  
C    0.0786232   -0.0009323    6.0245000  
O    0.4683759   -0.0012588    7.1921102  
C    1.0143166   -0.0008442    4.8859032  
H    2.1107198   -0.0000632    2.0421868  
H   -2.9622183    0.0003270    4.3293377  
H   -1.5042274   -0.0009692    7.6184419  
H    2.0724152   -0.0013148    5.1109744  
