60

C    0.0000000    0.0000000    0.0000000  
C   -1.0521656   -0.0014290   -0.8862350  
C   -0.4917216   -0.0000283   -2.1979133  
C    0.9187425    0.0019722   -2.0478675  
N    1.1833124    0.0038866   -0.7007905  
C    1.7951693    0.0034336   -3.1372079  
C    1.2375846    0.0025582   -4.4010416  
O    2.0474231    0.0035605   -5.4997563  
C   -0.1673574    0.0009400   -4.5711965  
O   -0.5673515    0.0006565   -5.8915555  
C   -1.0325771   -0.0002291   -3.4969897  
H   -2.0953060   -0.0021508   -0.6200574  
H    2.0989970   -0.0050122   -0.2891811  
H    2.8710913    0.0051049   -3.0295496  
H    1.4634900    0.0029932   -6.2693585  
H   -1.5290702   -0.0004909   -5.9180056  
C   -2.4861707   -0.0016505   -3.7159938  
C   -3.4897085   -0.0027923   -2.8011243  
C   -4.7313121   -0.0039615   -3.5381819  
C   -4.3662435   -0.0034327   -4.9676979  
N   -2.9909960   -0.0016257   -5.0074624  
C   -5.2594874   -0.0046151   -5.9893716  
C   -6.6749000   -0.0063107   -5.6590099  
O   -7.5569788   -0.0074028   -6.5076780  
C   -7.0843378   -0.0066455   -4.1516394  
O   -8.2730161   -0.0077615   -3.8612867  
C   -6.0304272   -0.0055499   -3.1401440  
H   -3.3734557   -0.0026306   -1.7319662  
H   -6.3222905   -0.0059955   -2.0987316  
H   -2.4390555   -0.0024289   -5.8455606  
C   -2.0467197   -2.1422916   -8.0132199  
C   -2.1967583   -1.7349349   -9.2950652  
C   -3.3319330   -0.8254251   -9.2691621  
C   -3.7565638   -0.7995827   -7.8529686  
N   -3.0068478   -1.5695290   -7.1119577  
C   -4.8668228   -0.0042263   -7.4059574  
C   -5.5228054    0.7321516   -8.3315756  
O   -6.5760698    1.5197609   -8.0552687  
C   -5.1181151    0.7274903   -9.7683648  
O   -5.7606582    1.4219306  -10.5558365  
C   -3.9759164   -0.0966727  -10.2020267  
H   -1.6095640   -2.0167581  -10.1523014  
H   -6.8240894    1.9117120   -8.9120143  
H   -3.7144225   -0.0724337  -11.2514380  
H   -1.3120463   -2.8237099   -7.6146004  
C    3.3321173   -0.0004715    2.8079335  
C    2.6974184   -0.0000116    4.0032312  
C    1.2800439    0.0002118    3.6752840  
C    1.2395035   -0.0000644    2.1971295  
N    2.4394063   -0.0005460    1.6831036  
C    0.0000000    0.0000000    1.4700000  
C   -1.1468701   -0.0000635    2.1869543  
O   -2.3742202   -0.0000073    1.6395491  
C   -1.1388768   -0.0001607    3.6796354  
O   -2.2206231   -0.0000905    4.2670412  
C    0.1454524   -0.0001816    4.4024240  
H    3.1367986    0.0000651    4.9860947  
H   -2.9844344   -0.0001026    2.3990168  
H    0.1083576   -0.0003682    5.4835595  
H    4.3940039   -0.0007619    2.6198634  
