60

C   -3.3460099   -0.0004264   -2.7913642  
C   -3.9807095   -0.0008722   -1.5960664  
C   -5.3980834   -0.0010998   -1.9240135  
C   -5.4386243   -0.0006189   -3.4021680  
N   -4.2387215   -0.0003037   -3.9161939  
C   -6.6781275   -0.0007181   -4.1292972  
C   -7.8249965   -0.0016615   -3.4123430  
O   -9.0523468   -0.0018579   -3.9597487  
C   -7.8170046   -0.0025378   -1.9196621  
O   -8.8987506   -0.0032509   -1.3322562  
C   -6.5326743   -0.0023731   -1.1968737  
H   -3.5413288   -0.0011175   -0.6132030  
H   -6.6781281   -0.0001519   -5.2095331  
H   -9.6625609   -0.0026195   -3.2002804  
H   -6.5697687   -0.0031427   -0.1157385  
C    0.0000000    0.0000000    0.0000000  
C    1.0662919   -0.0000103   -0.8334270  
C    0.4961866    0.0000065   -2.1718889  
C   -0.9663862   -0.0000850   -1.9540246  
N   -1.2632775   -0.0000084   -0.6828656  
C   -1.8985367   -0.0000517   -3.0477255  
C   -1.3925784    0.0004565   -4.3020543  
O   -2.1456390    0.0005410   -5.4151309  
C    0.0786224    0.0009324   -4.5544999  
O    0.4683751    0.0012590   -5.7221101  
C    1.0143159    0.0008443   -3.4159032  
H    2.1107193    0.0000633   -0.5721870  
H   -1.5042281    0.0009693   -6.1484413  
C    3.4364591   -0.6845231   -3.0955670  
C    2.4521472    0.0014839   -3.7217486  
C    3.1256104    0.7478438   -4.7733635  
C    4.5520908    0.3843004   -4.6334543  
N    4.7404164   -0.4551035   -3.6516580  
C    5.5629152    0.9215716   -5.5021655  
C    5.1666473    1.7825722   -6.4670404  
O    6.0021941    2.3597723   -7.3472346  
C    3.7344479    2.1687410   -6.6338917  
O    3.4458147    2.9576836   -7.5336031  
C    2.7164270    1.6040511   -5.7301858  
H    6.5979058    0.6386558   -5.3770142  
H    5.4291780    2.9168356   -7.9044469  
H    1.6899514    1.9088363   -5.8840788  
H    3.3474864   -1.3573888   -2.2575281  
C    1.1243417   -0.0099156    2.2619005  
C    0.7474090   -0.0234034    3.5848544  
C   -0.6787367   -0.0234952    3.6114698  
C   -1.1201739   -0.0099357    2.2635546  
N    0.0000000    0.0000000    1.4700000  
C   -2.4730812   -0.0065396    1.9108239  
C   -3.3971947   -0.0173298    2.9375057  
O   -4.7313508   -0.0149487    2.6493466  
C   -2.9763630   -0.0305536    4.2886322  
O   -4.0166453   -0.0397858    5.1947621  
C   -1.6418541   -0.0336380    4.6373480  
H    1.4178735   -0.0310004    4.4271209  
H   -2.8160170    0.0039190    0.8854031  
H   -5.1938803   -0.0234410    3.4974381  
H   -3.6464643   -0.0484781    6.0827341  
H   -1.3497443   -0.0436789    5.6809233  
H    2.1062470   -0.0051382    1.8205408  
