58

C    2.5092667   -2.0880360   -5.9399682  
C    1.9605216   -1.6268625   -4.7865938  
C    0.8894587   -0.7326233   -5.1580727  
C    0.8589566   -0.7104876   -6.6329863  
N    1.8659263   -1.5524061   -7.0453878  
C   -0.0149631    0.0176445   -7.3731170  
C   -0.9904844    0.8341830   -6.6701527  
O   -1.8197975    1.5255377   -7.2468408  
C   -0.9762348    0.8261500   -5.1082510  
O   -1.7925790    1.5098881   -4.5054701  
C    0.0139737    0.0003881   -4.4216233  
H    2.2707711   -1.8836544   -3.7893895  
H    3.3296620   -2.7739652   -6.0754079  
H    2.0965136   -1.7491781   -8.0020269  
C    3.2798083    0.0005857   -1.4499649  
C    2.5571142    0.0005565   -2.5996554  
C    1.1637433    0.0001549   -2.2210361  
C    1.1336964   -0.0000199   -0.7459471  
N    2.4483512   -0.0001430   -0.3402719  
C    0.0000000    0.0000000    0.0000000  
C   -1.2757369   -0.0000185   -0.6964413  
O   -2.3524597   -0.0000639   -0.1142311  
C   -1.2676496   -0.0000872   -2.2584080  
O   -2.3355767   -0.0004098   -2.8557291  
C    0.0181559    0.0001762   -2.9516297  
H    2.9547353    0.0006075   -3.5989106  
H    4.3498547    0.0008612   -1.3200022  
H    2.7563628    0.0012821    0.6148060  
C    0.1608665   -1.0287114   -9.6781864  
C   -0.0224908    0.0203749   -8.8430949  
C   -0.2310775    1.1640302   -9.7177632  
C   -0.1384954    0.6091445  -11.0852846  
N    0.0910659   -0.6757705  -11.0684150  
C   -0.2914069    1.4331095  -12.2526690  
C   -0.5265202    2.7514068  -12.0625416  
O   -0.6895528    3.6363335  -13.0607226  
C   -0.6257489    3.3413110  -10.6949421  
O   -0.8414063    4.5492361  -10.5968118  
C   -0.4652012    2.4753005   -9.5133438  
H   -0.2187232    1.0009874  -13.2400379  
H   -0.8401434    4.4889572  -12.6140595  
H   -0.5441711    2.9411129   -8.5401979  
H    0.3462030   -2.0590687   -9.4193667  
C    2.3971438    2.0127888    3.1728260  
C    1.9431056    1.6308205    1.9564670  
C    0.8496017    0.7127664    2.2356185  
C    0.7794028    0.6545384    3.7115134  
N    1.6840587    1.4146091    4.2663826  
C   -0.1885723   -0.1578550    4.3957118  
C   -1.0476298   -0.8789867    3.6398520  
O   -2.0015663   -1.6796266    4.1448486  
C   -1.0022026   -0.8410666    2.1483229  
O   -1.8147390   -1.5232959    1.5241687  
C    0.0000000    0.0000000    1.4700000  
H    2.3054237    1.9346118    0.9892483  
H   -0.2170646   -0.1815267    5.4753125  
H   -2.4487139   -2.0549881    3.3649027  
H    3.2048689    2.6911772    3.3971983  
