62

C    3.3041272    0.0001175   -1.5420434  
C    2.5845371   -0.0004781   -0.3695851  
C    1.2040007   -0.0000010   -0.7283590  
C    1.1422374    0.0006034   -2.1454375  
N    2.4348638    0.0026106   -2.6077465  
C   -0.0655183    0.0008793   -2.8497921  
C   -1.2321772    0.0002320   -2.1101397  
O   -2.4392815    0.0001142   -2.7472517  
C   -1.1911208   -0.0000010   -0.6955262  
O   -2.4371526   -0.0002321   -0.1032860  
C    0.0000000    0.0000000    0.0000000  
H    3.0031534   -0.0000660    0.6222582  
H   -0.1193550    0.0014839   -3.9297469  
H   -3.1132987   -0.0000652   -2.0551785  
H   -2.3200278   -0.0004072    0.8516410  
H    4.3686624    0.0004070   -1.7024295  
C    5.6086916   -2.0215433   -4.9939693  
C    4.8416738   -1.6314637   -3.9494120  
C    3.8592057   -0.7249419   -4.5234101  
C    4.1890997   -0.6815707   -5.9641988  
N    5.2136949   -1.4397095   -6.2460165  
C    3.4372231    0.1163823   -6.8931980  
C    2.4025652    0.8378960   -6.4051039  
O    1.6159680    1.6259441   -7.1576240  
C    2.0444992    0.8147843   -4.9561681  
O    1.0903368    1.4964963   -4.5819175  
C    2.8310663   -0.0116224   -4.0232753  
H    4.9314389   -1.9229650   -2.9169169  
H    0.9732435    2.0052470   -6.5313751  
H    6.4504502   -2.6955823   -4.9845927  
C    3.7956909    0.1340573   -8.3187117  
C    4.7998600   -0.5260924   -8.9882741  
C    4.6995626   -0.1535043  -10.3614888  
C    3.6065056    0.7438634  -10.4705007  
N    3.0788947    0.8951458   -9.2121858  
C    3.2155507    1.3155158  -11.6850613  
C    3.9414393    0.9753154  -12.8100173  
O    3.6028719    1.5049109  -14.0215928  
C    5.0350329    0.0814216  -12.7215631  
O    5.6564395   -0.1579182  -13.9298324  
C    5.4211131   -0.4831167  -11.5237463  
H    5.5158180   -1.1948786   -8.5420427  
H    2.2989465    1.4817938   -8.9765883  
H    2.3833189    2.0000110  -11.7748339  
H    4.2277611    1.1417056  -14.6625771  
H    6.3831034   -0.7708632  -13.7819759  
H    6.2628740   -1.1647089  -11.4870191  
C    2.5528530    2.1414826    2.8079335  
C    2.0663498    1.7338582    4.0032312  
C    0.9804344    0.8229586    3.6752840  
C    0.9495562    0.7966882    2.1971295  
N    1.8690446    1.5676019    1.6831036  
C    0.0000000    0.0000000    1.4700000  
C   -0.8785127   -0.7372425    2.1869543  
O   -1.8187535   -1.5261249    1.6395491  
C   -0.8723269   -0.7321790    3.6796354  
O   -1.7010379   -1.4274584    4.2670412  
C    0.1115397    0.0933559    4.4024240  
H    2.4028853    2.0163452    4.9860947  
H   -2.2861435   -1.9184361    2.3990168  
H    0.0832434    0.0693689    5.4835595  
H    3.3664920    2.8238276    2.6198634  
