58

C   -3.2573639   -0.0045762   -1.5109380  
C   -2.5379441   -0.0036221   -0.3591960  
C   -1.1435029   -0.0017421   -0.7338497  
C   -1.1092596   -0.0016495   -2.2088471  
N   -2.4227533   -0.0038118   -2.6182607  
C    0.0265529    0.0002921   -2.9515664  
C    1.3003023    0.0022074   -2.2514976  
O    2.3786749    0.0039683   -2.8306422  
C    1.2877710    0.0018935   -0.6895606  
O    2.3539936    0.0031875   -0.0892031  
C    0.0000000    0.0000000    0.0000000  
H   -2.9384056   -0.0043548    0.6389239  
H    0.0296287    0.0004529   -4.0327229  
H   -2.7280481   -0.0027365   -3.5742115  
C   -6.7921713   -0.0111223    1.2037511  
C   -5.5118950   -0.0096336    0.7650374  
C   -5.6127357   -0.0088218   -0.6862831  
C   -7.0660970   -0.0101409   -0.9589044  
N   -7.7625224   -0.0114116    0.1451703  
C   -7.5891352   -0.0097871   -2.2973801  
C   -6.7006548   -0.0077991   -3.3171510  
O   -7.0481200   -0.0072504   -4.6153451  
C   -5.2278265   -0.0060586   -3.0743856  
O   -4.4775282   -0.0044118   -4.0502290  
C   -4.7161290   -0.0065049   -1.6923257  
H   -4.6104111   -0.0090564    1.3535966  
H   -8.6559145   -0.0109821   -2.4673540  
H   -6.2020976   -0.0057129   -5.0984568  
C   -4.6481491   -0.0120049    5.0360491  
C   -5.7072044   -0.0135150    5.8860341  
C   -6.9000278   -0.0137583    5.0723950  
C   -6.4458318   -0.0122847    3.6686520  
N   -5.0708040   -0.0108705    3.7154047  
C   -7.2730958   -0.0124377    2.5928551  
C   -8.7064747   -0.0139432    2.8336004  
O   -9.5334687   -0.0141371    1.9311691  
C   -9.2098444   -0.0152665    4.3122557  
O  -10.4144216   -0.0162324    4.5273228  
C   -8.2215923   -0.0152422    5.3879931  
H   -5.6583808   -0.0141794    6.9603847  
H   -8.5783339   -0.0163681    6.4090016  
H   -3.5944699   -0.0114085    5.2633147  
H   -4.4672787   -0.0112236    2.9136539  
C    0.8175213    0.6860729    2.3021913  
C    0.0000000    0.0000000    1.4700000  
C   -0.8887526   -0.7456559    2.3478473  
C   -0.4549825   -0.3816753    3.7138435  
N    0.5448156    0.4573574    3.6934124  
C   -1.0945674   -0.9182058    4.8835240  
C   -2.1210866   -1.7789155    4.6970523  
O   -2.8083856   -2.3554314    5.6976972  
C   -2.5824069   -2.1655116    3.3310774  
O   -3.5227682   -2.9541547    3.2362962  
C   -1.9100805   -1.6015804    2.1470656  
H   -0.7567140   -0.6349833    5.8697035  
H   -3.4728268   -2.9124471    5.2533954  
H   -2.2742832   -1.9066565    1.1752040  
H    1.6189533    1.3585343    2.0405121  
