58

C    2.0485059   -2.1404842   -4.9352596  
C    2.0920574   -1.7327542   -6.2250031  
C    0.9665703   -0.8221932   -6.3687264  
C    0.3351123   -0.7962139   -5.0318753  
N    0.9649966   -1.5669927   -4.1874018  
C   -0.8287665    0.0000939   -4.7555305  
C   -1.3384137    0.7372506   -5.7685425  
O   -2.4204375    1.5257896   -5.6524721  
C   -0.7235768    0.7324749   -7.1287312  
O   -1.2406169    1.4276566   -8.0031527  
C    0.4698623   -0.0926716   -7.3871122  
H    2.8005017   -2.0149675   -6.9849624  
H   -2.5373014    1.9181277   -6.5365348  
H    0.8852525   -0.0684849   -8.3856594  
C    5.6466536   -4.5000546   -6.0972408  
C    4.5843625   -3.6642230   -6.1643434  
C    4.0097350   -3.6799337   -4.8279094  
C    4.8741506   -4.6028535   -4.0613656  
N    5.8354647   -5.0866487   -4.8001539  
C    4.6357407   -4.8931128   -2.6742840  
C    3.5819229   -4.2885471   -2.0798912  
O    3.2423661   -4.4675303   -0.7919833  
C    2.6913086   -3.3518417   -2.8265839  
O    1.7505217   -2.8375128   -2.2219303  
C    2.9566835   -3.0703663   -4.2486503  
H    4.2340362   -3.1058922   -7.0155869  
H    5.2834566   -5.5717192   -2.1386838  
H    2.4550480   -3.9083528   -0.6631277  
H    6.3373213   -4.7606827   -6.8833859  
C    1.0672569   -0.0000698   -0.8321910  
C    0.0000000    0.0000000    0.0000000  
C   -1.1601223   -0.0000736   -0.8778472  
C   -0.5938729   -0.0000768   -2.2438435  
N    0.7113367   -0.0001553   -2.2234123  
C   -1.4286985   -0.0001877   -3.4135239  
C   -2.7683113   -0.0006798   -3.2270524  
O   -3.6653902   -0.0008302   -4.2276970  
C   -3.3702024   -0.0010610   -1.8610774  
O   -4.5974910   -0.0013779   -1.7662963  
C   -2.4926825   -0.0008943   -0.6770658  
H   -4.5324245   -0.0012258   -3.7833954  
H   -2.9677772   -0.0012974    0.2947961  
H    2.1134391   -0.0000547   -0.5705119  
C    2.5528530    2.1414826    2.8079335  
C    2.0663498    1.7338582    4.0032312  
C    0.9804344    0.8229586    3.6752840  
C    0.9495562    0.7966882    2.1971295  
N    1.8690446    1.5676019    1.6831036  
C    0.0000000    0.0000000    1.4700000  
C   -0.8785127   -0.7372425    2.1869543  
O   -1.8187535   -1.5261249    1.6395491  
C   -0.8723269   -0.7321790    3.6796354  
O   -1.7010379   -1.4274584    4.2670412  
C    0.1115397    0.0933559    4.4024240  
H    2.4028853    2.0163452    4.9860947  
H   -2.2861435   -1.9184361    2.3990168  
H    0.0832434    0.0693689    5.4835595  
H    3.3664920    2.8238276    2.6198634  
