62

C    3.3041279    0.0001173   -1.5420428  
C    2.5845377   -0.0004782   -0.3695853  
C    1.2040010   -0.0000010   -0.7283587  
C    1.1422381    0.0006033   -2.1454372  
N    2.4348648    0.0026105   -2.6077464  
C   -0.0655169    0.0008790   -2.8497923  
C   -1.2321763    0.0002319   -2.1101406  
O   -2.4392806    0.0001140   -2.7472532  
C   -1.1911206   -0.0000009   -0.6955270  
O   -2.4371521   -0.0002323   -0.1032874  
C    0.0000000    0.0000000    0.0000000  
H    3.0031537   -0.0000658    0.6222585  
H   -0.1193540    0.0014836   -3.9297475  
H   -3.1132985   -0.0000652   -2.0551794  
H   -2.3200278   -0.0004074    0.8516403  
H    4.3686629    0.0004068   -1.7024288  
C    5.6587039   -2.1482573   -4.5997623  
C    5.5107214   -1.7555988   -5.8864245  
C    4.3729234   -0.8490966   -5.8734390  
C    3.9446812   -0.8087295   -4.4586731  
N    4.6947126   -1.5682541   -3.7072977  
C    2.8310674   -0.0116226   -4.0232751  
C    2.1753258    0.7125517   -4.9586407  
O    1.1191542    1.5001776   -4.6937098  
C    2.5836187    0.6930786   -6.3942860  
O    1.9410889    1.3768916   -7.1910144  
C    3.7292197   -0.1325936   -6.8159356  
H    6.1008504   -2.0452555   -6.7390216  
H    0.8721725    1.8818754   -5.5553703  
H    3.9932675   -0.1192719   -7.8649025  
C    7.6480901   -3.7048825   -4.7602199  
C    6.6614042   -3.0681555   -4.0436333  
C    6.8059072   -3.4747493   -2.6840745  
C    7.9070246   -4.3673245   -2.6313762  
N    8.3940950   -4.4864376   -3.9093397  
C    8.3387227   -4.9664988   -1.4441878  
C    7.6464233   -4.6587858   -0.2891068  
O    8.0258729   -5.2156262    0.8978902  
C    6.5449698   -3.7707708   -0.3214555  
O    5.9598308   -3.5658197    0.9110020  
C    6.1183675   -3.1795150   -1.4923324  
H    9.1822780   -5.0462508   -4.1801872  
H    9.1771299   -5.6477348   -1.3973756  
H    7.4188643   -4.8728522    1.5667038  
H    5.2250946   -2.9545414    0.8009784  
H    5.2713453   -2.5035015   -1.4861206  
H    7.8778369   -3.6644790   -5.8111927  
C    2.3971438    2.0127888    3.1728260  
C    1.9431056    1.6308205    1.9564670  
C    0.8496017    0.7127664    2.2356185  
C    0.7794028    0.6545384    3.7115134  
N    1.6840587    1.4146091    4.2663826  
C   -0.1885723   -0.1578550    4.3957118  
C   -1.0476298   -0.8789867    3.6398520  
O   -2.0015663   -1.6796266    4.1448486  
C   -1.0022026   -0.8410666    2.1483229  
O   -1.8147390   -1.5232959    1.5241687  
C    0.0000000    0.0000000    1.4700000  
H    2.3054237    1.9346118    0.9892483  
H   -0.2170646   -0.1815267    5.4753125  
H   -2.4487139   -2.0549881    3.3649027  
H    3.2048689    2.6911772    3.3971983  
