58

C    3.3321174    0.0004717   -1.3379335  
C    2.6974184    0.0000121   -2.5332312  
C    1.2800440   -0.0002115   -2.2052839  
C    1.2395035    0.0000645   -0.7271295  
N    2.4394064    0.0005461   -0.2131037  
C    0.0000000    0.0000000    0.0000000  
C   -1.1468696    0.0000636   -0.7169542  
O   -2.3742199    0.0000073   -0.1695491  
C   -1.1388768    0.0001610   -2.2096354  
O   -2.2206230    0.0000908   -2.7970413  
C    0.1454524    0.0001820   -2.9324241  
H    3.1367989   -0.0000646   -3.5160945  
H   -2.9844342    0.0001027   -0.9290167  
C    7.0022000   -0.0017274   -3.8667536  
C    5.7010053   -0.0020352   -3.4946352  
C    5.7268792   -0.0004762   -2.0400467  
C    7.1642513    0.0005581   -1.6928521  
N    7.9166793   -0.0000882   -2.7595493  
C    7.6175799    0.0022644   -0.3291891  
C    6.6776998    0.0032973    0.6434145  
O    6.9577650    0.0049113    1.9577970  
C    5.2193465    0.0026668    0.3250322  
O    4.4197292    0.0035537    1.2608911  
C    4.7795904    0.0008677   -1.0815724  
H    4.8310668   -0.0030886   -4.1288924  
H    8.6741775    0.0027845   -0.1044374  
H    6.0879573    0.0053405    2.3966438  
H    7.4070887   -0.0025635   -4.8662728  
C    0.0950453    0.0004357   -4.4015596  
C    1.1321316    0.0004168   -5.2710601  
C    0.5164653    0.0007459   -6.5891856  
C   -0.9377766    0.0008260   -6.3212968  
N   -1.1909049    0.0007257   -5.0407056  
C   -1.9068825    0.0011813   -7.3823910  
C   -1.4442329    0.0018335   -8.6533316  
O   -2.2350187    0.0022179   -9.7399312  
C    0.0174462    0.0021426   -8.9560765  
O    0.3669318    0.0026149  -10.1363648  
C    0.9916323    0.0017243   -7.8502351  
H    2.1849034    0.0002958   -5.0457873  
H   -2.9634790    0.0010256   -7.1576397  
H   -1.6191307    0.0026809  -10.4948049  
H    2.0413910    0.0020825   -8.1114564  
C    0.0000000    0.0000000    1.4700000  
C    1.0541688    0.0001722    2.3260392  
C    0.5103138    0.0000454    3.6635956  
C   -0.9576371   -0.0002459    3.5155732  
N   -1.2018458    0.0001392    2.1615969  
C   -1.8348311   -0.0008317    4.5510609  
C   -1.2972847   -0.0009736    5.9014604  
O   -2.0050672   -0.0014265    6.9001319  
C    0.2542623   -0.0004184    6.0817573  
O    0.7184670   -0.0002256    7.2139121  
C    1.0974552   -0.0000873    4.8889129  
H    2.0940752    0.0005483    2.0517982  
H   -2.9081052   -0.0011668    4.4207061  
H    2.1707277    0.0000911    5.0223670  
H   -2.1128194   -0.0014912    1.7406791  
