58

C   -4.4924712    2.0950387   -0.2442175  
C   -3.4157277    1.6323171   -0.9302107  
C   -3.9167331    0.7362618   -1.9455501  
C   -5.3841441    0.7147474   -1.7937834  
N   -5.6689491    1.5587231   -0.7452222  
C   -6.2266191   -0.0146655   -2.5683132  
C   -5.6495861   -0.8333370   -3.6215680  
O   -6.3243554   -1.5259647   -4.3720698  
C   -4.0978601   -0.8259951   -3.8001700  
O   -3.6005728   -1.5115246   -4.6833543  
C   -3.2941076    0.0012878   -2.9038237  
H   -2.3878033    1.8892261   -0.7458683  
H   -7.3001859   -0.0161870   -2.4403980  
H   -6.5897791    1.7563628   -0.3987286  
C   -4.5374996    3.0326345    0.8870589  
C   -3.5132257    3.6621752    1.5184201  
C   -4.0961538    4.4721672    2.5619450  
C   -5.5544516    4.2613829    2.4862547  
N   -5.7563674    3.3787615    1.4503492  
C   -6.4602724    4.8519823    3.3062444  
C   -5.9659461    5.7557185    4.3316408  
O   -6.7018268    6.3363425    5.1188240  
C   -4.4253520    5.9939047    4.4298346  
O   -3.9974535    6.7528932    5.2889620  
C   -3.5485738    5.3000544    3.4897902  
H   -2.4685588    3.5698276    1.2801843  
H   -7.5258014    4.6836620    3.2339520  
H   -2.4831295    5.4702316    3.5645678  
H   -6.6511590    3.0369632    1.1510668  
C    0.0000000    0.0000000    0.0000000  
C    1.0541688   -0.0001723   -0.8560392  
C    0.5103136   -0.0000455   -2.1935956  
C   -0.9576373    0.0002461   -2.0455730  
N   -1.2018460   -0.0001389   -0.6915968  
C   -1.8348314    0.0008319   -3.0810607  
C   -1.2972851    0.0009739   -4.4314603  
O   -2.0050676    0.0014268   -5.4301316  
C    0.2542619    0.0004184   -4.6117572  
O    0.7184666    0.0002257   -5.7439122  
C    1.0974551    0.0000873   -3.4189129  
H    2.0940752   -0.0005484   -0.5817983  
H    2.1707276   -0.0000912   -3.5523673  
H   -2.1128194    0.0014915   -0.2706789  
C    0.0000000    0.0000000    1.4700000  
C    1.0662921    0.0000102    2.3034270  
C    0.4961870   -0.0000064    3.6418889  
C   -0.9663858    0.0000850    3.4240247  
N   -1.2632773    0.0000084    2.1528658  
C   -1.8985362    0.0000517    4.5177257  
C   -1.3925775   -0.0004564    5.7720543  
O   -2.1456383   -0.0005410    6.8851312  
C    0.0786232   -0.0009323    6.0245000  
O    0.4683759   -0.0012588    7.1921102  
C    1.0143166   -0.0008442    4.8859032  
H    2.1107198   -0.0000632    2.0421868  
H   -2.9622183    0.0003270    4.3293377  
H   -1.5042274   -0.0009692    7.6184419  
H    2.0724152   -0.0013148    5.1109744  
