62

C    1.1243402    0.0100689   -0.7919007  
C    0.7474053    0.0235052   -2.1148548  
C   -0.6787403    0.0234026   -2.1414698  
C   -1.1201753    0.0097828   -0.7935546  
N    0.0000000    0.0000000    0.0000000  
C   -2.4730829    0.0062023   -0.4408232  
C   -3.3971971    0.0168662   -1.4675058  
O   -4.7313532    0.0143033   -1.1793458  
C   -2.9763678    0.0301476   -2.8186313  
O   -4.0166516    0.0392378   -3.7247615  
C   -1.6418599    0.0334139   -3.1673478  
H   -2.8160155   -0.0043031    0.5845969  
H   -5.1938842    0.0227325   -2.0274367  
H   -3.6464717    0.0479802   -4.6127334  
H   -1.3497512    0.0434945   -4.2109229  
H    2.1062459    0.0054255   -0.3505413  
C    4.5591040   -2.0908367   -2.8627791  
C    4.8002487   -1.5799956   -4.1171146  
C    3.7183613   -0.7026895   -4.4244489  
C    2.8404238   -0.7184132   -3.3104903  
N    3.3797220   -1.5727930   -2.3810763  
C    1.6628917    0.0340035   -3.2649306  
C    1.3663827    0.8167827   -4.3638010  
O    0.2292580    1.5716967   -4.3719361  
C    2.2296355    0.8455015   -5.4848660  
O    1.7956875    1.6734903   -6.4994928  
C    3.3913290    0.1032736   -5.5306120  
H    2.9827848   -1.7777778   -1.4819636  
H    0.2145592    2.0340902   -5.2200169  
H    2.4347302    1.6351441   -7.2176555  
H    4.0327708    0.1454529   -6.4031093  
H    5.1343445   -2.7848405   -2.2742080  
C    7.1320687   -5.2611841   -5.0530141  
C    6.2046308   -4.4307172   -4.5221999  
C    6.5047254   -3.1237485   -5.0863594  
C    7.6753713   -3.3546856   -5.9597668  
N    8.0475767   -4.6057711   -5.9443368  
C    8.2861630   -2.2921835   -6.7101727  
C    7.7515347   -1.0552794   -6.5936543  
O    8.2197600    0.0283269   -7.2359967  
C    6.5700953   -0.7903744   -5.7206221  
O    6.1362017    0.3600922   -5.6624584  
C    5.9614858   -1.8968882   -4.9609203  
H    5.4144014   -4.6748966   -3.8330053  
H    9.1409490   -2.4894839   -7.3405079  
H    7.6361544    0.7554734   -6.9534799  
H    7.2504025   -6.3196047   -4.8835543  
C    0.0000000    0.0000000    1.4700000  
C    1.0662921    0.0000102    2.3034270  
C    0.4961870   -0.0000064    3.6418889  
C   -0.9663858    0.0000850    3.4240247  
N   -1.2632773    0.0000084    2.1528658  
C   -1.8985362    0.0000517    4.5177257  
C   -1.3925775   -0.0004564    5.7720543  
O   -2.1456383   -0.0005410    6.8851312  
C    0.0786232   -0.0009323    6.0245000  
O    0.4683759   -0.0012588    7.1921102  
C    1.0143166   -0.0008442    4.8859032  
H    2.1107198   -0.0000632    2.0421868  
H   -2.9622183    0.0003270    4.3293377  
H   -1.5042274   -0.0009692    7.6184419  
H    2.0724152   -0.0013148    5.1109744  
