58

C    3.3321166    0.0004714   -1.3379344  
C    2.6974168    0.0000116   -2.5332317  
C    1.2800427   -0.0002119   -2.2052842  
C    1.2395030    0.0000643   -0.7271295  
N    2.4394059    0.0005460   -0.2131038  
C    0.0000000    0.0000000    0.0000000  
C   -1.1468706    0.0000634   -0.7169528  
O   -2.3742202    0.0000071   -0.1695480  
C   -1.1388777    0.0001605   -2.2096346  
O   -2.2206248    0.0000900   -2.7970393  
C    0.1454507    0.0001813   -2.9324238  
H   -2.9844350    0.0001025   -0.9290149  
H    0.1083554    0.0003680   -4.0135588  
H    4.3940030    0.0007619   -1.1498648  
C    6.1837835   -2.0089286   -4.4499602  
C    5.2722818   -1.6276453   -3.5251001  
C    4.3865201   -0.7114700   -4.2269180  
C    4.9246822   -0.6534666   -5.6029996  
N    5.9781767   -1.4120392   -5.7397758  
C    4.3189868    0.1572325   -6.6232873  
C    3.2251523    0.8769576   -6.2843821  
O    2.5591558    1.6759399   -7.1353328  
C    2.6579640    0.8392212   -4.9041524  
O    1.6604105    1.5201138   -4.6664700  
C    3.2973484   -0.0000933   -3.8752387  
H    5.2087765   -1.9307520   -2.4939987  
H    1.8320619    2.0505970   -6.6060695  
H    7.0137814   -2.6859600   -4.3246365  
C    5.9643101   -3.0611252   -9.0569233  
C    6.3145434   -2.4104473  -10.1907371  
C    5.9471706   -1.0225804   -9.9554458  
C    5.3732566   -1.0148496   -8.5926742  
N    5.3807191   -2.2069769   -8.0609169  
C    4.8831199    0.1892744   -7.9803532  
C    4.9630577    1.3337232   -8.6967200  
O    4.5439691    2.5298040   -8.2497345  
C    5.5373439    1.3584091  -10.0743067  
O    5.5785321    2.4359124  -10.6680334  
C    6.0334072    0.1100631  -10.6805068  
H    6.7664682   -2.8214983  -11.0772339  
H    4.7316196    3.1469800   -8.9798264  
H    6.4421619    0.1701722  -11.6802753  
H    6.0731910   -4.1103381   -8.8327132  
C    2.3971438    2.0127888    3.1728260  
C    1.9431056    1.6308205    1.9564670  
C    0.8496017    0.7127664    2.2356185  
C    0.7794028    0.6545384    3.7115134  
N    1.6840587    1.4146091    4.2663826  
C   -0.1885723   -0.1578550    4.3957118  
C   -1.0476298   -0.8789867    3.6398520  
O   -2.0015663   -1.6796266    4.1448486  
C   -1.0022026   -0.8410666    2.1483229  
O   -1.8147390   -1.5232959    1.5241687  
C    0.0000000    0.0000000    1.4700000  
H    2.3054237    1.9346118    0.9892483  
H   -0.2170646   -0.1815267    5.4753125  
H   -2.4487139   -2.0549881    3.3649027  
H    3.2048689    2.6911772    3.3971983  
