58

C    3.2798084    0.0005856   -1.4499646  
C    2.5571146    0.0005565   -2.5996554  
C    1.1637432    0.0001549   -2.2210359  
C    1.1336965   -0.0000200   -0.7459469  
N    2.4483512   -0.0001430   -0.3402718  
C    0.0000000    0.0000000    0.0000000  
C   -1.2757379   -0.0000186   -0.6964418  
O   -2.3524596   -0.0000639   -0.1142315  
C   -1.2676492   -0.0000872   -2.2584081  
O   -2.3355757   -0.0004100   -2.8557297  
C    0.0181563    0.0001760   -2.9516295  
H    2.9547353    0.0006075   -3.5989101  
H    0.0150791    0.0003320   -4.0331628  
H    2.7563624    0.0012823    0.6148064  
C    6.6317391   -0.0005811   -4.3241584  
C    5.4016591   -0.0005061   -3.7488512  
C    5.6054526    0.0003362   -2.3194101  
C    7.0655612    0.0007779   -2.1075767  
N    7.6303558   -0.0002120   -3.3621268  
C    7.6659171    0.0019860   -0.8904999  
C    6.8173806    0.0026870    0.2895510  
O    7.2622811    0.0037194    1.4298859  
C    5.2683490    0.0019842    0.0887900  
O    4.5438176    0.0022581    1.0748502  
C    4.7390846    0.0009613   -1.2727276  
H    4.4591041   -0.0011684   -4.2667345  
H    6.8927447   -0.0010918   -5.3699913  
H    8.6161411    0.0013557   -3.5499358  
C   10.8729997    2.1089614   -3.0255917  
C   11.9457298    1.6453410   -2.3339409  
C   11.4385340    0.7506920   -1.3204360  
C    9.9718696    0.7309373   -1.4794829  
N    9.6932970    1.5751226   -2.5295483  
C    9.1246829    0.0025768   -0.7091124  
C    9.6954600   -0.8163907    0.3473159  
O    9.0161284   -1.5080476    1.0945908  
C   11.2462474   -0.8105166    0.5339429  
O   11.7382405   -1.4958381    1.4202489  
C   12.0554833    0.0152879   -0.3588264  
H   12.9748594    1.9010507   -2.5131517  
H   13.1284736    0.0136272   -0.2231316  
H   10.8449897    2.7958680   -3.8558111  
H    8.7746859    1.7714473   -2.8826172  
C    0.0000000    0.0000000    1.4700000  
C    1.0662921    0.0000102    2.3034270  
C    0.4961870   -0.0000064    3.6418889  
C   -0.9663858    0.0000850    3.4240247  
N   -1.2632773    0.0000084    2.1528658  
C   -1.8985362    0.0000517    4.5177257  
C   -1.3925775   -0.0004564    5.7720543  
O   -2.1456383   -0.0005410    6.8851312  
C    0.0786232   -0.0009323    6.0245000  
O    0.4683759   -0.0012588    7.1921102  
C    1.0143166   -0.0008442    4.8859032  
H    2.1107198   -0.0000632    2.0421868  
H   -2.9622183    0.0003270    4.3293377  
H   -1.5042274   -0.0009692    7.6184419  
H    2.0724152   -0.0013148    5.1109744  
