60

C    3.3003546    0.0005277   -1.4738988  
C    2.5232816    0.0003498   -2.6090750  
C    1.1623201   -0.0001319   -2.1820101  
C    1.1711885    0.0000582   -0.7636141  
N    2.4852302   -0.0014917   -0.3662354  
C    0.0000000    0.0000000    0.0000000  
C   -1.2020384    0.0000519   -0.6806477  
O   -2.3759248    0.0003493    0.0157747  
C   -1.2314656   -0.0005113   -2.0955507  
O   -2.5054388   -0.0008039   -2.6250181  
C   -0.0764515   -0.0007273   -2.8495192  
H    2.8919956   -0.0005619   -3.6205299  
H    2.8036266    0.0088182    0.5858661  
H   -3.0835638    0.0000345   -0.6418814  
H   -2.4360043   -0.0011529   -3.5845921  
H    4.3715550    0.0004896   -1.3667133  
C    2.2883739   -2.1096670   -5.8898009  
C    1.6780811   -1.6459105   -7.0107594  
C    0.6304148   -0.7505695   -6.5799512  
C    0.6807528   -0.7305571   -5.1055511  
N    1.7068949   -1.5752689   -4.7500461  
C   -0.1496413   -0.0015613   -4.3176959  
C   -1.1605697    0.8178670   -4.9650724  
O   -1.9555596    1.5101064   -4.3429013  
C   -1.2321937    0.8117308   -6.5254047  
O   -2.0793585    1.4974358   -7.0816262  
C   -0.2825931   -0.0147691   -7.2663564  
H   -0.3386961   -0.0132860   -8.3464369  
H    3.1138609   -2.7970353   -5.8004373  
H    1.9910640   -1.7715753   -3.8078370  
C    2.8602542   -5.4492192   -8.9169967  
C    2.4824356   -4.4917444   -8.0312370  
C    2.3671622   -3.2566014   -8.7701338  
C    2.7112329   -3.5752685  -10.1690108  
N    3.0006271   -4.9201315  -10.1910064  
C    2.7205114   -2.6734679  -11.1830988  
C    2.3683199   -1.2971113  -10.8762800  
O    2.3473813   -0.4108960  -11.7203676  
C    2.0007360   -0.9370727   -9.4014717  
O    1.7028260    0.2185190   -9.1310662  
C    2.0260221   -1.9959006   -8.3954416  
H    2.3049431   -4.6343956   -6.9801606  
H    2.9758152   -2.9279897  -12.2023878  
H    3.0481599   -6.4967923   -8.7461985  
H    3.2701194   -5.4379809  -11.0072502  
C    2.5528530    2.1414826    2.8079335  
C    2.0663498    1.7338582    4.0032312  
C    0.9804344    0.8229586    3.6752840  
C    0.9495562    0.7966882    2.1971295  
N    1.8690446    1.5676019    1.6831036  
C    0.0000000    0.0000000    1.4700000  
C   -0.8785127   -0.7372425    2.1869543  
O   -1.8187535   -1.5261249    1.6395491  
C   -0.8723269   -0.7321790    3.6796354  
O   -1.7010379   -1.4274584    4.2670412  
C    0.1115397    0.0933559    4.4024240  
H    2.4028853    2.0163452    4.9860947  
H   -2.2861435   -1.9184361    2.3990168  
H    0.0832434    0.0693689    5.4835595  
H    3.3664920    2.8238276    2.6198634  
