58

C    1.1319247    0.0015672   -0.8009268  
C    0.7969918    0.0034953   -2.1169401  
C   -0.6453339    0.0035696   -2.1842671  
C   -1.1266833    0.0015413   -0.7896028  
N    0.0000000    0.0000000    0.0000000  
C   -2.4346131    0.0013924   -0.4276296  
C   -3.4350115    0.0031349   -1.4820181  
O   -4.6384612    0.0030897   -1.2583917  
C   -2.9478958    0.0050454   -2.9661077  
O   -3.7809379    0.0062151   -3.8623778  
C   -1.5113824    0.0053060   -3.2312123  
H    1.4821237    0.0045428   -2.9459193  
H   -2.7664566    0.0000186    0.6013444  
H    2.1104318    0.0009426   -0.3488058  
C    1.7411999   -1.9992951   -5.5261467  
C    0.9379143   -1.6197493   -4.5052370  
C   -0.0205729   -0.7029843   -5.1030198  
C    0.3614474   -0.6427736   -6.5302614  
N    1.3934676   -1.4006646   -6.7842801  
C   -0.3540361    0.1690980   -7.4757952  
C   -1.4036916    0.8878354   -7.0164749  
O   -2.1602966    1.6877211   -7.7870411  
C   -1.8141040    0.8478723   -5.5818582  
O   -2.7793015    1.5279657   -5.2338823  
C   -1.0641735    0.0073886   -4.6315339  
H    0.9893834   -1.9243529   -3.4739062  
H   -2.8242388    2.0612889   -7.1797676  
H    2.5801840   -2.6761212   -5.4947512  
C    0.4744587   -0.8277371   -9.6573171  
C    0.0559137    0.2033323   -8.8870601  
C    0.0978942    1.3656028   -9.7610538  
C    0.5778037    0.8400888  -11.0572429  
N    0.8001515   -0.4450414  -11.0025470  
C    0.7579886    1.6889788  -12.2026709  
C    0.4713883    3.0030516  -12.0598145  
O    0.5935149    3.9092705  -13.0446459  
C   -0.0151079    3.5635789  -10.7647113  
O   -0.2563404    4.7692633  -10.7068126  
C   -0.1917746    2.6723432   -9.6043612  
H    1.1102597    1.2780668  -13.1375324  
H    0.3176985    4.7522245  -12.6415251  
H   -0.5462212    3.1172469   -8.6842204  
H    0.5843448   -1.8635240   -9.3779535  
C    0.0000000    0.0000000    1.4700000  
C    1.0662921    0.0000102    2.3034270  
C    0.4961870   -0.0000064    3.6418889  
C   -0.9663858    0.0000850    3.4240247  
N   -1.2632773    0.0000084    2.1528658  
C   -1.8985362    0.0000517    4.5177257  
C   -1.3925775   -0.0004564    5.7720543  
O   -2.1456383   -0.0005410    6.8851312  
C    0.0786232   -0.0009323    6.0245000  
O    0.4683759   -0.0012588    7.1921102  
C    1.0143166   -0.0008442    4.8859032  
H    2.1107198   -0.0000632    2.0421868  
H   -2.9622183    0.0003270    4.3293377  
H   -1.5042274   -0.0009692    7.6184419  
H    2.0724152   -0.0013148    5.1109744  
