62

C    3.3003547    0.0005275   -1.4738980  
C    2.5232816    0.0003495   -2.6090742  
C    1.1623206   -0.0001320   -2.1820096  
C    1.1711889    0.0000583   -0.7636136  
N    2.4852300   -0.0014920   -0.3662353  
C    0.0000000    0.0000000    0.0000000  
C   -1.2020382    0.0000519   -0.6806479  
O   -2.3759247    0.0003494    0.0157745  
C   -1.2314650   -0.0005113   -2.0955508  
O   -2.5054383   -0.0008037   -2.6250181  
C   -0.0764510   -0.0007273   -2.8495192  
H    2.8919962   -0.0005621   -3.6205295  
H    2.8036265    0.0088181    0.5858667  
H   -3.0835641    0.0000347   -0.6418820  
H   -2.4360047   -0.0011529   -3.5845921  
C    4.7630506    0.0004754   -1.3275394  
C    5.6985008    0.0014502   -2.3055536  
C    6.9735500    0.0008548   -1.6050193  
C    6.6111495   -0.0004096   -0.1714057  
N    5.3167471   -0.0007180   -0.0025511  
C    7.6066070   -0.0013506    0.8650055  
C    8.9050784   -0.0014315    0.4864460  
O    9.9376473   -0.0022575    1.3465867  
C    9.3027482   -0.0005447   -0.9523097  
O   10.5033618   -0.0005492   -1.2238745  
C    8.2629700    0.0004560   -1.9967163  
H    5.5425459    0.0023597   -3.3708017  
H    7.3132513   -0.0020603    1.9046454  
H   10.7311754   -0.0021137    0.7813735  
H    8.5922707    0.0009637   -3.0271484  
C    2.3338141   -2.1434184   -5.7798768  
C    1.7883286   -1.7365457   -6.9496967  
C    0.7199257   -0.8256236   -6.5685990  
C    0.7626769   -0.7985191   -5.0907552  
N    1.7067554   -1.5690026   -4.6227165  
C   -0.1496409   -0.0015614   -4.3176961  
C   -1.0628921    0.7351418   -4.9904330  
O   -1.9748529    1.5241932   -4.3973342  
C   -1.1310322    0.7292322   -6.4815671  
O   -1.9880859    1.4240534   -7.0273727  
C   -0.1842253   -0.0965645   -7.2519836  
H    2.0755614   -2.0195396   -7.9479388  
H   -2.4795466    1.9160029   -5.1328082  
H   -0.2663195   -0.0731952   -8.3303829  
H    3.1559296   -2.8255340   -5.6321685  
C    0.8576279    0.7185626    2.2703808  
C    0.0000000    0.0000000    1.4700000  
C   -0.8668858   -0.7285659    2.3373528  
C   -0.4876752   -0.4117774    3.6669281  
N    0.5635254    0.4678311    3.5902241  
C   -1.1297612   -0.9515493    4.7854808  
C   -2.1738724   -1.8268314    4.5576857  
O   -2.8357962   -2.3827064    5.6140350  
C   -2.5667212   -2.1555554    3.2384331  
O   -3.6226318   -3.0413663    3.1773122  
C   -1.9335634   -1.6236449    2.1344818  
H    1.0363952    0.8769718    4.3757045  
H   -0.8454472   -0.7142436    5.8013813  
H   -3.5178062   -2.9546422    5.2385129  
H   -3.8247440   -3.2102924    2.2519915  
H   -2.2566033   -1.8942483    1.1360343  
H    1.6567807    1.3889844    2.0042067  
