58

C    2.0060354   -2.0933383   -5.2079945  
C    1.0681402   -1.6309437   -4.3416125  
C    0.2140994   -0.7346502   -5.0846522  
C    0.7350363   -0.7126398   -6.4648444  
N    1.8215798   -1.5565851   -6.4731476  
C    0.2009228    0.0171136   -7.4767173  
C   -0.9646764    0.8356538   -7.1870526  
O   -1.5183200    1.5285628   -8.0306497  
C   -1.5330618    0.8277887   -5.7321706  
O   -2.5138748    1.5132038   -5.4762938  
C   -0.8712826    0.0001710   -4.7267111  
H    0.9842756   -1.8882189   -3.3007524  
H    0.5983678    0.0189967   -8.4821751  
H    2.3914344   -1.7539297   -7.2752499  
C    3.4083104   -3.6282170   -3.7804883  
C    3.1114194   -3.0309915   -4.9633881  
C    4.0851454   -3.4929095   -5.9242860  
C    4.9800567   -4.4148322   -5.1990399  
N    4.5160854   -4.4529766   -3.9043715  
C    6.0329485   -5.0631973   -5.7582772  
C    6.3029108   -4.8378201   -7.1685472  
O    7.2277242   -5.3750543   -7.7638623  
C    5.3681813   -3.8652672   -7.9560923  
O    5.5858179   -3.6674600   -9.1438489  
C    4.2648770   -3.2251426   -7.2441860  
H    6.6769725   -5.7354308   -5.2085090  
H    3.6221899   -2.5532981   -7.7967272  
H    2.9111693   -3.5350538   -2.8286161  
H    4.9188147   -4.9977692   -3.1640628  
C    1.0965514    0.0001359   -0.8010305  
C    0.0000000    0.0000000    0.0000000  
C   -1.1546563    0.0001470   -0.8669513  
C   -0.6372014    0.0003519   -2.2486282  
N    0.7342871    0.0007337   -2.1395014  
C   -1.4147739    0.0001352   -3.3608717  
C   -2.8576049   -0.0001048   -3.1854462  
O   -3.6427779   -0.0002494   -4.1244907  
C   -3.4275840   -0.0000725   -1.7311666  
O   -4.6406831    0.0000333   -1.5710060  
C   -2.4891867   -0.0001091   -0.6116744  
H   -2.8919122   -0.0002918    0.3920866  
H    2.1388272    0.0000663   -0.5261648  
H    1.3735872   -0.0006099   -2.9130262  
C    0.0000000    0.0000000    1.4700000  
C    1.0662921    0.0000102    2.3034270  
C    0.4961870   -0.0000064    3.6418889  
C   -0.9663858    0.0000850    3.4240247  
N   -1.2632773    0.0000084    2.1528658  
C   -1.8985362    0.0000517    4.5177257  
C   -1.3925775   -0.0004564    5.7720543  
O   -2.1456383   -0.0005410    6.8851312  
C    0.0786232   -0.0009323    6.0245000  
O    0.4683759   -0.0012588    7.1921102  
C    1.0143166   -0.0008442    4.8859032  
H    2.1107198   -0.0000632    2.0421868  
H   -2.9622183    0.0003270    4.3293377  
H   -1.5042274   -0.0009692    7.6184419  
H    2.0724152   -0.0013148    5.1109744  
