64

C    4.3849905   -2.1304615   -1.4422215  
C    3.1441142   -1.6666547   -1.8131358  
C    3.3426744   -0.7794829   -2.9122716  
C    4.7370041   -0.7414320   -3.1698022  
N    5.3406538   -1.5714192   -2.2580209  
C    5.2968245    0.0340161   -4.1896406  
C    4.4333178    0.7844924   -4.9637975  
O    4.9266816    1.5593202   -5.9733748  
C    3.0391174    0.7600316   -4.7220873  
O    2.3124330    1.5616238   -5.5780796  
C    2.4861704   -0.0045255   -3.7159919  
H    2.2107619   -1.9339278   -1.3479352  
H    6.3263284   -1.7542337   -2.2032057  
H    6.3586916    0.0674744   -4.3909404  
H    4.1660268    1.9934389   -6.3810646  
H    1.3814038    1.4876309   -5.3471834  
C    4.7661116   -3.0647837   -0.3732557  
C    3.9845504   -3.7293700    0.5432348  
C    4.8632577   -4.5095953    1.3517654  
C    6.1800728   -4.2784948    0.8779334  
N    6.0849787   -3.3980203   -0.1710372  
C    7.3048894   -4.8866987    1.4433210  
C    7.0966239   -5.7435759    2.5066006  
O    8.1599014   -6.3638678    3.0962568  
C    5.7902952   -5.9872129    2.9933898  
O    5.7481247   -6.8651341    4.0567896  
C    4.6801489   -5.3877606    2.4359327  
H    2.9128182   -3.6611534    0.6189291  
H    6.8593540   -3.0404750   -0.7006465  
H    8.3111245   -4.7148448    1.0867263  
H    7.7981410   -6.9094140    3.8067297  
H    4.8305724   -6.9746602    4.3245695  
H    3.6919224   -5.5938700    2.8301491  
C    0.0000000    0.0000000    0.0000000  
C    1.0521669   -0.0011848   -0.8862341  
C    0.4917221   -0.0011931   -2.1979130  
C   -0.9187427    0.0003100   -2.0478683  
N   -1.1833170   -0.0009472   -0.7007915  
C   -1.7951698    0.0010259   -3.1372090  
C   -1.2375835    0.0005161   -4.4010425  
O   -2.0474208    0.0015256   -5.4997580  
C    0.1673584   -0.0013557   -4.5711962  
O    0.5673529   -0.0020659   -5.8915551  
C    1.0325773   -0.0023359   -3.4969890  
H    2.0953059   -0.0030542   -0.6200560  
H   -2.0989777    0.0102265   -0.2891825  
H   -2.8710930    0.0020274   -3.0295514  
H   -1.4634881    0.0006427   -6.2693593  
H    1.5290715   -0.0033076   -5.9180042  
C    3.3321173   -0.0004715    2.8079335  
C    2.6974184   -0.0000116    4.0032312  
C    1.2800439    0.0002118    3.6752840  
C    1.2395035   -0.0000644    2.1971295  
N    2.4394063   -0.0005460    1.6831036  
C    0.0000000    0.0000000    1.4700000  
C   -1.1468701   -0.0000635    2.1869543  
O   -2.3742202   -0.0000073    1.6395491  
C   -1.1388768   -0.0001607    3.6796354  
O   -2.2206231   -0.0000905    4.2670412  
C    0.1454524   -0.0001816    4.4024240  
H    3.1367986    0.0000651    4.9860947  
H   -2.9844344   -0.0001026    2.3990168  
H    0.1083576   -0.0003682    5.4835595  
H    4.3940039   -0.0007619    2.6198634  
