58

C   -4.7390836   -0.0007821   -1.2727314  
C   -5.7159776   -0.0014981   -2.2159985  
C   -6.9782049   -0.0014788   -1.5148437  
C   -6.6542737   -0.0006580   -0.0754484  
N   -5.2807307   -0.0006651    0.0037318  
C   -7.5764455   -0.0000010    0.9201933  
C   -8.9818051   -0.0003356    0.5493841  
O   -9.8878550    0.0001392    1.3724116  
C   -9.3478539   -0.0014556   -0.9691060  
O  -10.5277180   -0.0020525   -1.2934220  
C   -8.2653741   -0.0018121   -1.9499672  
H   -5.5691172   -0.0021666   -3.2813833  
H   -7.3176385    0.0007260    1.9699210  
H   -4.7530492    0.0013655    0.8573100  
C   -3.2798074   -0.0004616   -1.4499673  
C   -2.5571125   -0.0004597   -2.5996572  
C   -1.1637415   -0.0001106   -2.2210371  
C   -1.1336953    0.0000629   -0.7459477  
N   -2.4483509    0.0002354   -0.3402738  
C    0.0000000    0.0000000    0.0000000  
C    1.2757374   -0.0000294   -0.6964407  
O    2.3524604   -0.0000248   -0.1142297  
C    1.2676514    0.0000396   -2.2584074  
O    2.3355787    0.0003221   -2.8557280  
C   -0.0181534   -0.0001750   -2.9516298  
H   -2.9547331   -0.0004956   -3.5989125  
H   -0.0150763   -0.0003310   -4.0331629  
H   -2.7563630   -0.0011782    0.6148043  
C   -6.4681673   -2.1448237   -5.2913810  
C   -7.2296666   -1.7378214   -6.3335165  
C   -8.2039581   -0.8267289   -5.7528564  
C   -7.8760001   -0.7996775   -4.3112266  
N   -6.8593238   -1.5703366   -4.0347435  
C   -8.6213196   -0.0025882   -3.3762218  
C   -9.6473730    0.7342918   -3.8594984  
O  -10.4271718    1.5234804   -3.1011211  
C  -10.0028085    0.7284401   -5.3092542  
O  -10.9491695    1.4234245   -5.6788746  
C   -9.2231453   -0.0974943   -6.2483401  
H   -7.1411053   -2.0208336   -7.3684738  
H  -11.0645936    1.9153990   -3.7250173  
H   -9.5123883   -0.0740775   -7.2904632  
H   -5.6331265   -2.8270842   -5.3055694  
C    2.5528530    2.1414826    2.8079335  
C    2.0663498    1.7338582    4.0032312  
C    0.9804344    0.8229586    3.6752840  
C    0.9495562    0.7966882    2.1971295  
N    1.8690446    1.5676019    1.6831036  
C    0.0000000    0.0000000    1.4700000  
C   -0.8785127   -0.7372425    2.1869543  
O   -1.8187535   -1.5261249    1.6395491  
C   -0.8723269   -0.7321790    3.6796354  
O   -1.7010379   -1.4274584    4.2670412  
C    0.1115397    0.0933559    4.4024240  
H    2.4028853    2.0163452    4.9860947  
H   -2.2861435   -1.9184361    2.3990168  
H    0.0832434    0.0693689    5.4835595  
H    3.3664920    2.8238276    2.6198634  
