62

C    1.9074108   -2.1157071   -5.2171227  
C    1.7366759   -1.6153236   -6.4871358  
C    0.6103634   -0.7412451   -6.4423316  
C    0.1310749   -0.7480684   -5.1073554  
N    0.9400192   -1.5942807   -4.3903116  
C   -0.9736295    0.0040468   -4.6965766  
C   -1.6058296    0.7773685   -5.6507644  
O   -2.6892488    1.5315503   -5.3037408  
C   -1.1427630    0.7971182   -6.9879240  
O   -1.8787350    1.6162806   -7.8189838  
C   -0.0531714    0.0551810   -7.3939361  
H    2.3479773   -1.8521280   -7.3410840  
H    0.8493706   -1.7919003   -3.4101532  
H   -2.9736266    1.9867696   -6.1069657  
H   -1.5003145    1.5722389   -8.7024219  
H    0.2783215    0.0903622   -8.4251261  
C    1.1188643    0.0008216   -0.8003809  
C    0.0000000    0.0000000    0.0000000  
C   -1.1323859    0.0008902   -0.8673534  
C   -0.6382663    0.0019683   -2.1969282  
N    0.7324018    0.0038479   -2.1202245  
C   -1.4770913    0.0027324   -3.3154811  
C   -2.8395474    0.0020957   -3.0876860  
O   -3.7039199    0.0024440   -4.1440352  
C   -3.3517864    0.0013942   -1.7684335  
O   -4.7300497    0.0012384   -1.7073125  
C   -2.5248543    0.0009134   -0.6644818  
H    1.3576316   -0.0056173   -2.9057049  
H   -4.5940034    0.0021845   -3.7685132  
H   -4.9934602    0.0007278   -0.7819917  
H   -2.9462578    0.0005613    0.3339657  
H    2.1619898    0.0009348   -0.5342072  
C    5.3653647   -4.3399581   -6.9375022  
C    4.2900422   -3.5253795   -6.8292300  
C    3.8905353   -3.6151624   -5.4332236  
C    4.8600362   -4.5532413   -4.8276994  
N    5.7270409   -4.9813584   -5.7046306  
C    4.8047746   -4.9121872   -3.4373069  
C    3.8257321   -4.3588355   -2.6859000  
O    3.6557687   -4.6042993   -1.3755943  
C    2.8325570   -3.4084756   -3.2677771  
O    1.9683502   -2.9432414   -2.5248614  
C    2.9102474   -3.0561023   -4.6966657  
H    3.8253874   -2.9362629   -7.6013139  
H    5.5260899   -5.6003846   -3.0213758  
H    2.8824830   -4.0690150   -1.1213238  
H    5.9543883   -4.5489428   -7.8163360  
C    2.3971438    2.0127888    3.1728260  
C    1.9431056    1.6308205    1.9564670  
C    0.8496017    0.7127664    2.2356185  
C    0.7794028    0.6545384    3.7115134  
N    1.6840587    1.4146091    4.2663826  
C   -0.1885723   -0.1578550    4.3957118  
C   -1.0476298   -0.8789867    3.6398520  
O   -2.0015663   -1.6796266    4.1448486  
C   -1.0022026   -0.8410666    2.1483229  
O   -1.8147390   -1.5232959    1.5241687  
C    0.0000000    0.0000000    1.4700000  
H    2.3054237    1.9346118    0.9892483  
H   -0.2170646   -0.1815267    5.4753125  
H   -2.4487139   -2.0549881    3.3649027  
H    3.2048689    2.6911772    3.3971983  
