58

C    3.2573672   -0.0002919   -1.5109385  
C    2.5379469   -0.0001709   -0.3591960  
C    1.1435042    0.0000332   -0.7338501  
C    1.1092609   -0.0000081   -2.2088478  
N    2.4227564    0.0001910   -2.6182612  
C   -0.0265531   -0.0002522   -2.9515666  
C   -1.3003034   -0.0002639   -2.2514984  
O   -2.3786783   -0.0004131   -2.8306432  
C   -1.2877725    0.0000312   -0.6895615  
O   -2.3539954    0.0003306   -0.0892041  
C    0.0000000    0.0000000    0.0000000  
H    2.9384086   -0.0000368    0.6389241  
H    4.3270398   -0.0004763   -1.6439447  
H    2.7280492   -0.0013405   -3.5742116  
C   -0.0307350   -0.0004644   -4.4215608  
C    1.0331817   -0.0004856   -5.2580176  
C    0.4592712   -0.0007208   -6.5948523  
C   -1.0026758   -0.0009309   -6.3728279  
N   -1.2959498   -0.0007011   -5.1008299  
C   -1.9379339   -0.0011512   -7.4638727  
C   -1.4355456   -0.0007723   -8.7196355  
O   -2.1917698   -0.0009257   -9.8305658  
C    0.0349309   -0.0001819   -8.9762659  
O    0.4213604    0.0000160  -10.1449798  
C    0.9738596   -0.0000095   -7.8403358  
H    2.0783489   -0.0002673   -4.9997497  
H   -1.5524478   -0.0005376  -10.5656982  
H    2.0313134    0.0005372   -8.0684163  
C   -3.3846720   -0.0016373   -7.2033949  
C   -4.0159680   -0.0019755   -6.0062964  
C   -5.4342697   -0.0023958   -6.3302102  
C   -5.4790149   -0.0021326   -7.8082430  
N   -4.2805793   -0.0017686   -8.3256810  
C   -6.7205813   -0.0024640   -8.5318441  
C   -7.8654071   -0.0034214   -7.8116304  
O   -9.0943095   -0.0038228   -8.3555416  
C   -7.8531678   -0.0040812   -6.3189780  
O   -8.9332386   -0.0048204   -5.7284977  
C   -6.5667880   -0.0036804   -5.5998459  
H   -3.5737935   -0.0020338   -5.0246866  
H   -6.7236545   -0.0020538   -9.6120751  
H   -9.7023606   -0.0045373   -7.5943412  
H   -6.6008067   -0.0042976   -4.5186098  
C    0.8175213    0.6860729    2.3021913  
C    0.0000000    0.0000000    1.4700000  
C   -0.8887526   -0.7456559    2.3478473  
C   -0.4549825   -0.3816753    3.7138435  
N    0.5448156    0.4573574    3.6934124  
C   -1.0945674   -0.9182058    4.8835240  
C   -2.1210866   -1.7789155    4.6970523  
O   -2.8083856   -2.3554314    5.6976972  
C   -2.5824069   -2.1655116    3.3310774  
O   -3.5227682   -2.9541547    3.2362962  
C   -1.9100805   -1.6015804    2.1470656  
H   -0.7567140   -0.6349833    5.8697035  
H   -3.4728268   -2.9124471    5.2533954  
H   -2.2742832   -1.9066565    1.1752040  
H    1.6189533    1.3585343    2.0405121  
