58

C    3.4546603   -0.7051940   -2.8655879  
C    2.5562217   -0.0001543   -3.6003001  
C    3.3075547    0.7421852   -4.5848134  
C    4.7275388    0.4094246   -4.3618646  
N    4.7487504   -0.4720438   -3.3057141  
C    5.7578594    0.9090044   -5.0902633  
C    5.4475461    1.8364968   -6.1654372  
O    6.3052794    2.3410470   -6.8781951  
C    3.9505747    2.2032205   -6.4191988  
O    3.6771248    2.9832721   -7.3214207  
C    2.9282237    1.6000478   -5.5678272  
H    6.7924735    0.6518590   -4.9103747  
H    1.8941001    1.8589998   -5.7501908  
H    3.2802844   -1.3753180   -2.0395027  
C    6.0778781   -2.3907750   -2.3105983  
C    7.3238751   -2.6389278   -1.8310297  
C    8.0723481   -1.4096797   -1.9475284  
C    7.1536743   -0.4179177   -2.5384896  
N    5.9614381   -1.0758321   -2.7349880  
C    7.4834907    0.8704852   -2.8085710  
C    8.8334311    1.3096466   -2.4965902  
O    9.2271505    2.4502061   -2.7025261  
C    9.8231427    0.2760982   -1.8704475  
O   10.9624077    0.6342132   -1.6038224  
C    9.3516037   -1.0845387   -1.6251504  
H    7.6782693   -3.5761852   -1.4404310  
H    6.7944714    1.5819355   -3.2421610  
H   10.0429990   -1.7940273   -1.1911892  
H    5.2349671   -3.0579359   -2.3898910  
C    0.0000000    0.0000000    0.0000000  
C    1.0541688   -0.0001719   -0.8560391  
C    0.5103141   -0.0000449   -2.1935955  
C   -0.9576367    0.0002461   -2.0455733  
N   -1.2018459   -0.0001392   -0.6915970  
C   -1.8348306    0.0008319   -3.0810611  
C   -1.2972842    0.0009739   -4.4314605  
O   -2.0050664    0.0014267   -5.4301321  
C    0.2542628    0.0004190   -4.6117571  
O    0.7184677    0.0002263   -5.7439119  
C    1.0974556    0.0000880   -3.4189127  
H    2.0940752   -0.0005479   -0.5817978  
H   -2.9081050    0.0011669   -2.9507065  
H   -2.1128195    0.0014911   -0.2706793  
C    0.0000000    0.0000000    1.4700000  
C    1.0662921    0.0000102    2.3034270  
C    0.4961870   -0.0000064    3.6418889  
C   -0.9663858    0.0000850    3.4240247  
N   -1.2632773    0.0000084    2.1528658  
C   -1.8985362    0.0000517    4.5177257  
C   -1.3925775   -0.0004564    5.7720543  
O   -2.1456383   -0.0005410    6.8851312  
C    0.0786232   -0.0009323    6.0245000  
O    0.4683759   -0.0012588    7.1921102  
C    1.0143166   -0.0008442    4.8859032  
H    2.1107198   -0.0000632    2.0421868  
H   -2.9622183    0.0003270    4.3293377  
H   -1.5042274   -0.0009692    7.6184419  
H    2.0724152   -0.0013148    5.1109744  
