62

C    1.6073677   -2.0689262   -5.4060709  
C    0.7601703   -1.6162729   -4.4212724  
C   -0.1611827   -0.7224055   -5.0431315  
C    0.1755902   -0.6689631   -6.4199590  
N    1.2549487   -1.4966251   -6.6059128  
C   -0.5252874    0.1165491   -7.3400296  
C   -1.5856386    0.8614515   -6.8615384  
O   -2.3044048    1.6456191   -7.7167988  
C   -1.9367923    0.8216680   -5.4911641  
O   -3.0157019    1.6194365   -5.1704420  
C   -1.2456340    0.0471751   -4.5828760  
H    0.8018763   -1.8950900   -3.3822749  
H    1.7091232   -1.6695622   -7.4844335  
H   -2.9882456    2.0736645   -7.1853815  
H   -3.1868044    1.5349161   -4.2274769  
H    2.4360311   -2.7536302   -5.3472771  
C    1.1243408    0.0099911   -0.7919008  
C    0.7474072    0.0234540   -2.1148545  
C   -0.6787386    0.0234503   -2.1414699  
C   -1.1201748    0.0098609   -0.7935543  
N    0.0000000    0.0000000    0.0000000  
C   -2.4730816    0.0063741   -0.4408237  
C   -3.3971961    0.0171027   -1.4675051  
O   -4.7313519    0.0146322   -1.1793461  
C   -2.9763655    0.0303549   -2.8186321  
O   -4.0166487    0.0395174   -3.7247614  
C   -1.6418569    0.0335288   -3.1673477  
H    1.4178708    0.0310961   -2.9571210  
H   -2.8160166   -0.0041075    0.5845971  
H   -5.1938823    0.0230938   -2.0274372  
H   -3.6464685    0.0482349   -4.6127334  
H    2.1062466    0.0052796   -0.3505415  
C   -0.1830356    0.1779999   -8.7683112  
C    0.8110018   -0.4732237   -9.4159036  
C    0.6949085   -0.0504515  -10.8030900  
C   -0.4531896    0.8813951  -10.8138832  
N   -0.9718460    1.0193360   -9.6239439  
C   -0.8978890    1.5268891  -12.0183186  
C   -0.2259329    1.2541771  -13.1600018  
O   -0.5317246    1.7852936  -14.3560153  
C    0.9369276    0.3185189  -13.1814265  
O    1.5013956    0.1168102  -14.2565592  
C    1.3737984   -0.3311735  -11.9328401  
H    1.5338222   -1.1560764   -9.0032065  
H   -1.7399639    2.2031798  -11.9971143  
H    0.1205012    1.4035900  -14.9708783  
H    2.2203461   -1.0021891  -11.9905012  
C    0.8175213    0.6860729    2.3021913  
C    0.0000000    0.0000000    1.4700000  
C   -0.8887526   -0.7456559    2.3478473  
C   -0.4549825   -0.3816753    3.7138435  
N    0.5448156    0.4573574    3.6934124  
C   -1.0945674   -0.9182058    4.8835240  
C   -2.1210866   -1.7789155    4.6970523  
O   -2.8083856   -2.3554314    5.6976972  
C   -2.5824069   -2.1655116    3.3310774  
O   -3.5227682   -2.9541547    3.2362962  
C   -1.9100805   -1.6015804    2.1470656  
H   -0.7567140   -0.6349833    5.8697035  
H   -3.4728268   -2.9124471    5.2533954  
H   -2.2742832   -1.9066565    1.1752040  
H    1.6189533    1.3585343    2.0405121  
