58

C    3.2573668   -0.0002917   -1.5109385  
C    2.5379467   -0.0001706   -0.3591963  
C    1.1435041    0.0000333   -0.7338499  
C    1.1092603   -0.0000080   -2.2088473  
N    2.4227558    0.0001912   -2.6182611  
C   -0.0265539   -0.0002521   -2.9515659  
C   -1.3003041   -0.0002638   -2.2514973  
O   -2.3786791   -0.0004131   -2.8306423  
C   -1.2877726    0.0000313   -0.6895601  
O   -2.3539955    0.0003306   -0.0892030  
C    0.0000000    0.0000000    0.0000000  
H    2.9384090   -0.0000365    0.6389235  
H   -0.0296301   -0.0004082   -4.0327230  
H    4.3270393   -0.0004761   -1.6439451  
C    5.7040765   -2.1117450   -4.6322120  
C    5.5266109   -1.6490474   -5.8965268  
C    4.3947067   -0.7532597   -5.8619885  
C    3.9239244   -0.7318312   -4.4638843  
N    4.7594829   -1.5762331   -3.7698258  
C    2.8699635   -0.0020523   -4.0185829  
C    2.1511670    0.8167851   -4.9805457  
O    1.1885413    1.5096470   -4.6779000  
C    2.6322108    0.8091508   -6.4665956  
O    2.0346724    1.4943473   -7.2855673  
C    3.7812697   -0.0180910   -6.8260214  
H    6.1207058   -1.9060839   -6.7553616  
H    4.1081478   -0.0176445   -7.8569797  
H    4.6944954   -1.7716421   -2.7876654  
C    6.7149387   -3.0490616   -4.1218246  
C    7.7040956   -3.6644336   -4.8106387  
C    8.4020562   -4.4729992   -3.8229282  
C    7.6816434   -4.2188471   -2.5568331  
N    6.6916314   -3.3849985   -2.7258384  
C    8.0700214   -4.8428502   -1.3219778  
C    9.1296736   -5.6828775   -1.3507219  
O    9.6012202   -6.3333769   -0.2734403  
C    9.8769981   -5.9600543   -2.6127998  
O   10.8317883   -6.7354979   -2.5650134  
C    9.4591626   -5.3076611   -3.8664826  
H    7.9319104   -3.5801553   -5.8594826  
H    7.5256261   -4.6387613   -0.4115432  
H   10.3554867   -6.8517918   -0.6073273  
H   10.0264855   -5.5348502   -4.7590968  
C    0.0000000    0.0000000    1.4700000  
C    1.0662921    0.0000102    2.3034270  
C    0.4961870   -0.0000064    3.6418889  
C   -0.9663858    0.0000850    3.4240247  
N   -1.2632773    0.0000084    2.1528658  
C   -1.8985362    0.0000517    4.5177257  
C   -1.3925775   -0.0004564    5.7720543  
O   -2.1456383   -0.0005410    6.8851312  
C    0.0786232   -0.0009323    6.0245000  
O    0.4683759   -0.0012588    7.1921102  
C    1.0143166   -0.0008442    4.8859032  
H    2.1107198   -0.0000632    2.0421868  
H   -2.9622183    0.0003270    4.3293377  
H   -1.5042274   -0.0009692    7.6184419  
H    2.0724152   -0.0013148    5.1109744  
