60

C    3.3003537    0.0005280   -1.4739005  
C    2.5232797    0.0003504   -2.6090757  
C    1.1623187   -0.0001314   -2.1820106  
C    1.1711877    0.0000587   -0.7636145  
N    2.4852297   -0.0014918   -0.3662365  
C    0.0000000    0.0000000    0.0000000  
C   -1.2020391    0.0000523   -0.6806467  
O   -2.3759253    0.0003494    0.0157759  
C   -1.2314671   -0.0005108   -2.0955501  
O   -2.5054405   -0.0008032   -2.6250164  
C   -0.0764533   -0.0007266   -2.8495190  
H    2.8919932   -0.0005611   -3.6205313  
H    2.8036265    0.0088180    0.5858650  
H   -3.0835645    0.0000350   -0.6418796  
H   -2.4360066   -0.0011520   -3.5845904  
H    4.3715539    0.0004899   -1.3667151  
C    2.2697402   -2.0933920   -5.9499317  
C    1.7761623   -1.6308840   -4.7724167  
C    0.6896433   -0.7359130   -5.0938795  
C    0.5899503   -0.7148020   -6.5657511  
N    1.5756926   -1.5579525   -7.0243352  
C   -0.3170997    0.0136154   -7.2645881  
C   -1.2578099    0.8315640   -6.5172193  
O   -2.1126625    1.5232792   -7.0548608  
C   -1.1702549    0.8246330   -4.9577028  
O   -1.9567862    1.5095619   -4.3177794  
C   -0.1496439   -0.0015603   -4.3176956  
H    2.1326561   -1.8872528   -3.7906831  
H   -0.3733858    0.0148564   -8.3442826  
H    1.7609369   -1.7556224   -7.9905952  
C    4.8657706   -4.1446100   -3.1143318  
C    5.6752102   -4.8565433   -3.9325842  
C    5.2240535   -4.5361016   -5.2780490  
C    4.1041860   -3.5908913   -5.0804190  
N    3.8895678   -3.3575400   -3.8141345  
C    3.3778086   -3.0300013   -6.1862512  
C    3.7533670   -3.3964081   -7.4328612  
O    3.1642172   -2.9509810   -8.5555975  
C    4.8797443   -4.3480241   -7.6649452  
O    5.1669296   -4.6371225   -8.8264818  
C    5.6092665   -4.9097124   -6.5141941  
H    6.4792131   -5.5174481   -3.6571547  
H    3.6490103   -3.3867290   -9.2796498  
H    6.4190001   -5.5954923   -6.7245985  
H    4.8768858   -4.1082151   -2.0365910  
C    0.8175213    0.6860729    2.3021913  
C    0.0000000    0.0000000    1.4700000  
C   -0.8887526   -0.7456559    2.3478473  
C   -0.4549825   -0.3816753    3.7138435  
N    0.5448156    0.4573574    3.6934124  
C   -1.0945674   -0.9182058    4.8835240  
C   -2.1210866   -1.7789155    4.6970523  
O   -2.8083856   -2.3554314    5.6976972  
C   -2.5824069   -2.1655116    3.3310774  
O   -3.5227682   -2.9541547    3.2362962  
C   -1.9100805   -1.6015804    2.1470656  
H   -0.7567140   -0.6349833    5.8697035  
H   -3.4728268   -2.9124471    5.2533954  
H   -2.2742832   -1.9066565    1.1752040  
H    1.6189533    1.3585343    2.0405121  
