60

C   -3.3041240    0.0049520   -1.5420425  
C   -2.5845334    0.0044435   -0.3695848  
C   -1.2039991    0.0018481   -0.7283584  
C   -1.1422380    0.0011489   -2.1454370  
N   -2.4348657    0.0011250   -2.6077460  
C    0.0655162   -0.0009804   -2.8497916  
C    1.2321739   -0.0021232   -2.1101402  
O    2.4392781   -0.0038575   -2.7472522  
C    1.1911200   -0.0018268   -0.6955266  
O    2.4371498   -0.0035075   -0.1032865  
C    0.0000000    0.0000000    0.0000000  
H   -3.0031496    0.0046740    0.6222586  
H   -2.7054491    0.0112610   -3.5745257  
H    0.1193520   -0.0016676   -3.9297469  
H    3.1132955   -0.0047121   -2.0551789  
H    2.3200266   -0.0031527    0.8516406  
C   -4.7577172    0.0067872   -1.7610451  
C   -5.7612518    0.0098196   -0.8461764  
C   -7.0028569    0.0104384   -1.5832321  
C   -6.6377930    0.0074674   -3.0127462  
N   -5.2625454    0.0057472   -3.0525123  
C   -7.5310404    0.0066836   -4.0344173  
C   -8.9464517    0.0091411   -3.7040547  
O   -9.8285333    0.0087321   -4.5527205  
C   -9.3558844    0.0125582   -2.1966867  
O  -10.5445594    0.0149533   -1.9063335  
C   -8.3019706    0.0128332   -1.1851936  
H   -5.6449956    0.0116207    0.2229797  
H   -8.5938305    0.0150022   -0.1437824  
H   -4.7106113    0.0020432   -3.8906069  
C   -6.0888086   -0.7252212   -5.9895763  
C   -5.9830586   -0.5110907   -7.3263785  
C   -7.0285720    0.4167468   -7.6881154  
C   -7.7573053    0.7278668   -6.4435503  
N   -7.1383809    0.0035267   -5.4510008  
C   -8.8185295    1.5699912   -6.3639627  
C   -9.2734802    2.2126706   -7.5856491  
O  -10.2206437    2.9873599   -7.6178589  
C   -8.5166817    1.8975589   -8.9152226  
O   -8.8908186    2.4324703   -9.9501882  
C   -7.3864477    0.9730031   -8.8749771  
H   -5.2557715   -0.9528513   -7.9840377  
H   -9.3389310    1.7846419   -5.4409153  
H   -6.8676755    0.7602815   -9.7998278  
H   -5.4884314   -1.3542544   -5.3525877  
C    2.3971438    2.0127888    3.1728260  
C    1.9431056    1.6308205    1.9564670  
C    0.8496017    0.7127664    2.2356185  
C    0.7794028    0.6545384    3.7115134  
N    1.6840587    1.4146091    4.2663826  
C   -0.1885723   -0.1578550    4.3957118  
C   -1.0476298   -0.8789867    3.6398520  
O   -2.0015663   -1.6796266    4.1448486  
C   -1.0022026   -0.8410666    2.1483229  
O   -1.8147390   -1.5232959    1.5241687  
C    0.0000000    0.0000000    1.4700000  
H    2.3054237    1.9346118    0.9892483  
H   -0.2170646   -0.1815267    5.4753125  
H   -2.4487139   -2.0549881    3.3649027  
H    3.2048689    2.6911772    3.3971983  
