60

C    3.3003554    0.0005275   -1.4738975  
C    2.5232827    0.0003497   -2.6090740  
C    1.1623211   -0.0001319   -2.1820099  
C    1.1711890    0.0000583   -0.7636141  
N    2.4852306   -0.0014920   -0.3662352  
C    0.0000000    0.0000000    0.0000000  
C   -1.2020378    0.0000520   -0.6806492  
O   -2.3759248    0.0003494    0.0157734  
C   -1.2314647   -0.0005112   -2.0955518  
O   -2.5054372   -0.0008040   -2.6250194  
C   -0.0764503   -0.0007272   -2.8495197  
H    2.8036265    0.0088180    0.5858672  
H   -3.0835629    0.0000346   -0.6418836  
H   -2.4360026   -0.0011529   -3.5845934  
H   -0.1304076   -0.0013421   -3.9319090  
H    4.3715558    0.0004894   -1.3667123  
C    5.8850916   -2.1080195   -4.4895946  
C    5.7585092   -1.6448898   -5.7598557  
C    4.6253957   -0.7500321   -5.7707340  
C    4.0984513   -0.7296202   -4.3927996  
N    4.9059599   -1.5736631   -3.6658808  
C    3.0267455   -0.0008953   -3.9901691  
C    2.3467568    0.8177993   -4.9800632  
O    1.3721096    1.5097462   -4.7162941  
C    2.8874985    0.8112302   -6.4454502  
O    2.3229968    1.4963166   -7.2876231  
C    4.0508325   -0.0149200   -6.7584714  
H    6.3870557   -1.9010556   -6.5940756  
H    6.6111569   -2.7948990   -4.0859675  
H    4.8014757   -1.7695719   -2.6872337  
C    5.0117110   -1.1267303   -8.8270351  
C    5.4065671   -0.7951632  -10.0833101  
C    5.1924156    0.6251229  -10.2308291  
C    4.6364708    1.0972132   -8.9483141  
N    4.5514101   -0.0133167   -8.1406143  
C    4.2980204    2.3846580   -8.6844160  
C    4.4941985    3.3711636   -9.7336328  
O    4.2201337    4.5559006   -9.5936758  
C    5.0814341    2.8934732  -11.0999310  
O    5.2507545    3.7149178  -11.9908973  
C    5.4081428    1.4793308  -11.2652026  
H    5.8024777   -1.4686983  -10.8223767  
H    3.8917916    2.7100488   -7.7367834  
H    5.8144981    1.1567401  -12.2141676  
H    5.0180580   -2.0908287   -8.3449936  
C    0.0000000    0.0000000    1.4700000  
C    1.0662921    0.0000102    2.3034270  
C    0.4961870   -0.0000064    3.6418889  
C   -0.9663858    0.0000850    3.4240247  
N   -1.2632773    0.0000084    2.1528658  
C   -1.8985362    0.0000517    4.5177257  
C   -1.3925775   -0.0004564    5.7720543  
O   -2.1456383   -0.0005410    6.8851312  
C    0.0786232   -0.0009323    6.0245000  
O    0.4683759   -0.0012588    7.1921102  
C    1.0143166   -0.0008442    4.8859032  
H    2.1107198   -0.0000632    2.0421868  
H   -2.9622183    0.0003270    4.3293377  
H   -1.5042274   -0.0009692    7.6184419  
H    2.0724152   -0.0013148    5.1109744  
