58

C   -3.2797450    0.0205751   -1.4499629  
C   -2.5570669    0.0159416   -2.5996540  
C   -1.1637221    0.0073536   -2.2210353  
C   -1.1336735    0.0073344   -0.7459465  
N   -2.4482997    0.0159391   -0.3402709  
C    0.0000000    0.0000000    0.0000000  
C    1.2757100   -0.0082120   -0.6964427  
O    2.3524103   -0.0151136   -0.1142329  
C    1.2676212   -0.0080911   -2.2584092  
O    2.3355287   -0.0146583   -2.8557313  
C   -0.0181585   -0.0000586   -2.9516297  
H   -2.9546801    0.0184560   -3.5989086  
H   -0.0150837   -0.0002343   -4.0331631  
H   -2.7563136    0.0165011    0.6148077  
C   -6.6316000    0.0433678   -4.3241550  
C   -5.4015458    0.0353565   -3.7488484  
C   -5.6053400    0.0358290   -2.3194069  
C   -7.0654206    0.0448077   -2.1075730  
N   -7.6301978    0.0494415   -3.3621230  
C   -7.6657713    0.0474727   -0.8904960  
C   -6.8172562    0.0412971    0.2895547  
O   -7.2621535    0.0431351    1.4298896  
C   -5.2682524    0.0320060    0.0887927  
O   -4.5437376    0.0270575    1.0748525  
C   -4.7389932    0.0296143   -1.2727253  
H   -4.4590065    0.0299377   -4.2667323  
H   -8.7386510    0.0539603   -0.7570877  
H   -6.8925978    0.0455625   -5.3699876  
C   -9.0742081    0.0564616   -3.6372333  
C   -9.6933438    0.0597878   -4.8406611  
C  -11.1148360    0.0665405   -4.5311220  
C  -11.1745435    0.0662917   -3.0536178  
N   -9.9814213    0.0604770   -2.5240746  
C  -12.4233589    0.0721108   -2.3426233  
C  -13.5608177    0.0783036   -3.0743894  
O  -14.7951497    0.0841584   -2.5429466  
C  -13.5334644    0.0790969   -4.5668411  
O  -14.6074874    0.0847641   -5.1682254  
C  -12.2398847    0.0730064   -5.2729139  
H   -9.2412584    0.0579830   -5.8177442  
H  -12.4373694    0.0715780   -1.2624782  
H  -15.3954537    0.0877014   -3.3102634  
H  -12.2629518    0.0739130   -6.3544391  
C    0.0000000    0.0000000    1.4700000  
C    1.0662921    0.0000102    2.3034270  
C    0.4961870   -0.0000064    3.6418889  
C   -0.9663858    0.0000850    3.4240247  
N   -1.2632773    0.0000084    2.1528658  
C   -1.8985362    0.0000517    4.5177257  
C   -1.3925775   -0.0004564    5.7720543  
O   -2.1456383   -0.0005410    6.8851312  
C    0.0786232   -0.0009323    6.0245000  
O    0.4683759   -0.0012588    7.1921102  
C    1.0143166   -0.0008442    4.8859032  
H    2.1107198   -0.0000632    2.0421868  
H   -2.9622183    0.0003270    4.3293377  
H   -1.5042274   -0.0009692    7.6184419  
H    2.0724152   -0.0013148    5.1109744  
