64

C    3.3003541    0.0005275   -1.4738995  
C    2.5232805    0.0003496   -2.6090753  
C    1.1623196   -0.0001319   -2.1820102  
C    1.1711887    0.0000582   -0.7636142  
N    2.4852300   -0.0014920   -0.3662365  
C    0.0000000    0.0000000    0.0000000  
C   -1.2020389    0.0000519   -0.6806476  
O   -2.3759249    0.0003495    0.0157752  
C   -1.2314650   -0.0005112   -2.0955502  
O   -2.5054397   -0.0008036   -2.6250172  
C   -0.0764522   -0.0007272   -2.8495192  
H    2.8919946   -0.0005621   -3.6205310  
H    2.8036265    0.0088181    0.5858655  
H   -3.0835641    0.0000348   -0.6418809  
H   -2.4360065   -0.0011528   -3.5845912  
H   -0.1304103   -0.0013422   -3.9319084  
C    6.6264009    0.0032392   -4.4617188  
C    5.3881243    0.0032370   -3.8624381  
C    5.6076638    0.0015204   -2.4530413  
C    7.0115521    0.0008108   -2.2504966  
N    7.6002624   -0.0000641   -3.4906726  
C    7.5921587   -0.0005634   -0.9786150  
C    6.7400255   -0.0009266    0.1086047  
O    7.2537887   -0.0019040    1.3731445  
C    5.3365285   -0.0006068   -0.0730906  
O    4.6231717   -0.0014619    1.1077842  
C    4.7630498    0.0004754   -1.3275416  
H    4.4428874    0.0032321   -4.3777261  
H    8.5891796    0.0098628   -3.6636629  
H    6.4980467   -0.0022989    1.9749074  
H    3.6846511   -0.0011488    0.8961665  
H    6.8919786    0.0038901   -5.5049958  
C   10.8810280    2.1203659   -3.0386829  
C   11.9145705    1.6198634   -2.2812175  
C   11.3364437    0.7449590   -1.3143089  
C    9.9349105    0.7514246   -1.5324573  
N    9.6922310    1.5982264   -2.5853824  
C    9.0457536   -0.0015023   -0.7596128  
C    9.5812183   -0.7752829    0.2516821  
O    8.7582286   -1.5302610    1.0363533  
C   10.9769093   -0.7946869    0.4851106  
O   11.3546140   -1.6143852    1.5285555  
C   11.8546518   -0.0519492   -0.2767528  
H   12.9568558    1.8571198   -2.4090604  
H    8.7881832    1.7957751   -2.9748083  
H    9.3275160   -1.9856848    1.6702038  
H   12.3113942   -1.5700618    1.6191752  
H   12.9187261   -0.0868825   -0.0742607  
H   10.8976499    2.8095979   -3.8655096  
C    0.0000000    0.0000000    1.4700000  
C    1.0662921    0.0000102    2.3034270  
C    0.4961870   -0.0000064    3.6418889  
C   -0.9663858    0.0000850    3.4240247  
N   -1.2632773    0.0000084    2.1528658  
C   -1.8985362    0.0000517    4.5177257  
C   -1.3925775   -0.0004564    5.7720543  
O   -2.1456383   -0.0005410    6.8851312  
C    0.0786232   -0.0009323    6.0245000  
O    0.4683759   -0.0012588    7.1921102  
C    1.0143166   -0.0008442    4.8859032  
H    2.1107198   -0.0000632    2.0421868  
H   -2.9622183    0.0003270    4.3293377  
H   -1.5042274   -0.0009692    7.6184419  
H    2.0724152   -0.0013148    5.1109744  
