58

C    2.4602722   -2.0944457   -5.9392883  
C    1.9124734   -1.6318087   -4.7860506  
C    0.8432457   -0.7354858   -5.1577935  
C    0.8127886   -0.7137219   -6.6327135  
N    1.8180306   -1.5578237   -7.0448664  
C   -0.0596368    0.0159816   -7.3730582  
C   -1.0334827    0.8347250   -6.6703356  
O   -1.8613771    1.5276079   -7.2472273  
C   -1.0192491    0.8271226   -5.1084314  
O   -1.8341903    1.5127100   -4.5058520  
C   -0.0307352   -0.0004646   -4.4215603  
H    2.2221960   -1.8889422   -3.7887704  
H   -0.0651693    0.0176827   -8.4542048  
H    2.0482142   -1.7553499   -8.0014469  
C    3.5771664   -3.0322268   -6.1237190  
C    4.3299692   -3.6620677   -5.1852822  
C    5.2934338   -4.4721290   -5.8926529  
C    5.0384189   -4.2610581   -7.3304317  
N    3.9856853   -3.3782215   -7.4028353  
C    5.7402563   -4.8516278   -8.3306086  
C    6.8186381   -5.7556320   -7.9667360  
O    7.5088909   -6.3362526   -8.7942212  
C    7.1061339   -5.9941240   -6.4500710  
O    8.0113489   -6.7533400   -6.1315781  
C    6.2815956   -5.3002775   -5.4638838  
H    4.2224764   -3.5698755   -4.1191867  
H    5.5370701   -4.6830952   -9.3790465  
H    6.4872373   -5.4706673   -4.4158369  
H    3.5783451   -3.0362040   -8.2538030  
C    3.2573670   -0.0002920   -1.5109380  
C    2.5379468   -0.0001709   -0.3591961  
C    1.1435043    0.0000332   -0.7338500  
C    1.1092609   -0.0000082   -2.2088477  
N    2.4227562    0.0001909   -2.6182613  
C   -0.0265532   -0.0002522   -2.9515663  
C   -1.3003035   -0.0002639   -2.2514981  
O   -2.3786784   -0.0004131   -2.8306429  
C   -1.2877725    0.0000312   -0.6895608  
O   -2.3539958    0.0003307   -0.0892036  
C    0.0000000    0.0000000    0.0000000  
H    2.9384091   -0.0000369    0.6389239  
H    4.3270394   -0.0004765   -1.6439446  
H    2.7280494   -0.0013406   -3.5742113  
C    0.0000000    0.0000000    1.4700000  
C    1.0662921    0.0000102    2.3034270  
C    0.4961870   -0.0000064    3.6418889  
C   -0.9663858    0.0000850    3.4240247  
N   -1.2632773    0.0000084    2.1528658  
C   -1.8985362    0.0000517    4.5177257  
C   -1.3925775   -0.0004564    5.7720543  
O   -2.1456383   -0.0005410    6.8851312  
C    0.0786232   -0.0009323    6.0245000  
O    0.4683759   -0.0012588    7.1921102  
C    1.0143166   -0.0008442    4.8859032  
H    2.1107198   -0.0000632    2.0421868  
H   -2.9622183    0.0003270    4.3293377  
H   -1.5042274   -0.0009692    7.6184419  
H    2.0724152   -0.0013148    5.1109744  
