58

C    0.0000000    0.0000000    0.0000000  
C    1.0541695   -0.0001723   -0.8560385  
C    0.5103152   -0.0000460   -2.1935953  
C   -0.9576357    0.0002455   -2.0455736  
N   -1.2018450   -0.0001392   -0.6915975  
C   -1.8348290    0.0008313   -3.0810617  
C   -1.2972820    0.0009732   -4.4314611  
O   -2.0050638    0.0014262   -5.4301325  
C    0.2542654    0.0004178   -4.6117570  
O    0.7184706    0.0002248   -5.7439115  
C    1.0974576    0.0000870   -3.4189121  
H    2.0940756   -0.0005488   -0.5817971  
H    2.1707298   -0.0000917   -3.5523657  
H   -2.1128187    0.0014913   -0.2706801  
C   -4.4922133    2.0924789   -0.2420918  
C   -3.4155263    1.6303223   -0.9285545  
C   -3.9166412    0.7353627   -1.9448054  
C   -5.3840547    0.7138751   -1.7930621  
N   -5.6687566    1.5568190   -0.7436432  
C   -6.2266194   -0.0146456   -2.5683343  
C   -5.6496858   -0.8323158   -3.6224210  
O   -6.3245400   -1.5240968   -4.3736278  
C   -4.0979595   -0.8249843   -3.8010139  
O   -3.6007555   -1.5096765   -4.6848952  
C   -3.2941054    0.0012871   -2.9038258  
H   -2.3875700    1.8869170   -0.7439496  
H   -7.3001868   -0.0161645   -2.4404215  
H   -6.5895626    1.7542195   -0.3969494  
C   -4.5371265    3.0289290    0.8901377  
C   -3.4999909    3.6441293    1.5045134  
C   -4.1090152    4.4517181    2.5501662  
C   -5.5598749    4.1974180    2.4200834  
N   -5.8168948    3.3641167    1.4487241  
C   -6.5222115    4.8204601    3.2865779  
C   -6.0562892    5.6591134    4.2399466  
O   -6.8407439    6.3086125    5.1167718  
C   -4.5978581    5.9358306    4.3966871  
O   -4.2451039    6.7101961    5.2861488  
C   -3.6306234    5.2845100    3.4954865  
H   -2.4511917    3.5601898    1.2763682  
H   -7.5764763    4.6166014    3.1687775  
H   -6.2239256    6.8261216    5.6652901  
H   -2.5830285    5.5111463    3.6418098  
C    3.3321173   -0.0004715    2.8079335  
C    2.6974184   -0.0000116    4.0032312  
C    1.2800439    0.0002118    3.6752840  
C    1.2395035   -0.0000644    2.1971295  
N    2.4394063   -0.0005460    1.6831036  
C    0.0000000    0.0000000    1.4700000  
C   -1.1468701   -0.0000635    2.1869543  
O   -2.3742202   -0.0000073    1.6395491  
C   -1.1388768   -0.0001607    3.6796354  
O   -2.2206231   -0.0000905    4.2670412  
C    0.1454524   -0.0001816    4.4024240  
H    3.1367986    0.0000651    4.9860947  
H   -2.9844344   -0.0001026    2.3990168  
H    0.1083576   -0.0003682    5.4835595  
H    4.3940039   -0.0007619    2.6198634  
