62

C    3.3003544    0.0005278   -1.4738987  
C    2.5232810    0.0003499   -2.6090746  
C    1.1623200   -0.0001317   -2.1820099  
C    1.1711887    0.0000584   -0.7636140  
N    2.4852298   -0.0014918   -0.3662360  
C    0.0000000    0.0000000    0.0000000  
C   -1.2020383    0.0000520   -0.6806476  
O   -2.3759252    0.0003495    0.0157747  
C   -1.2314652   -0.0005110   -2.0955508  
O   -2.5054394   -0.0008035   -2.6250176  
C   -0.0764516   -0.0007270   -2.8495191  
H    2.8919952   -0.0005616   -3.6205301  
H    2.8036265    0.0088183    0.5858661  
H   -3.0835641    0.0000348   -0.6418819  
H   -2.4360054   -0.0011526   -3.5845919  
H   -0.1304096   -0.0013419   -3.9319086  
C    6.5582206    0.0029731   -4.4647483  
C    7.6103877    0.0023863   -3.5785142  
C    7.0499432    0.0016141   -2.2668357  
C    5.6394781    0.0014824   -2.4168807  
N    5.3749047    0.0042719   -3.7639556  
C    4.7630502    0.0004758   -1.3275405  
C    5.3206367   -0.0007211   -0.0637073  
O    4.5107983   -0.0020882    1.0350072  
C    6.7255798   -0.0002352    0.1064473  
O    7.1255747   -0.0011493    1.4268057  
C    7.5907994    0.0010309   -0.9677596  
H    8.6535284    0.0036058   -3.8446913  
H    4.4592349   -0.0057077   -4.1755743  
H    5.0947322   -0.0024567    1.8046081  
H    8.0872935   -0.0007696    1.4532558  
H    8.6624385    0.0015572   -0.8063027  
C    9.8903372    0.0032442   -7.2726828  
C    9.2556381    0.0044948   -8.4679794  
C    7.8382639    0.0051942   -8.1400318  
C    7.7977235    0.0040771   -6.6618780  
N    8.9976260    0.0030122   -6.1478527  
C    6.5582206    0.0043940   -5.9347474  
C    5.4113509    0.0061537   -6.6517002  
O    4.1840011    0.0066419   -6.1042947  
C    5.4193441    0.0076867   -8.1443810  
O    4.3375984    0.0091305   -8.7317860  
C    6.7036730    0.0072829   -8.8671696  
H    9.6950175    0.0049839   -9.4508438  
H    3.5737874    0.0080051   -6.8637613  
H    6.6665781    0.0085470   -9.9483056  
H   10.9522229    0.0024239   -7.0846137  
C    2.5528530    2.1414826    2.8079335  
C    2.0663498    1.7338582    4.0032312  
C    0.9804344    0.8229586    3.6752840  
C    0.9495562    0.7966882    2.1971295  
N    1.8690446    1.5676019    1.6831036  
C    0.0000000    0.0000000    1.4700000  
C   -0.8785127   -0.7372425    2.1869543  
O   -1.8187535   -1.5261249    1.6395491  
C   -0.8723269   -0.7321790    3.6796354  
O   -1.7010379   -1.4274584    4.2670412  
C    0.1115397    0.0933559    4.4024240  
H    2.4028853    2.0163452    4.9860947  
H   -2.2861435   -1.9184361    2.3990168  
H    0.0832434    0.0693689    5.4835595  
H    3.3664920    2.8238276    2.6198634  
