64

C    3.3041270    0.0001179   -1.5420432  
C    2.5845370   -0.0004779   -0.3695854  
C    1.2040009   -0.0000006   -0.7283591  
C    1.1422369    0.0006040   -2.1454372  
N    2.4348635    0.0026113   -2.6077467  
C   -0.0655189    0.0008801   -2.8497917  
C   -1.2321774    0.0002327   -2.1101396  
O   -2.4392820    0.0001150   -2.7472519  
C   -1.1911208   -0.0000006   -0.6955264  
O   -2.4371530   -0.0002319   -0.1032859  
C    0.0000000    0.0000000    0.0000000  
H    3.0031535   -0.0000660    0.6222579  
H    2.7054620   -0.0071094   -3.5745263  
H   -0.1193551    0.0014848   -3.9297474  
H   -3.1132992   -0.0000645   -2.0551781  
H   -2.3200280   -0.0004071    0.8516410  
C    6.7068650   -0.0034178    1.2828887  
C    7.7136024   -0.0021474    0.3453678  
C    7.0885452   -0.0007419   -0.9367794  
C    5.6872996   -0.0009460   -0.7166944  
N    5.4901252   -0.0045361    0.6418806  
C    4.7577218    0.0005131   -1.7610465  
C    5.2516914    0.0025163   -3.0510727  
O    4.3881525    0.0043532   -4.1081029  
C    6.6464196    0.0023767   -3.2909673  
O    6.9801786    0.0041006   -4.6296031  
C    7.5640502    0.0006645   -2.2611725  
H    8.7687015   -0.0033295    0.5592770  
H    4.5960834    0.0050497    1.0985850  
H    4.9330444    0.0052563   -4.9058229  
H    7.9393883    0.0039074   -4.7039033  
H    6.7604658   -0.0050604    2.3581023  
C   11.0166753   -2.1270789   -0.3792190  
C    9.7584211   -1.6640075   -0.6871614  
C    9.9011478   -0.7749519   -1.7934204  
C   11.2808892   -0.7350466   -2.1199921  
N   11.9299919   -1.5657910   -1.2407047  
C   11.7884850    0.0425426   -3.1652144  
C   10.8867762    0.7932937   -3.8942354  
O   11.3285093    1.5701781   -4.9259019  
C    9.5063637    0.7670033   -3.5834497  
O    8.7371835    1.5691389   -4.4009362  
C    9.0049382    0.0003328   -2.5522783  
H    8.8496483   -1.9329680   -0.1764902  
H   12.9173509   -1.7476557   -1.2353202  
H   12.8389791    0.0774210   -3.4190793  
H   10.5480787    2.0041201   -5.2945293  
H    7.8188771    1.4938171   -4.1240886  
H   11.3350841   -2.8122274    0.3876882  
C    2.3971438    2.0127888    3.1728260  
C    1.9431056    1.6308205    1.9564670  
C    0.8496017    0.7127664    2.2356185  
C    0.7794028    0.6545384    3.7115134  
N    1.6840587    1.4146091    4.2663826  
C   -0.1885723   -0.1578550    4.3957118  
C   -1.0476298   -0.8789867    3.6398520  
O   -2.0015663   -1.6796266    4.1448486  
C   -1.0022026   -0.8410666    2.1483229  
O   -1.8147390   -1.5232959    1.5241687  
C    0.0000000    0.0000000    1.4700000  
H    2.3054237    1.9346118    0.9892483  
H   -0.2170646   -0.1815267    5.4753125  
H   -2.4487139   -2.0549881    3.3649027  
H    3.2048689    2.6911772    3.3971983  
