62

C    3.3041272    0.0001177   -1.5420431  
C    2.5845370   -0.0004780   -0.3695856  
C    1.2040004   -0.0000008   -0.7283590  
C    1.1422372    0.0006037   -2.1454372  
N    2.4348639    0.0026111   -2.6077465  
C   -0.0655183    0.0008798   -2.8497916  
C   -1.2321770    0.0002324   -2.1101397  
O   -2.4392813    0.0001147   -2.7472520  
C   -1.1911211   -0.0000007   -0.6955262  
O   -2.4371526   -0.0002320   -0.1032861  
C    0.0000000    0.0000000    0.0000000  
H    3.0031535   -0.0000661    0.6222581  
H    2.7054628   -0.0071098   -3.5745262  
H   -3.1132988   -0.0000650   -2.0551783  
H   -2.3200283   -0.0004072    0.8516412  
C   -0.1387085    0.0017018   -4.3179686  
C    0.8715313    0.0021965   -5.2254319  
C    0.2617551    0.0029741   -6.5342510  
C   -1.1970055    0.0029203   -6.3133245  
N   -1.3734976    0.0017345   -4.9488685  
C   -2.1246679    0.0039284   -7.3038521  
C   -1.6550230    0.0049214   -8.6793402  
O   -2.4116510    0.0058064   -9.6415335  
C   -0.1143773    0.0047443   -8.9366644  
O    0.2928827    0.0052675  -10.0905274  
C    0.7871604    0.0038969   -7.7872813  
H    1.9238023    0.0018529   -5.0033075  
H   -3.1901206    0.0039988   -7.1202220  
H    1.8524573    0.0039848   -7.9740077  
H   -2.2623845    0.0029668   -4.4831156  
C    5.7396279   -0.0009029   -0.8296830  
C    4.7577221    0.0005130   -1.7610465  
C    5.4529346    0.0023818   -3.0390038  
C    6.8880473    0.0019129   -2.6825830  
N    7.0622971   -0.0000910   -1.3888974  
C    7.9203001    0.0033443   -3.6823523  
C    7.5363318    0.0047726   -4.9792335  
O    8.3921606    0.0062107   -6.0153777  
C    6.0959299    0.0049096   -5.3709018  
O    5.8193624    0.0063725   -6.5703718  
C    5.0558664    0.0034672   -4.3267796  
H    8.9611542    0.0031679   -3.3933327  
H    7.8236449    0.0069709   -6.8065427  
H    4.0240706    0.0035016   -4.6517825  
H    5.6367315   -0.0024969    0.2438081  
C    0.8576279    0.7185626    2.2703808  
C    0.0000000    0.0000000    1.4700000  
C   -0.8668858   -0.7285659    2.3373528  
C   -0.4876752   -0.4117774    3.6669281  
N    0.5635254    0.4678311    3.5902241  
C   -1.1297612   -0.9515493    4.7854808  
C   -2.1738724   -1.8268314    4.5576857  
O   -2.8357962   -2.3827064    5.6140350  
C   -2.5667212   -2.1555554    3.2384331  
O   -3.6226318   -3.0413663    3.1773122  
C   -1.9335634   -1.6236449    2.1344818  
H    1.0363952    0.8769718    4.3757045  
H   -0.8454472   -0.7142436    5.8013813  
H   -3.5178062   -2.9546422    5.2385129  
H   -3.8247440   -3.2102924    2.2519915  
H   -2.2566033   -1.8942483    1.1360343  
H    1.6567807    1.3889844    2.0042067  
