60

C    0.0000000    0.0000000    0.0000000  
C    1.0521659   -0.0011911   -0.8862347  
C    0.4917207   -0.0011958   -2.1979135  
C   -0.9187438    0.0003160   -2.0478679  
N   -1.1833174   -0.0009396   -0.7007910  
C   -1.7951717    0.0010376   -3.1372084  
C   -1.2375856    0.0005245   -4.4010421  
O   -2.0474240    0.0015388   -5.4997572  
C    0.1673561   -0.0013562   -4.5711967  
O    0.5673494   -0.0020686   -5.8915555  
C    1.0325754   -0.0023417   -3.4969895  
H    2.0953050   -0.0030670   -0.6200570  
H   -2.0989780    0.0102397   -0.2891817  
H   -1.4634914    0.0006523   -6.2693587  
H    1.5290679   -0.0033161   -5.9180051  
H    2.1042126   -0.0039627   -3.6584467  
C   -4.0038668    0.6889682   -2.0943569  
C   -3.2578668    0.0024080   -2.9908493  
C   -4.2205571   -0.7421157   -3.7879762  
C   -5.5362275   -0.3770148   -3.2202635  
N   -5.4155461    0.4616460   -2.2272510  
C   -6.7642912   -0.9122290   -3.7403508  
C   -6.6817790   -1.7727502   -4.7805573  
O   -7.7464365   -2.3480907   -5.3649619  
C   -5.3688947   -2.1604567   -5.3756868  
O   -5.3689699   -2.9488569   -6.3210161  
C   -4.1232846   -1.5978670   -4.8244406  
H   -7.3710332   -2.9052862   -6.0704815  
H   -3.1928074   -1.9037204   -5.2836746  
H   -3.6630470    1.3609027   -1.3227875  
C   -8.3227306    2.9386644   -2.2442502  
C   -7.5458251    1.9584253   -2.7730452  
C   -8.3263651    0.7439130   -2.7495555  
C   -9.6310553    1.0994944   -2.1595253  
N   -9.5642418    2.4438564   -1.8747151  
C  -10.6507073    0.2253688   -1.9647968  
C  -10.4496663   -1.1580301   -2.3626972  
O  -11.3072098   -2.0210997   -2.2284193  
C   -9.0756785   -1.5569680   -2.9894440  
O   -8.8946989   -2.7188125   -3.3280045  
C   -8.0534832   -0.5257270   -3.1491647  
H   -6.5406062    2.0730313   -3.1377557  
H  -11.5999353    0.5067705   -1.5304138  
H   -8.0926837    3.9808540   -2.0932229  
H  -10.3041864    2.9829805   -1.4637730  
C    0.0000000    0.0000000    1.4700000  
C    1.0662921    0.0000102    2.3034270  
C    0.4961870   -0.0000064    3.6418889  
C   -0.9663858    0.0000850    3.4240247  
N   -1.2632773    0.0000084    2.1528658  
C   -1.8985362    0.0000517    4.5177257  
C   -1.3925775   -0.0004564    5.7720543  
O   -2.1456383   -0.0005410    6.8851312  
C    0.0786232   -0.0009323    6.0245000  
O    0.4683759   -0.0012588    7.1921102  
C    1.0143166   -0.0008442    4.8859032  
H    2.1107198   -0.0000632    2.0421868  
H   -2.9622183    0.0003270    4.3293377  
H   -1.5042274   -0.0009692    7.6184419  
H    2.0724152   -0.0013148    5.1109744  
