60

C    3.3003540    0.0005278   -1.4738998  
C    2.5232805    0.0003501   -2.6090759  
C    1.1623190   -0.0001315   -2.1820106  
C    1.1711880    0.0000584   -0.7636147  
N    2.4852300   -0.0014918   -0.3662366  
C    0.0000000    0.0000000    0.0000000  
C   -1.2020387    0.0000521   -0.6806476  
O   -2.3759253    0.0003495    0.0157752  
C   -1.2314666   -0.0005110   -2.0955505  
O   -2.5054395   -0.0008035   -2.6250174  
C   -0.0764524   -0.0007269   -2.8495195  
H    2.8919942   -0.0005615   -3.6205312  
H    2.8036265    0.0088181    0.5858650  
H   -3.0835639    0.0000348   -0.6418810  
H   -2.4360058   -0.0011523   -3.5845915  
C    0.6503137   -0.7058441   -5.1591997  
C   -0.1496428   -0.0015607   -4.3176960  
C   -1.0769634    0.7392938   -5.1399167  
C   -0.7493514    0.4064861   -6.5394521  
N    0.3066291   -0.4735887   -6.4823321  
C   -1.4003426    0.9048532   -7.6209074  
C   -2.4966998    1.8309964   -7.3911354  
O   -3.1448416    2.3343959   -8.2993216  
C   -2.8607685    2.1977452   -5.9171087  
O   -3.7817321    2.9766681   -5.7112803  
C   -2.0864171    1.5959463   -4.8344874  
H   -1.1442244    0.6476967   -8.6393293  
H   -2.3449694    1.8549059   -3.8167374  
H    1.4621417   -1.3748322   -4.9240836  
H    0.7568381   -0.8854573   -7.2790271  
C    5.6973658    0.0015112   -2.3066395  
C    4.7630502    0.0004759   -1.3275418  
C    5.5210295   -0.0005633   -0.0857829  
C    6.9366162   -0.0000803   -0.5132155  
N    7.0462376    0.0012159   -1.8139732  
C    8.0173669   -0.0007891    0.4339192  
C    7.6984457   -0.0015396    1.7483100  
O    8.6048018   -0.0022609    2.7405586  
C    6.2793317   -0.0016714    2.2112095  
O    6.0628284   -0.0024954    3.4229627  
C    5.1885716   -0.0009780    1.2201660  
H    9.0425399   -0.0006198    0.0934344  
H    8.0763830   -0.0026579    3.5590485  
H    4.1742372   -0.0009835    1.5961383  
H    5.5411482    0.0024807   -3.3736766  
C    0.0000000    0.0000000    1.4700000  
C    1.0662921    0.0000102    2.3034270  
C    0.4961870   -0.0000064    3.6418889  
C   -0.9663858    0.0000850    3.4240247  
N   -1.2632773    0.0000084    2.1528658  
C   -1.8985362    0.0000517    4.5177257  
C   -1.3925775   -0.0004564    5.7720543  
O   -2.1456383   -0.0005410    6.8851312  
C    0.0786232   -0.0009323    6.0245000  
O    0.4683759   -0.0012588    7.1921102  
C    1.0143166   -0.0008442    4.8859032  
H    2.1107198   -0.0000632    2.0421868  
H   -2.9622183    0.0003270    4.3293377  
H   -1.5042274   -0.0009692    7.6184419  
H    2.0724152   -0.0013148    5.1109744  
