62

C    3.3003552    0.0005276   -1.4738980  
C    2.5232822    0.0003497   -2.6090742  
C    1.1623210   -0.0001319   -2.1820102  
C    1.1711889    0.0000583   -0.7636142  
N    2.4852305   -0.0014919   -0.3662355  
C    0.0000000    0.0000000    0.0000000  
C   -1.2020381    0.0000520   -0.6806483  
O   -2.3759252    0.0003496    0.0157737  
C   -1.2314649   -0.0005113   -2.0955516  
O   -2.5054380   -0.0008037   -2.6250188  
C   -0.0764507   -0.0007272   -2.8495199  
H    2.8036268    0.0088180    0.5858669  
H   -3.0835632    0.0000349   -0.6418826  
H   -2.4360041   -0.0011526   -3.5845928  
H   -0.1304082   -0.0013421   -3.9319088  
H    4.3715554    0.0004893   -1.3667123  
C    4.0912594   -0.7049387   -4.4540730  
C    3.0267448   -0.0008952   -3.9901694  
C    2.4918049    0.7392283   -5.1086021  
C    3.3379767    0.4062536   -6.2704581  
N    4.2890161   -0.4732104   -5.8068234  
C    3.1585244    0.9039806   -7.5201656  
C    2.0587104    1.8295626   -7.7352070  
O    1.8145057    2.3323674   -8.8241751  
C    1.1499704    2.1964768   -6.5189127  
O    0.2211191    2.9749316   -6.6877463  
C    1.4426654    1.5953879   -5.2201159  
H    3.7906033    0.6467125   -8.3587354  
H    0.8086039    1.8544577   -4.3831137  
H    4.7480576   -1.3734090   -3.9214824  
C    6.0350513   -4.5876208   -5.9192767  
C    5.2814001   -3.4797684   -5.6076034  
C    5.7202250   -2.4242181   -6.4607427  
C    6.7520800   -2.9517786   -7.2785938  
N    6.9193560   -4.2670258   -6.9225587  
C    7.4178953   -2.1886169   -8.2424725  
C    7.0348778   -0.8689267   -8.3835110  
O    7.6517781   -0.0788434   -9.3099104  
C    6.0077456   -0.3242381   -7.5765838  
O    5.7417845    1.0042174   -7.8369989  
C    5.3506549   -1.0764565   -6.6253078  
H    4.5109708   -3.4373099   -4.8568514  
H    7.5758008   -4.9021177   -7.3393559  
H    8.2052496   -2.5847373   -8.8688634  
H    7.2394228    0.7922846   -9.2438475  
H    5.0367947    1.2940119   -7.2499628  
H    6.0127498   -5.5807294   -5.5043098  
C    0.0000000    0.0000000    1.4700000  
C    1.0662921    0.0000102    2.3034270  
C    0.4961870   -0.0000064    3.6418889  
C   -0.9663858    0.0000850    3.4240247  
N   -1.2632773    0.0000084    2.1528658  
C   -1.8985362    0.0000517    4.5177257  
C   -1.3925775   -0.0004564    5.7720543  
O   -2.1456383   -0.0005410    6.8851312  
C    0.0786232   -0.0009323    6.0245000  
O    0.4683759   -0.0012588    7.1921102  
C    1.0143166   -0.0008442    4.8859032  
H    2.1107198   -0.0000632    2.0421868  
H   -2.9622183    0.0003270    4.3293377  
H   -1.5042274   -0.0009692    7.6184419  
H    2.0724152   -0.0013148    5.1109744  
