60

C   -1.0639420    3.1241589   -1.4738985  
C   -0.8133848    2.3885884   -2.6090745  
C   -0.3743990    1.1003696   -2.1820103  
C   -0.3774365    1.1087036   -0.7636145  
N   -0.7993802    2.3531600   -0.3662358  
C    0.0000000    0.0000000    0.0000000  
C    0.3872721   -1.1379440   -0.6806483  
O    0.7652412   -2.2493168    0.0157741  
C    0.3972869   -1.1656204   -2.0955512  
O    0.8080646   -2.3715516   -2.6250183  
C    0.0253222   -0.0721398   -2.8495194  
H   -0.9117343    2.6512524    0.5858664  
H    0.9935546   -2.9191118   -0.6418821  
H    0.7860215   -2.3057081   -3.5845925  
H    0.0432905   -0.1230218   -3.9319087  
H   -1.4090689    4.1382384   -1.3667130  
C    0.0136432    6.2000864   -4.7661442  
C   -0.0762724    5.2782262   -3.7793977  
C   -0.6425735    4.0998195   -4.4174887  
C   -0.8379886    4.4975078   -5.8282474  
N   -0.4550441    5.7275800   -6.0386398  
C   -1.3869096    3.5962995   -6.8037454  
C   -1.7248734    2.3541349   -6.3888456  
O   -2.2473147    1.4110569   -7.1911550  
C   -1.5394186    1.9227843   -4.9719107  
O   -1.8691672    0.7772945   -4.6647631  
C   -0.9744325    2.8655993   -3.9901700  
H    0.2068231    5.3847023   -2.7461525  
H   -1.5189094    3.9136428   -7.8278444  
H   -2.3808890    0.6390740   -6.6120579  
C    0.5198734    7.5771624   -4.6750852  
C    1.0096939    8.2395171   -3.5955309  
C    1.3696654    9.5645405   -4.0422619  
C    1.0470700    9.6202479   -5.4808795  
N    0.5360077    8.3840566   -5.8026493  
C    1.2409761   10.7065620   -6.2708323  
C    1.8052546   11.9005020   -5.6636802  
O    2.0179204   12.9298636   -6.2909675  
C    2.1546599   11.8638795   -4.1417143  
O    2.6305310   12.8629682   -3.6195759  
C    1.9000445   10.6347378   -3.3945643  
H    1.1078261    7.8448617   -2.5999250  
H    0.9973815   10.7266012   -7.3240036  
H    2.1445622   10.6176540   -2.3411680  
H    0.2211596    8.1108393   -6.7154855  
C    2.5528530    2.1414826    2.8079335  
C    2.0663498    1.7338582    4.0032312  
C    0.9804344    0.8229586    3.6752840  
C    0.9495562    0.7966882    2.1971295  
N    1.8690446    1.5676019    1.6831036  
C    0.0000000    0.0000000    1.4700000  
C   -0.8785127   -0.7372425    2.1869543  
O   -1.8187535   -1.5261249    1.6395491  
C   -0.8723269   -0.7321790    3.6796354  
O   -1.7010379   -1.4274584    4.2670412  
C    0.1115397    0.0933559    4.4024240  
H    2.4028853    2.0163452    4.9860947  
H   -2.2861435   -1.9184361    2.3990168  
H    0.0832434    0.0693689    5.4835595  
H    3.3664920    2.8238276    2.6198634  
