62

C    0.0000000    0.0000000    0.0000000  
C    1.0521663   -0.0011902   -0.8862345  
C    0.4917215   -0.0011956   -2.1979133  
C   -0.9187430    0.0003149   -2.0478683  
N   -1.1833172   -0.0009411   -0.7007910  
C   -1.7951704    0.0010351   -3.1372088  
C   -1.2375840    0.0005226   -4.4010423  
O   -2.0474221    0.0015361   -5.4997580  
C    0.1673576   -0.0013565   -4.5711965  
O    0.5673516   -0.0020685   -5.8915550  
C    1.0325767   -0.0023411   -3.4969892  
H    2.0953056   -0.0030649   -0.6200563  
H   -2.0989778    0.0102372   -0.2891821  
H   -1.4634890    0.0006499   -6.2693592  
H    1.5290706   -0.0033151   -5.9180044  
C   -4.4707106    2.1246523   -0.3281852  
C   -5.6599901    1.6263872   -0.8075739  
C   -5.3396940    0.7516100   -1.8877478  
C   -3.9276529    0.7558436   -2.0220871  
N   -3.4313381    1.6012525   -1.0610603  
C   -3.2578654    0.0024039   -2.9908502  
C   -4.0275271   -0.7696041   -3.8392616  
O   -3.4247832   -1.5249880   -4.8031639  
C   -5.4376975   -0.7867694   -3.7211790  
O   -6.0624813   -1.6048901   -4.6396928  
C   -6.0991477   -0.0435244   -2.7658798  
H   -6.6381349    1.8650159   -0.4264133  
H   -2.4588395    1.7971149   -0.9065735  
H   -4.1335869   -1.9789647   -5.2772599  
H   -7.0119725   -1.5591008   -4.4914531  
H   -7.1803458   -0.0767266   -2.6996340  
H   -4.2817180    2.8130885    0.4776041  
C    4.1863495   -2.1478987   -1.3903815  
C    5.2964256   -1.7420839   -2.0496426  
C    4.8116968   -0.8307459   -3.0748257  
C    3.3454784   -0.8022678   -2.8851483  
N    2.9730431   -1.5723695   -1.8991338  
C    2.4861696   -0.0045381   -3.7159924  
C    3.0653236    0.7315911   -4.6917123  
O    2.3851097    1.5212468   -5.5401187  
C    4.5422587    0.7242970   -4.9079763  
O    5.0006683    1.4186590   -5.8151385  
C    5.4023444   -0.1022713   -4.0425503  
H    6.3180414   -2.0260239   -1.8632157  
H    3.0670453    1.9124006   -6.1155450  
H    6.4672331   -0.0799014   -4.2316067  
H    4.1205927   -2.8299238   -0.5576204  
C    3.2798086   -0.0005857    2.9199648  
C    2.5571146   -0.0005566    4.0696553  
C    1.1637436   -0.0001548    3.6910360  
C    1.1336965    0.0000200    2.2159470  
N    2.4483514    0.0001428    1.8102719  
C    0.0000000    0.0000000    1.4700000  
C   -1.2757367    0.0000186    2.1664417  
O   -2.3524596    0.0000640    1.5842315  
C   -1.2676493    0.0000873    3.7284083  
O   -2.3355761    0.0004100    4.3257297  
C    0.0181563   -0.0001760    4.4216297  
H    2.9547357   -0.0006076    5.0689105  
H    0.0150794   -0.0003319    5.5031631  
H    4.3498549   -0.0008612    2.7900019  
H    2.7563627   -0.0012824    0.8551938  
