58

C    1.1319244    0.0015657   -0.8009267  
C    0.7969908    0.0034942   -2.1169399  
C   -0.6453345    0.0035708   -2.1842666  
C   -1.1266835    0.0015431   -0.7896024  
N    0.0000000    0.0000000    0.0000000  
C   -2.4346133    0.0013962   -0.4276284  
C   -3.4350116    0.0031404   -1.4820170  
O   -4.6384614    0.0030968   -1.2583903  
C   -2.9478966    0.0050500   -2.9661063  
O   -3.7809388    0.0062212   -3.8623765  
C   -1.5113833    0.0053086   -3.2312119  
H   -2.7664566    0.0000231    0.6013456  
H   -1.1823542    0.0068404   -4.2614843  
H    2.1104314    0.0009393   -0.3488058  
C    4.5953887   -2.1015054   -2.7684684  
C    4.9007829   -1.6358549   -4.0070075  
C    3.8360900   -0.7408602   -4.3946271  
C    2.8785302   -0.7231148   -3.2723282  
N    3.3968105   -1.5686752   -2.3187544  
C    1.7334686    0.0049245   -3.2500366  
C    1.4233490    0.8256428   -4.4088216  
O    0.4162288    1.5171681   -4.4849912  
C    2.4231595    0.8219113   -5.6088926  
O    2.1725312    1.5087181   -6.5900873  
C    3.6246478   -0.0037395   -5.5162700  
H    5.7723329   -1.8904379   -4.5833770  
H    4.3119079   -0.0005897   -6.3513669  
H    2.9710667   -1.7665053   -1.4318202  
C    6.5203977   -3.6517480   -2.1938294  
C    5.3448959   -3.0394255   -1.9202674  
C    4.9759993   -3.5109842   -0.5943538  
C    6.0710187   -4.4257333   -0.2060871  
N    6.9792757   -4.5121908   -1.1396737  
C    6.0798887   -5.1082768    1.0584848  
C    5.0422069   -4.8867458    1.8972191  
O    4.9210951   -5.4566590    3.1082398  
C    3.9223032   -3.9689974    1.5342951  
O    3.0103413   -3.8146700    2.3465319  
C    3.9361478   -3.2806090    0.2312774  
H    6.8928973   -5.7712844    1.3160649  
H    4.0845175   -5.1067411    3.4643967  
H    3.1064432   -2.6239754    0.0062162  
H    7.1232942   -3.5645941   -3.0837132  
C    2.3971438    2.0127888    3.1728260  
C    1.9431056    1.6308205    1.9564670  
C    0.8496017    0.7127664    2.2356185  
C    0.7794028    0.6545384    3.7115134  
N    1.6840587    1.4146091    4.2663826  
C   -0.1885723   -0.1578550    4.3957118  
C   -1.0476298   -0.8789867    3.6398520  
O   -2.0015663   -1.6796266    4.1448486  
C   -1.0022026   -0.8410666    2.1483229  
O   -1.8147390   -1.5232959    1.5241687  
C    0.0000000    0.0000000    1.4700000  
H    2.3054237    1.9346118    0.9892483  
H   -0.2170646   -0.1815267    5.4753125  
H   -2.4487139   -2.0549881    3.3649027  
H    3.2048689    2.6911772    3.3971983  
