62

C   -1.0832748    0.2799545   -0.8003809  
C    0.0000000    0.0000000    0.0000000  
C    1.0959338   -0.2850048   -0.8673528  
C    0.6173515   -0.1620617   -2.1969283  
N   -0.7099358    0.1800522   -2.1202242  
C    1.4291478   -0.3732828   -3.3154813  
C    2.7481751   -0.7145398   -3.0876863  
O    3.5848057   -0.9317690   -4.1440355  
C    3.2442024   -0.8423941   -1.7684336  
O    4.5784087   -1.1880822   -1.7073132  
C    2.4438469   -0.6344307   -0.6644823  
H    1.0704196   -0.2812932   -4.3313817  
H    4.4464774   -1.1548613   -3.7685139  
H    4.8335201   -1.2536841   -0.7819922  
H    2.8518565   -0.7398302    0.3339649  
H   -2.0930551    0.5415903   -0.5342069  
C   -3.8692410    3.1713937   -2.8732838  
C   -2.8752659    2.4290943   -2.3209436  
C   -2.5140721    1.4215024   -3.2900321  
C   -3.3853235    1.6392137   -4.4606358  
N   -4.1835584    2.7141513   -4.1440610  
C   -3.3535744    0.8911211   -5.5924725  
C   -2.3976513   -0.2015225   -5.6623074  
O   -2.2918976   -0.9326757   -6.6382852  
C   -1.4652396   -0.4504217   -4.4341124  
O   -0.6566563   -1.3676101   -4.4812229  
C   -1.5926123    0.4231735   -3.2703000  
H   -2.4444012    2.5710567   -1.3458456  
H   -4.0013667    1.0676703   -6.4398835  
H   -4.8848883    3.1073405   -4.7445492  
C   -4.5913279    4.3203094   -2.3080554  
C   -4.4533476    4.9407111   -1.0880019  
C   -5.4026092    6.0047717   -1.0522595  
C   -6.0973913    5.9844161   -2.2887015  
N   -5.5787916    4.9507077   -3.0283763  
C   -7.1098621    6.8961743   -2.6023702  
C   -7.4269352    7.8455898   -1.6503978  
O   -8.4079783    8.7598738   -1.9046691  
C   -6.7447857    7.8822742   -0.4109853  
O   -7.1752378    8.8869252    0.4308754  
C   -5.7456673    6.9832854   -0.1009726  
H   -3.7537309    4.6614664   -0.3188776  
H   -5.8824338    4.6855994   -3.9478873  
H   -7.6430935    6.8860509   -3.5429898  
H   -8.4676875    9.3214142   -1.1208499  
H   -6.6640937    8.8416499    1.2446847  
H   -5.2407779    7.0361338    0.8565096  
C    2.5528530    2.1414826    2.8079335  
C    2.0663498    1.7338582    4.0032312  
C    0.9804344    0.8229586    3.6752840  
C    0.9495562    0.7966882    2.1971295  
N    1.8690446    1.5676019    1.6831036  
C    0.0000000    0.0000000    1.4700000  
C   -0.8785127   -0.7372425    2.1869543  
O   -1.8187535   -1.5261249    1.6395491  
C   -0.8723269   -0.7321790    3.6796354  
O   -1.7010379   -1.4274584    4.2670412  
C    0.1115397    0.0933559    4.4024240  
H    2.4028853    2.0163452    4.9860947  
H   -2.2861435   -1.9184361    2.3990168  
H    0.0832434    0.0693689    5.4835595  
H    3.3664920    2.8238276    2.6198634  
