60

C    3.3321174    0.0004717   -1.3379335  
C    2.6974184    0.0000121   -2.5332312  
C    1.2800440   -0.0002115   -2.2052839  
C    1.2395035    0.0000645   -0.7271295  
N    2.4394064    0.0005461   -0.2131037  
C    0.0000000    0.0000000    0.0000000  
C   -1.1468696    0.0000636   -0.7169542  
O   -2.3742199    0.0000073   -0.1695491  
C   -1.1388768    0.0001610   -2.2096354  
O   -2.2206230    0.0000908   -2.7970413  
C    0.1454524    0.0001820   -2.9324241  
H    3.1367989   -0.0000646   -3.5160945  
H   -2.9844342    0.0001027   -0.9290167  
C    6.6781269    0.0000532   -4.1292979  
C    7.7444188    0.0009689   -3.2958712  
C    7.1743138    0.0014032   -1.9574093  
C    5.7117407    0.0007374   -2.1752734  
N    5.4148496   -0.0001358   -3.4464323  
C    4.7795904    0.0008677   -1.0815724  
C    5.2855490    0.0012392    0.1727563  
O    4.5324884    0.0014071    1.2858331  
C    6.7567497    0.0015424    0.4252021  
O    7.1465024    0.0019991    1.5928122  
C    7.6924433    0.0014451   -0.7133948  
H    8.7888466    0.0012176   -3.5571114  
H    5.1738998    0.0016451    2.0191439  
H    8.7505418    0.0015574   -0.4883235  
H    6.6781272   -0.0005120   -5.2077101  
C    2.4320892   -2.0124020   -6.1859208  
C    2.0200842   -1.6305786   -4.9546438  
C    0.9177879   -0.7123201   -5.1959804  
C    0.7970297   -0.6538274   -6.6685904  
N    1.6820136   -1.4139316   -7.2542822  
C   -0.1937168    0.1588225   -7.3190579  
C   -1.0262430    0.8799466   -6.5340646  
O   -1.9968160    1.6808100   -7.0059188  
C   -0.9297028    0.8417626   -5.0449764  
O   -1.7202572    1.5240004   -4.3932128  
C    0.0950453    0.0004357   -4.4015596  
H    2.4153107   -1.9345886   -4.0004690  
H   -0.2592089    0.1826846   -8.3970433  
H   -2.4168999    2.0561008   -6.2110358  
H    3.2315443   -2.6908671   -6.4379722  
C    0.0000000    0.0000000    1.4700000  
C    1.0521667    0.0011902    2.3562342  
C    0.4917218    0.0011957    3.6679131  
C   -0.9187428   -0.0003148    3.5178682  
N   -1.1833171    0.0009411    2.1707914  
C   -1.7951701   -0.0010350    4.6072090  
C   -1.2375837   -0.0005224    5.8710424  
O   -2.0474215   -0.0015360    6.9697579  
C    0.1673580    0.0013566    6.0411963  
O    0.5673524    0.0020687    7.3615553  
C    1.0325770    0.0023412    4.9669890  
H    2.0953057    0.0030649    2.0900562  
H   -2.0989778   -0.0102372    1.7591824  
H   -2.8710934   -0.0020419    4.4995513  
H   -1.4634884   -0.0006497    7.7393593  
H    1.5290710    0.0033153    7.3880045  
H    2.1042148    0.0039609    5.1284455  
