58

C   -1.0965489    0.0022444   -0.8010316  
C    0.0000000    0.0000000    0.0000000  
C    1.1546538   -0.0026532   -0.8669508  
C    0.6372003   -0.0017350   -2.2486280  
N   -0.7342859    0.0008601   -2.1395018  
C    1.4147721   -0.0032061   -3.3608712  
C    2.8576001   -0.0060978   -3.1854449  
O    3.6427720   -0.0076576   -4.1244888  
C    3.4275768   -0.0073672   -1.7311654  
O    4.6406725   -0.0101061   -1.5710036  
C    2.4891815   -0.0052939   -0.6116730  
H    2.8919055   -0.0059852    0.3920872  
H   -2.1388220    0.0045762   -0.5261662  
H   -1.3735808    0.0035913   -2.9130273  
C    0.8712826   -0.0020623   -4.7267106  
C   -0.4275879    0.0005450   -5.1068522  
C   -0.3927372    0.0005281   -6.5612544  
C    1.0467481   -0.0022225   -6.8995719  
N    1.7925756   -0.0038308   -5.8282514  
C    1.5084831   -0.0031080   -8.2604121  
C    0.5746238   -0.0017155   -9.2387988  
O    0.8627955   -0.0023100  -10.5514290  
C   -0.8856642    0.0006934   -8.9294227  
O   -1.6794896    0.0019877   -9.8701987  
C   -1.3340921    0.0016052   -7.5255575  
H   -1.3014231    0.0021767   -4.4779752  
H   -0.0042864   -0.0009955  -10.9956357  
H   -2.4004290    0.0032431   -7.3434791  
C    4.7706212   -2.1498648   -6.3271798  
C    5.8436784   -1.7441428   -7.0451744  
C    5.3046589   -0.8324554   -8.0425628  
C    3.8507896   -0.8036947   -7.7741939  
N    3.5318127   -1.5739453   -6.7697255  
C    2.9481723   -0.0055778   -8.5573784  
C    3.4741139    0.7306517   -9.5627069  
O    2.7493836    1.5206588  -10.3730745  
C    4.9372575    0.7230789   -9.8581965  
O    5.3463115    1.4175521  -10.7885746  
C    5.8425058   -0.1038849   -9.0405285  
H    6.8737844   -2.0283544   -6.9140984  
H    3.3994336    1.9117958  -10.9843028  
H    6.8956731   -0.0817082   -9.2866533  
H    4.7496454   -2.8320712   -5.4922378  
C    2.5528530    2.1414826    2.8079335  
C    2.0663498    1.7338582    4.0032312  
C    0.9804344    0.8229586    3.6752840  
C    0.9495562    0.7966882    2.1971295  
N    1.8690446    1.5676019    1.6831036  
C    0.0000000    0.0000000    1.4700000  
C   -0.8785127   -0.7372425    2.1869543  
O   -1.8187535   -1.5261249    1.6395491  
C   -0.8723269   -0.7321790    3.6796354  
O   -1.7010379   -1.4274584    4.2670412  
C    0.1115397    0.0933559    4.4024240  
H    2.4028853    2.0163452    4.9860947  
H   -2.2861435   -1.9184361    2.3990168  
H    0.0832434    0.0693689    5.4835595  
H    3.3664920    2.8238276    2.6198634  
