62

C    3.3041286    0.0001177   -1.5420405  
C    2.5845377   -0.0004779   -0.3695834  
C    1.2040013   -0.0000007   -0.7283580  
C    1.1422395    0.0006038   -2.1454365  
N    2.4348658    0.0026110   -2.6077446  
C   -0.0655157    0.0008800   -2.8497917  
C   -1.2321756    0.0002327   -2.1101405  
O   -2.4392796    0.0001150   -2.7472537  
C   -1.1911200   -0.0000007   -0.6955273  
O   -2.4371524   -0.0002319   -0.1032878  
C    0.0000000    0.0000000    0.0000000  
H    3.0031532   -0.0000662    0.6222604  
H    2.7054651   -0.0071097   -3.5745243  
H   -0.1193524    0.0014848   -3.9297472  
H   -3.1132973   -0.0000645   -2.0551807  
H   -2.3200290   -0.0004070    0.8516394  
C    6.5771485   -0.0035574    1.3345587  
C    7.6645483   -0.0027623    0.5288665  
C    7.1290988   -0.0009889   -0.8238311  
C    5.6614008   -0.0010505   -0.6437016  
N    5.3318743   -0.0024721    0.6193897  
C    4.7577233    0.0005129   -1.7610426  
C    5.2958140    0.0024561   -3.0019248  
O    4.5716659    0.0040582   -4.1340236  
C    6.7730280    0.0029429   -3.2164016  
O    7.1927183    0.0046218   -4.3735869  
C    7.6790911    0.0012688   -2.0540887  
H    8.7019025   -0.0032211    0.8169145  
H    5.2317480    0.0052553   -4.8505732  
H    6.5493783   -0.0048795    2.4126125  
C   11.0360127   -2.1223592   -0.1098247  
C   12.0431278   -1.6214902   -0.9018576  
C   11.4324550   -0.7455886   -1.8476248  
C   10.0392246   -0.7518518   -1.5815503  
N    9.8325320   -1.5994961   -0.5216472  
C    9.1243215    0.0019915   -2.3228064  
C    9.6250320    0.7764970   -3.3512064  
O    8.7758524    1.5323832   -4.1065493  
C   11.0119037    0.7957134   -3.6323405  
O   11.3538588    1.6162085   -4.6874225  
C   11.9150257    0.0520721   -2.9016590  
H   13.0891107   -1.8591479   -0.8100336  
H    8.9423087   -1.7971292   -0.1016186  
H    9.3232104    1.9881962   -4.7591588  
H   12.3069552    1.5716965   -4.8108358  
H   12.9715413    0.0868836   -3.1404902  
H   11.0807646   -2.8123106    0.7153561  
C    2.5528530    2.1414826    2.8079335  
C    2.0663498    1.7338582    4.0032312  
C    0.9804344    0.8229586    3.6752840  
C    0.9495562    0.7966882    2.1971295  
N    1.8690446    1.5676019    1.6831036  
C    0.0000000    0.0000000    1.4700000  
C   -0.8785127   -0.7372425    2.1869543  
O   -1.8187535   -1.5261249    1.6395491  
C   -0.8723269   -0.7321790    3.6796354  
O   -1.7010379   -1.4274584    4.2670412  
C    0.1115397    0.0933559    4.4024240  
H    2.4028853    2.0163452    4.9860947  
H   -2.2861435   -1.9184361    2.3990168  
H    0.0832434    0.0693689    5.4835595  
H    3.3664920    2.8238276    2.6198634  
