62

C    1.1243414    0.0099912   -0.7919008  
C    0.7474077    0.0234538   -2.1148545  
C   -0.6787381    0.0234497   -2.1414700  
C   -1.1201746    0.0098604   -0.7935548  
N    0.0000000    0.0000000    0.0000000  
C   -2.4730815    0.0063734   -0.4408243  
C   -3.3971956    0.0171016   -1.4675064  
O   -4.7313519    0.0146310   -1.1793472  
C   -2.9763648    0.0303539   -2.8186327  
O   -4.0166472    0.0395161   -3.7247626  
C   -1.6418562    0.0335279   -3.1673481  
H    1.4178718    0.0310959   -2.9571207  
H   -2.8160167   -0.0041081    0.5845958  
H   -5.1938816    0.0230922   -2.0274387  
H   -3.6464673    0.0482334   -4.6127345  
H    2.1062466    0.0052798   -0.3505407  
C    1.5236698   -1.9535955   -5.5953572  
C    0.7582187   -1.5822012   -4.5428700  
C   -0.2204381   -0.6598275   -5.0978089  
C    0.1097185   -0.5877875   -6.5373887  
N    1.1311693   -1.3441370   -6.8349859  
C   -0.6387792    0.2324873   -7.4495222  
C   -1.6704573    0.9479597   -6.9464571  
O   -2.4537270    1.7547954   -7.6823555  
C   -2.0287020    0.8961218   -5.4983086  
O   -2.9800439    1.5738411   -5.1098947  
C   -1.2456326    0.0471742   -4.5828769  
H    0.8467098   -1.8955443   -3.5166819  
H   -3.0949060    2.1236233   -7.0483140  
H    2.3626182   -2.6311775   -5.6000643  
C    0.6734862   -2.9264631  -10.3285238  
C    0.2611497   -2.2547199   -9.2010458  
C    0.1079093   -0.8842387   -9.5655980  
C    0.4434057   -0.7790667  -10.9397556  
N    0.7839673   -2.0369241  -11.3715304  
C    0.4044718    0.4320634  -11.6372055  
C    0.0195570    1.5574726  -10.9347296  
O   -0.0360433    2.7657940  -11.5670911  
C   -0.3186019    1.4728289   -9.5631241  
O   -0.6810259    2.6810597   -9.0044018  
C   -0.2801568    0.2783996   -8.8743670  
H    0.0927168   -2.6977715   -8.2344387  
H    1.0578328   -2.2748199  -12.3076846  
H    0.6591083    0.5189020  -12.6844977  
H   -0.3228247    3.4077443  -10.9045808  
H   -0.8936924    2.5358907   -8.0774160  
H    0.8988972   -3.9694817  -10.4708674  
C    0.0000000    0.0000000    1.4700000  
C    1.0662921    0.0000102    2.3034270  
C    0.4961870   -0.0000064    3.6418889  
C   -0.9663858    0.0000850    3.4240247  
N   -1.2632773    0.0000084    2.1528658  
C   -1.8985362    0.0000517    4.5177257  
C   -1.3925775   -0.0004564    5.7720543  
O   -2.1456383   -0.0005410    6.8851312  
C    0.0786232   -0.0009323    6.0245000  
O    0.4683759   -0.0012588    7.1921102  
C    1.0143166   -0.0008442    4.8859032  
H    2.1107198   -0.0000632    2.0421868  
H   -2.9622183    0.0003270    4.3293377  
H   -1.5042274   -0.0009692    7.6184419  
H    2.0724152   -0.0013148    5.1109744  
