58

C    6.1745029   -2.1408800   -4.0544034  
C    6.2180776   -1.7334917   -5.3442539  
C    5.0926415   -0.8229054   -5.4882167  
C    4.4611849   -0.7965392   -4.1513726  
N    5.0910257   -1.5671311   -3.3066964  
C    3.2973506   -0.0000934   -3.8752374  
C    2.7877448    0.7368254   -4.8884432  
O    1.7057655    1.5254555   -4.7725802  
C    3.4025817    0.7316576   -6.2486305  
O    2.8855808    1.4266382   -7.1232348  
C    4.5959745   -0.0936237   -6.5067944  
H    6.9265061   -2.0159446   -6.1041389  
H    1.5889236    1.9175676   -5.6567460  
H    5.0113661   -0.0697229   -7.5053479  
C    8.1555446   -3.7170106   -3.8800208  
C    7.0826284   -3.0706324   -3.3675495  
C    7.0175914   -3.4952693   -1.9776022  
C    8.1579323   -4.4229505   -1.8175566  
N    8.8287085   -4.5568245   -2.9293689  
C    8.4435150   -5.0687394   -0.5659636  
C    7.6272430   -4.7996946    0.4783778  
O    7.7758301   -5.3315364    1.7035746  
C    6.4684801   -3.8677218    0.3485433  
O    5.7675574   -3.6694422    1.3408198  
C    6.1963643   -3.2177152   -0.9458169  
H    9.2834446   -5.7422450   -0.4775494  
H    7.0476434   -4.9526646    2.2283145  
H    5.3474722   -2.5492629   -0.9985806  
H    8.5416132   -3.6692259   -4.8858243  
C    3.3321174    0.0004714   -1.3379332  
C    2.6974186    0.0000115   -2.5332308  
C    1.2800441   -0.0002119   -2.2052838  
C    1.2395035    0.0000643   -0.7271293  
N    2.4394063    0.0005458   -0.2131034  
C    0.0000000    0.0000000    0.0000000  
C   -1.1468701    0.0000634   -0.7169542  
O   -2.3742201    0.0000072   -0.1695492  
C   -1.1388767    0.0001606   -2.2096354  
O   -2.2206229    0.0000903   -2.7970413  
C    0.1454526    0.0001815   -2.9324239  
H   -2.9844344    0.0001023   -0.9290168  
H    0.1083580    0.0003680   -4.0135594  
H    4.3940040    0.0007617   -1.1498630  
C    2.3971438    2.0127888    3.1728260  
C    1.9431056    1.6308205    1.9564670  
C    0.8496017    0.7127664    2.2356185  
C    0.7794028    0.6545384    3.7115134  
N    1.6840587    1.4146091    4.2663826  
C   -0.1885723   -0.1578550    4.3957118  
C   -1.0476298   -0.8789867    3.6398520  
O   -2.0015663   -1.6796266    4.1448486  
C   -1.0022026   -0.8410666    2.1483229  
O   -1.8147390   -1.5232959    1.5241687  
C    0.0000000    0.0000000    1.4700000  
H    2.3054237    1.9346118    0.9892483  
H   -0.2170646   -0.1815267    5.4753125  
H   -2.4487139   -2.0549881    3.3649027  
H    3.2048689    2.6911772    3.3971983  
