58

C   -4.4297975    2.1087666   -0.2339395  
C   -5.6380117    1.6447699   -0.6450362  
C   -5.3911867    0.7496341   -1.7507688  
C   -3.9296540    0.7300036   -1.9515851  
N   -3.4052343    1.5747185   -1.0006224  
C   -3.2941073    0.0012875   -2.9038235  
C   -4.1035800   -0.8182218   -3.7902173  
O   -3.6253058   -1.5102284   -4.6794206  
C   -5.6534086   -0.8124886   -3.5957845  
O   -6.3452683   -1.4982644   -4.3362582  
C   -6.2225101    0.0137341   -2.5340250  
H   -7.2964261    0.0119728   -2.4058660  
H   -4.2016944    2.7960858    0.5644658  
H   -2.4284973    1.7712465   -0.8805867  
C    0.0000000    0.0000000    0.0000000  
C    1.0541689   -0.0001722   -0.8560390  
C    0.5103139   -0.0000454   -2.1935956  
C   -0.9576368    0.0002458   -2.0455729  
N   -1.2018455   -0.0001391   -0.6915967  
C   -1.8348312    0.0008316   -3.0810606  
C   -1.2972849    0.0009739   -4.4314602  
O   -2.0050671    0.0014266   -5.4301317  
C    0.2542626    0.0004186   -4.6117571  
O    0.7184667    0.0002261   -5.7439121  
C    1.0974551    0.0000875   -3.4189129  
H    2.0940753   -0.0005483   -0.5817984  
H    2.1707276   -0.0000910   -3.5523671  
H   -2.1128191    0.0014911   -0.2706788  
C   -7.3652340    3.2059305    0.3642220  
C   -6.9435640    1.9943663   -0.0669230  
C   -8.0683053    1.1013138    0.1652723  
C   -9.1130624    1.9639778    0.7576219  
N   -8.7067169    3.1987705    0.8766160  
C  -10.4002451    1.4492905    1.1362306  
C  -10.6332661    0.1327331    0.9319952  
O  -11.7888535   -0.4812720    1.2380280  
C   -9.5992638   -0.7636986    0.3358315  
O   -9.8802471   -1.9518047    0.1787537  
C   -8.2866349   -0.2118817   -0.0442048  
H  -11.1448969    2.1024959    1.5671901  
H  -11.6522886   -1.4103301    0.9785023  
H   -7.5649497   -0.8941544   -0.4730463  
H   -6.8216422    4.1373171    0.3632012  
C    3.1301144    0.0010313    3.1728260  
C    2.5367765    0.0002768    1.9564670  
C    1.1089900   -0.0001027    2.2356185  
C    1.0177864    0.0004150    3.7115134  
N    2.1993570    0.0011613    4.2663826  
C   -0.2459220    0.0002880    4.3957118  
C   -1.3675327    0.0000606    3.6398520  
O   -2.6129319   -0.0000866    4.1448486  
C   -1.3083589   -0.0000910    2.1483229  
O   -2.3693264   -0.0004206    1.5241687  
C    0.0000000    0.0000000    1.4700000  
H    3.0096015    0.0001008    0.9892483  
H   -0.2829642    0.0004689    5.4753125  
H   -3.1967446   -0.0002093    3.3649027  
H    4.1849273    0.0015113    3.3971983  
