58

C    1.9999929   -2.1070892   -5.1447764  
C    1.9105680   -1.6426499   -6.4177158  
C    0.7784262   -0.7475275   -6.4606979  
C    0.2115589   -0.7283878   -5.0986827  
N    0.9973795   -1.5733448   -4.3494006  
C   -0.8712820    0.0001708   -4.7267112  
C   -1.5219791    0.8200161   -5.7351668  
O   -2.5037630    1.5119145   -5.4992076  
C   -0.9387690    0.8148040   -7.1841817  
O   -1.4783577    1.5008660   -8.0417500  
C    0.2330312   -0.0112905   -7.4640111  
H    2.5631048   -1.8981144   -7.2335260  
H    0.6308010   -0.0091677   -8.4697441  
H    0.8643851   -1.7702172   -3.3744130  
C    1.0965515    0.0001358   -0.8010305  
C    0.0000000    0.0000000    0.0000000  
C   -1.1546563    0.0001469   -0.8669514  
C   -0.6372011    0.0003518   -2.2486282  
N    0.7342874    0.0007336   -2.1395013  
C   -1.4147735    0.0001349   -3.3608718  
C   -2.8576044   -0.0001050   -3.1854466  
O   -3.6427774   -0.0002497   -4.1244912  
C   -3.4275835   -0.0000731   -1.7311675  
O   -4.6406827    0.0000327   -1.5710069  
C   -2.4891864   -0.0001094   -0.6116751  
H   -2.8919123   -0.0002921    0.3920859  
H    2.1388273    0.0000663   -0.5261648  
H    1.3735875   -0.0006099   -2.9130261  
C    4.0082292   -3.6576718   -5.1872309  
C    2.9735234   -3.0445983   -4.5666631  
C    3.0293290   -3.5148426   -3.1910702  
C    4.1905291   -4.4297318   -3.1567615  
N    4.7683846   -4.5173976   -4.3239750  
C    4.5870073   -5.1111786   -1.9552955  
C    3.8568808   -4.8884650   -0.8387613  
O    4.1132318   -5.4572716    0.3515258  
C    2.6797765   -3.9705435   -0.8413157  
O    2.0611588   -3.8151115    0.2114773  
C    2.2931169   -3.2832950   -2.0863493  
H    5.4397343   -5.7743168   -1.9590494  
H    3.4264028   -5.1066787    0.9469273  
H    1.4344800   -2.6264952   -2.0465156  
H    4.3089034   -3.5715553   -6.2192929  
C    2.3971438    2.0127888    3.1728260  
C    1.9431056    1.6308205    1.9564670  
C    0.8496017    0.7127664    2.2356185  
C    0.7794028    0.6545384    3.7115134  
N    1.6840587    1.4146091    4.2663826  
C   -0.1885723   -0.1578550    4.3957118  
C   -1.0476298   -0.8789867    3.6398520  
O   -2.0015663   -1.6796266    4.1448486  
C   -1.0022026   -0.8410666    2.1483229  
O   -1.8147390   -1.5232959    1.5241687  
C    0.0000000    0.0000000    1.4700000  
H    2.3054237    1.9346118    0.9892483  
H   -0.2170646   -0.1815267    5.4753125  
H   -2.4487139   -2.0549881    3.3649027  
H    3.2048689    2.6911772    3.3971983  
