58

C   -1.0547456    0.2998953   -0.8010305  
C    0.0000000    0.0000000    0.0000000  
C    1.1105557   -0.3160646   -0.8669513  
C    0.6127905   -0.1746817   -2.2486280  
N   -0.7064683    0.2002017   -2.1395010  
C    1.3607508   -0.3872233   -3.3608717  
C    2.7485910   -0.7817632   -3.1854462  
O    3.5038421   -0.9964538   -4.1244910  
C    3.2968117   -0.9377457   -1.7311670  
O    4.4635906   -1.2697611   -1.5710063  
C    2.3942318   -0.6809569   -0.6116750  
H    0.9762674   -0.2778792   -4.3654242  
H    2.7816404   -0.7909706    0.3920860  
H   -2.0572302    0.5851375   -0.5261644  
C   -3.8097758    3.2611810   -2.8440010  
C   -2.8222860    2.4984681   -2.3080835  
C   -2.5047473    1.4779108   -3.2788909  
C   -3.3945475    1.7102599   -4.4326065  
N   -4.1607534    2.8051962   -4.1056004  
C   -3.4035712    0.9560640   -5.5607961  
C   -2.4750959   -0.1590619   -5.6442439  
O   -2.4065511   -0.8972941   -6.6182132  
C   -1.5237104   -0.4237429   -4.4340311  
O   -0.7379337   -1.3598915   -4.4926969  
C   -1.6066721    0.4583229   -3.2725972  
H   -2.3682675    2.6350705   -1.3427749  
H   -4.0643399    1.1436055   -6.3957349  
H   -4.8648926    3.2117884   -4.6937484  
C   -3.2511731    5.2326207    1.0016309  
C   -4.1614927    6.2324166    0.9441356  
C   -4.8018162    6.0824875   -0.3535574  
C   -4.1376409    4.9106748   -0.9637291  
N   -3.2278044    4.4082308   -0.1739584  
C   -4.4930295    4.4295095   -2.2703528  
C   -5.4678932    5.0887713   -2.9369480  
O   -5.9000244    4.7494951   -4.1634037  
C   -6.1572846    6.2744447   -2.3478128  
O   -7.0354109    6.8257433   -3.0112765  
C   -5.7747717    6.7486882   -1.0059105  
H   -4.3724757    6.9793438    1.6902324  
H   -6.5944546    5.4006570   -4.3705444  
H   -6.2981615    7.6107363   -0.6145464  
H   -2.5699184    5.0001237    1.8046319  
C    0.8175213    0.6860729    2.3021913  
C    0.0000000    0.0000000    1.4700000  
C   -0.8887526   -0.7456559    2.3478473  
C   -0.4549825   -0.3816753    3.7138435  
N    0.5448156    0.4573574    3.6934124  
C   -1.0945674   -0.9182058    4.8835240  
C   -2.1210866   -1.7789155    4.6970523  
O   -2.8083856   -2.3554314    5.6976972  
C   -2.5824069   -2.1655116    3.3310774  
O   -3.5227682   -2.9541547    3.2362962  
C   -1.9100805   -1.6015804    2.1470656  
H   -0.7567140   -0.6349833    5.8697035  
H   -3.4728268   -2.9124471    5.2533954  
H   -2.2742832   -1.9066565    1.1752040  
H    1.6189533    1.3585343    2.0405121  
