58

C    1.1319246    0.0015676   -0.8009264  
C    0.7969921    0.0034954   -2.1169399  
C   -0.6453335    0.0035693   -2.1842671  
C   -1.1266829    0.0015408   -0.7896032  
N    0.0000000    0.0000000    0.0000000  
C   -2.4346128    0.0013914   -0.4276300  
C   -3.4350110    0.0031336   -1.4820189  
O   -4.6384608    0.0030878   -1.2583926  
C   -2.9478954    0.0050440   -2.9661081  
O   -3.7809368    0.0062135   -3.8623782  
C   -1.5113817    0.0053053   -3.2312129  
H    1.4821240    0.0045431   -2.9459191  
H   -2.7664563    0.0000176    0.6013434  
H    2.1104319    0.0009432   -0.3488054  
C    1.7765376   -2.1310607   -5.1320084  
C    1.6763837   -1.7219598   -6.4181596  
C    0.5413924   -0.8120091   -6.4350136  
C    0.0622656   -0.7878465   -5.0362863  
N    0.7824508   -1.5590785   -4.2678307  
C   -1.0641729    0.0073880   -4.6315341  
C   -1.6835601    0.7452547   -5.5808744  
O   -2.7464415    1.5329418   -5.3445031  
C   -1.2235539    0.7423083   -7.0009259  
O   -1.8348759    1.4380505   -7.8117584  
C   -0.0657273   -0.0817637   -7.3911398  
H   -2.9609648    1.9261206   -6.2096869  
H    0.2362041   -0.0562576   -8.4296086  
H    2.4949782   -2.8133092   -4.7061525  
C    3.3689105   -5.5942720   -7.4802552  
C    4.0423208   -5.3082454   -8.6188017  
C    3.8212032   -3.8871999   -8.8384301  
C    2.9694887   -3.4632121   -7.7064406  
N    2.7011372   -4.4595752   -6.9069175  
C    2.5227103   -2.1055627   -7.5572292  
C    2.9095420   -1.2120099   -8.4959832  
O    2.5665190    0.0872898   -8.4819709  
C    3.7691877   -1.6090430   -9.6499051  
O    4.0828005   -0.7430743  -10.4665846  
C    4.2144473   -3.0078054   -9.7807971  
H    4.6180825   -5.9787473   -9.2336182  
H    2.9900167    0.4640940   -9.2743226  
H    4.8362033   -3.2549408  -10.6308395  
H    3.2849381   -6.5456900   -6.9795303  
C    2.3971438    2.0127888    3.1728260  
C    1.9431056    1.6308205    1.9564670  
C    0.8496017    0.7127664    2.2356185  
C    0.7794028    0.6545384    3.7115134  
N    1.6840587    1.4146091    4.2663826  
C   -0.1885723   -0.1578550    4.3957118  
C   -1.0476298   -0.8789867    3.6398520  
O   -2.0015663   -1.6796266    4.1448486  
C   -1.0022026   -0.8410666    2.1483229  
O   -1.8147390   -1.5232959    1.5241687  
C    0.0000000    0.0000000    1.4700000  
H    2.3054237    1.9346118    0.9892483  
H   -0.2170646   -0.1815267    5.4753125  
H   -2.4487139   -2.0549881    3.3649027  
H    3.2048689    2.6911772    3.3971983  
