60

C    3.3321174    0.0004717   -1.3379335  
C    2.6974184    0.0000121   -2.5332312  
C    1.2800440   -0.0002115   -2.2052839  
C    1.2395035    0.0000645   -0.7271295  
N    2.4394064    0.0005461   -0.2131037  
C    0.0000000    0.0000000    0.0000000  
C   -1.1468696    0.0000636   -0.7169542  
O   -2.3742199    0.0000073   -0.1695491  
C   -1.1388768    0.0001610   -2.2096354  
O   -2.2206230    0.0000908   -2.7970413  
C    0.1454524    0.0001820   -2.9324241  
H    3.1367989   -0.0000646   -3.5160945  
H   -2.9844342    0.0001027   -0.9290167  
C    5.7851541    0.0006217   -1.9873438  
C    4.7795904    0.0008677   -1.0815724  
C    5.4416654    0.0017644    0.2138643  
C    6.8854800    0.0018492   -0.1054843  
N    7.0929847    0.0012619   -1.3942557  
C    7.8916459    0.0026974    0.9205347  
C    7.4744099    0.0038168    2.2070984  
O    8.3032742    0.0046905    3.2649380  
C    6.0244000    0.0041345    2.5615463  
O    5.7170382    0.0050467    3.7534978  
C    5.0115684    0.0032050    1.4909880  
H    8.9395974    0.0025331    0.6584130  
H    7.7145740    0.0054051    4.0412007  
H    3.9717453    0.0035869    1.7893136  
H    5.7099337    0.0000069   -3.0631298  
C    0.8834475   -0.6856105   -5.2614098  
C    0.0950453    0.0004357   -4.4015596  
C   -0.8231754    0.7463701   -5.2482897  
C   -0.4365554    0.3825632   -6.6284180  
N    0.5632305   -0.4566160   -6.6424231  
C   -1.1157933    0.9193870   -7.7753885  
C   -2.1351865    1.7802113   -7.5536831  
O   -2.8563081    2.3569979   -8.5300748  
C   -2.5493380    2.1666375   -6.1726274  
O   -3.4857787    2.9553987   -6.0455245  
C   -1.8368906    1.6024060   -5.0124612  
H   -0.8119973    0.6362863   -8.7726206  
H   -3.5050402    2.9140321   -8.0631571  
H   -2.1675078    1.9073665   -4.0286311  
H    1.6932812   -1.3582316   -5.0274783  
C    2.5311839    2.1237619    3.0120429  
C    1.9795631    1.6616747    1.8395852  
C    0.9223175    0.7739173    2.1983588  
C    0.8753926    0.7337535    3.6154372  
N    1.8668922    1.5631002    4.0777464  
C   -0.0496243   -0.0427881    4.3197917  
C   -0.9437528   -0.7922060    3.5801400  
O   -1.8685244   -1.5680278    4.2172520  
C   -0.9124520   -0.7656372    2.1655264  
O   -1.8671164   -1.5663939    1.5732860  
C    0.0000000    0.0000000    1.4700000  
H    2.3005065    1.9304404    0.8477417  
H    2.0679347    1.7444845    5.0445261  
H   -0.0904770   -0.0778569    5.3997470  
H   -2.3849669   -2.0011402    3.5251786  
H   -1.7775064   -1.4909735    0.6183591  
H    3.3468514    2.8078103    3.1724291  
