60

C    1.1188647    0.0008222   -0.8003801  
C    0.0000000    0.0000000    0.0000000  
C   -1.1323860    0.0008898   -0.8673529  
C   -0.6382656    0.0019678   -2.1969277  
N    0.7324024    0.0038479   -2.1202234  
C   -1.4770905    0.0027316   -3.3154808  
C   -2.8395467    0.0020941   -3.0876861  
O   -3.7039192    0.0024422   -4.1440353  
C   -3.3517863    0.0013928   -1.7684335  
O   -4.7300488    0.0012364   -1.7073129  
C   -2.5248542    0.0009121   -0.6644819  
H    1.3576321   -0.0056169   -2.9057034  
H   -4.5940020    0.0021824   -3.7685138  
H   -4.9934596    0.0007261   -0.7819928  
H   -2.9462578    0.0005602    0.3339650  
H    2.1619895    0.0009355   -0.5342059  
C    1.8844594   -2.1024767   -5.2000013  
C    1.7579335   -1.6369217   -6.4693810  
C    0.6249294   -0.7419063   -6.4785605  
C    0.0979881   -0.7240449   -5.1005895  
N    0.9053936   -1.5695646   -4.3752742  
C   -0.9736283    0.0040460   -4.6965761  
C   -1.6535172    0.8247009   -5.6849143  
O   -2.6280796    1.5162653   -5.4198320  
C   -1.1127770    0.8208465   -7.1503115  
O   -1.6771950    1.5075990   -7.9911824  
C    0.0504558   -0.0048507   -7.4649007  
H    2.3864481   -1.8915808   -7.3040860  
H    2.6104410   -2.7902100   -4.7976788  
H    0.8008857   -1.7673174   -3.3970009  
C    1.0097050   -1.0493622   -9.5691721  
C    0.5510331   -0.0006856   -8.8470383  
C    0.6592883    1.1442640   -9.7380328  
C    1.2174816    0.5904979  -10.9903697  
N    1.4248985   -0.6949291  -10.8973915  
C    1.4785262    1.4159194  -12.1373751  
C    1.1944721    2.7345412  -12.0379532  
O    1.3876904    3.6207831  -13.0295590  
C    0.6300739    3.3233402  -10.7877804  
O    0.3958601    4.5316366  -10.7681597  
C    0.3712157    2.4558428   -9.6248680  
H    1.8869744    0.9845931  -13.0396153  
H    1.0935721    4.4733011  -12.6609668  
H   -0.0381628    2.9208867   -8.7380909  
H    1.0924986   -2.0803696   -9.2639796  
C    2.5528530    2.1414826    2.8079335  
C    2.0663498    1.7338582    4.0032312  
C    0.9804344    0.8229586    3.6752840  
C    0.9495562    0.7966882    2.1971295  
N    1.8690446    1.5676019    1.6831036  
C    0.0000000    0.0000000    1.4700000  
C   -0.8785127   -0.7372425    2.1869543  
O   -1.8187535   -1.5261249    1.6395491  
C   -0.8723269   -0.7321790    3.6796354  
O   -1.7010379   -1.4274584    4.2670412  
C    0.1115397    0.0933559    4.4024240  
H    2.4028853    2.0163452    4.9860947  
H   -2.2861435   -1.9184361    2.3990168  
H    0.0832434    0.0693689    5.4835595  
H    3.3664920    2.8238276    2.6198634  
