58

C   -4.4297967    2.1087675   -0.2339406  
C   -5.6380115    1.6447709   -0.6450375  
C   -5.3911861    0.7496348   -1.7507698  
C   -3.9296536    0.7300043   -1.9515859  
N   -3.4052339    1.5747191   -1.0006232  
C   -3.2941067    0.0012878   -2.9038240  
C   -4.1035795   -0.8182215   -3.7902179  
O   -3.6253054   -1.5102282   -4.6794210  
C   -5.6534080   -0.8124876   -3.5957851  
O   -6.3452677   -1.4982637   -4.3362591  
C   -6.2225095    0.0137348   -2.5340262  
H   -6.5931603    1.9005378   -0.2220870  
H   -4.2016938    2.7960868    0.5644649  
H   -2.4284968    1.7712471   -0.8805876  
C    0.0000000    0.0000000    0.0000000  
C    1.0541691   -0.0001723   -0.8560389  
C    0.5103142   -0.0000457   -2.1935955  
C   -0.9576364    0.0002461   -2.0455731  
N   -1.2018456   -0.0001389   -0.6915969  
C   -1.8348306    0.0008318   -3.0810610  
C   -1.2972837    0.0009736   -4.4314604  
O   -2.0050661    0.0014265   -5.4301319  
C    0.2542631    0.0004179   -4.6117571  
O    0.7184682    0.0002250   -5.7439121  
C    1.0974557    0.0000870   -3.4189128  
H    2.0940756   -0.0005486   -0.5817979  
H    2.1707288   -0.0000916   -3.5523668  
H   -2.1128190    0.0014915   -0.2706792  
C   -7.6821508    0.0113412   -2.3598358  
C   -8.4139887    0.6950643   -1.4496080  
C   -9.7941931    0.3265905   -1.7248586  
C   -9.7091601   -0.6126597   -2.8637891  
N   -8.4736034   -0.8013958   -3.2403105  
C  -10.8788267   -1.2133547   -3.4435580  
C  -12.0788584   -0.8907177   -2.9095525  
O  -13.2516842   -1.3764222   -3.3507012  
C  -12.1974255    0.0537248   -1.7597130  
O  -13.3217960    0.3019820   -1.3245347  
C  -10.9828663    0.6568112   -1.1826024  
H   -8.0608302    1.3664583   -0.6856806  
H  -10.7872688   -1.8962326   -4.2755471  
H  -13.9222175   -0.9658501   -2.7754028  
H  -11.1113340    1.3358922   -0.3503916  
C    3.1301144    0.0010313    3.1728260  
C    2.5367765    0.0002768    1.9564670  
C    1.1089900   -0.0001027    2.2356185  
C    1.0177864    0.0004150    3.7115134  
N    2.1993570    0.0011613    4.2663826  
C   -0.2459220    0.0002880    4.3957118  
C   -1.3675327    0.0000606    3.6398520  
O   -2.6129319   -0.0000866    4.1448486  
C   -1.3083589   -0.0000910    2.1483229  
O   -2.3693264   -0.0004206    1.5241687  
C    0.0000000    0.0000000    1.4700000  
H    3.0096015    0.0001008    0.9892483  
H   -0.2829642    0.0004689    5.4753125  
H   -3.1967446   -0.0002093    3.3649027  
H    4.1849273    0.0015113    3.3971983  
