60

C    1.1243415    0.0100053   -0.7919006  
C    0.7474076    0.0234629   -2.1148549  
C   -0.6787379    0.0234402   -2.1414703  
C   -1.1201745    0.0098455   -0.7935549  
N    0.0000000    0.0000000    0.0000000  
C   -2.4730814    0.0063409   -0.4408250  
C   -3.3971956    0.0170567   -1.4675066  
O   -4.7313516    0.0145687   -1.1793477  
C   -2.9763648    0.0303141   -2.8186328  
O   -4.0166474    0.0394625   -3.7247629  
C   -1.6418562    0.0335056   -3.1673486  
H    1.4178715    0.0311137   -2.9571210  
H   -2.8160164   -0.0041451    0.5845958  
H   -5.1938818    0.0230239   -2.0274389  
H   -3.6464675    0.0481844   -4.6127350  
H    2.1062469    0.0053068   -0.3505407  
C   -0.2201812   -0.6516331   -5.1344351  
C   -1.2456329    0.0471566   -4.5828770  
C   -1.8642147    0.7990800   -5.6490865  
C   -1.1096938    0.4787544   -6.8758219  
N   -0.1264587   -0.4053975   -6.4958035  
C   -1.3840266    0.9897831   -8.1027271  
C   -2.4965360    1.9173553   -8.2230101  
O   -2.8231187    2.4317261   -9.2846443  
C   -3.3092523    2.2710212   -6.9368462  
O   -4.2478484    3.0510203   -7.0257244  
C   -2.9183109    1.6561379   -5.6707753  
H   -3.4862636    1.9060881   -4.7849544  
H    0.4750809   -1.3256101   -4.6608795  
H    0.5531280   -0.8110403   -7.1127824  
C   -0.6146594    0.6524099   -9.3090243  
C    0.4513707   -0.1785720   -9.4398869  
C    0.8326131   -0.1581673  -10.8323924  
C   -0.1054000    0.7594205  -11.5068967  
N   -0.9574705    1.2168322  -10.5283059  
C   -0.0774205    1.0501015  -12.8321992  
C    0.9446239    0.4167977  -13.6488299  
O    1.0525850    0.6138773  -14.8520777  
C    1.9483812   -0.5587057  -12.9555263  
O    2.8129911   -1.0980413  -13.6328954  
C    1.8182657   -0.7926163  -11.5194875  
H    0.9173466   -0.7417211   -8.6509993  
H   -0.7747438    1.7261566  -13.3071724  
H    2.5173073   -1.4692619  -11.0470302  
H   -1.7109037    1.8628937  -10.6765960  
C    2.3971438    2.0127888    3.1728260  
C    1.9431056    1.6308205    1.9564670  
C    0.8496017    0.7127664    2.2356185  
C    0.7794028    0.6545384    3.7115134  
N    1.6840587    1.4146091    4.2663826  
C   -0.1885723   -0.1578550    4.3957118  
C   -1.0476298   -0.8789867    3.6398520  
O   -2.0015663   -1.6796266    4.1448486  
C   -1.0022026   -0.8410666    2.1483229  
O   -1.8147390   -1.5232959    1.5241687  
C    0.0000000    0.0000000    1.4700000  
H    2.3054237    1.9346118    0.9892483  
H   -0.2170646   -0.1815267    5.4753125  
H   -2.4487139   -2.0549881    3.3649027  
H    3.2048689    2.6911772    3.3971983  
