62

C   -3.1254322   -1.0718814   -1.5420434  
C   -2.4449442   -0.8379023   -0.3695853  
C   -1.1388996   -0.3905447   -0.7283586  
C   -1.0802798   -0.3710820   -2.1454377  
N   -2.3023617   -0.7922740   -2.6077470  
C    0.0622612    0.0204205   -2.8497918  
C    1.1656274    0.3994654   -2.1101393  
O    2.3074250    0.7911293   -2.7472516  
C    1.1267160    0.3863685   -0.6955258  
O    2.3052984    0.7907663   -0.1032863  
C    0.0000000    0.0000000    0.0000000  
H   -2.8407921   -0.9740799    0.6222580  
H    0.1133830    0.0373118   -3.9297469  
H    2.9449394    1.0099321   -2.0551783  
H    2.1944501    0.7529398    0.8516413  
H   -4.1323131   -1.4174617   -1.7024297  
C   -2.6817579   -0.9073279   -4.0232754  
C   -3.8657729   -1.3125966   -4.5384886  
C   -3.6931755   -1.2355606   -5.9809784  
C   -2.3079763   -0.7519983   -6.1653008  
N   -1.7100975   -0.5578990   -5.0212492  
C   -1.7432218   -0.5403625   -7.4696584  
C   -2.5265387   -0.8003699   -8.5411746  
O   -2.1295023   -0.6474120   -9.8159324  
C   -3.9283768   -1.2897535   -8.3878310  
O   -4.5837789   -1.5057432   -9.4071528  
C   -4.4847816   -1.4989535   -7.0392858  
H   -4.7473676   -1.6252941   -4.0054910  
H   -0.7281518   -0.1861425   -7.5748755  
H   -2.9014562   -0.9097614  -10.3492356  
C   -7.7959604   -0.4366202   -4.3068105  
C   -8.7392607   -1.2875383   -4.8346285  
C   -8.1154478   -1.9840168   -5.9118355  
C   -6.7802200   -1.5125803   -5.9945409  
N   -6.6200818   -0.5725762   -5.0069347  
C   -5.8700257   -1.9820292   -6.9463566  
C   -6.3157688   -2.9451520   -7.8305998  
O   -5.4683493   -3.4385965   -8.7800235  
C   -7.6444680   -3.4278197   -7.7642114  
O   -7.9361394   -4.3852635   -8.7137238  
C   -8.5430202   -2.9649536   -6.8256567  
H   -9.7526779   -1.3924657   -4.4868221  
H   -5.7716830   -0.0712273   -4.8149711  
H   -5.9730032   -4.0897816   -9.2845517  
H   -8.8517913   -4.6576407   -8.5997188  
H   -9.5544003   -3.3534023   -6.7992460  
H   -7.8693168    0.2575573   -3.4872402  
C    2.5528530    2.1414826    2.8079335  
C    2.0663498    1.7338582    4.0032312  
C    0.9804344    0.8229586    3.6752840  
C    0.9495562    0.7966882    2.1971295  
N    1.8690446    1.5676019    1.6831036  
C    0.0000000    0.0000000    1.4700000  
C   -0.8785127   -0.7372425    2.1869543  
O   -1.8187535   -1.5261249    1.6395491  
C   -0.8723269   -0.7321790    3.6796354  
O   -1.7010379   -1.4274584    4.2670412  
C    0.1115397    0.0933559    4.4024240  
H    2.4028853    2.0163452    4.9860947  
H   -2.2861435   -1.9184361    2.3990168  
H    0.0832434    0.0693689    5.4835595  
H    3.3664920    2.8238276    2.6198634  
