62

C    3.3041283    0.0001175   -1.5420408  
C    2.5845377   -0.0004781   -0.3695835  
C    1.2040014   -0.0000008   -0.7283582  
C    1.1422397    0.0006037   -2.1454366  
N    2.4348659    0.0026108   -2.6077451  
C   -0.0655161    0.0008798   -2.8497918  
C   -1.2321759    0.0002325   -2.1101407  
O   -2.4392793    0.0001148   -2.7472537  
C   -1.1911198   -0.0000007   -0.6955272  
O   -2.4371520   -0.0002319   -0.1032877  
C    0.0000000    0.0000000    0.0000000  
H    3.0031533   -0.0000663    0.6222602  
H    2.7054651   -0.0071100   -3.5745242  
H   -0.1193521    0.0014844   -3.9297473  
H   -3.1132976   -0.0000647   -2.0551805  
H   -2.3200292   -0.0004069    0.8516394  
C    6.9078740   -0.0012407    1.0804498  
C    5.6166933   -0.0005895    0.6749487  
C    5.6800161    0.0004031   -0.7784918  
C    7.1258522    0.0003164   -1.0885583  
N    7.8505616   -0.0007261   -0.0028393  
C    7.6141467    0.0011037   -2.4400963  
C    6.6996231    0.0015506   -3.4365807  
O    7.0134433    0.0023030   -4.7433163  
C    5.2335556    0.0012791   -3.1558579  
O    4.4583024    0.0018407   -4.1119974  
C    4.7577234    0.0005126   -1.7610430  
H    4.7307107   -0.0008518    1.2865944  
H    6.1552243    0.0024361   -5.2044164  
H    7.2868894   -0.0020581    2.0900639  
C    9.0593767    0.0012713   -2.7088145  
C   10.1230156   -0.0003611   -1.8363828  
C   11.3101422    0.0000723   -2.6271610  
C   10.9047908    0.0022939   -3.9864297  
N    9.5320473    0.0010211   -4.0002986  
C   11.8155640    0.0035909   -5.0472219  
C   13.1600280    0.0029345   -4.7300618  
O   14.0921915    0.0044915   -5.7271000  
C   13.5841411    0.0003495   -3.3798993  
O   14.9553707   -0.0004186   -3.2280088  
C   12.6861978   -0.0012043   -2.3328932  
H   10.0520101   -0.0028047   -0.7621643  
H    8.9599898    0.0126252   -4.8252817  
H   11.5130391    0.0051410   -6.0853351  
H   14.9555684    0.0033914   -5.2936913  
H   15.1571780   -0.0021587   -2.2873311  
H   13.0408315   -0.0033589   -1.3088282  
C    2.3971438    2.0127888    3.1728260  
C    1.9431056    1.6308205    1.9564670  
C    0.8496017    0.7127664    2.2356185  
C    0.7794028    0.6545384    3.7115134  
N    1.6840587    1.4146091    4.2663826  
C   -0.1885723   -0.1578550    4.3957118  
C   -1.0476298   -0.8789867    3.6398520  
O   -2.0015663   -1.6796266    4.1448486  
C   -1.0022026   -0.8410666    2.1483229  
O   -1.8147390   -1.5232959    1.5241687  
C    0.0000000    0.0000000    1.4700000  
H    2.3054237    1.9346118    0.9892483  
H   -0.2170646   -0.1815267    5.4753125  
H   -2.4487139   -2.0549881    3.3649027  
H    3.2048689    2.6911772    3.3971983  
