60

C    3.3003538    0.0005281   -1.4738992  
C    2.5232800    0.0003503   -2.6090749  
C    1.1623189   -0.0001314   -2.1820098  
C    1.1711878    0.0000586   -0.7636137  
N    2.4852296   -0.0014917   -0.3662360  
C    0.0000000    0.0000000    0.0000000  
C   -1.2020393    0.0000523   -0.6806466  
O   -2.3759247    0.0003494    0.0157756  
C   -1.2314669   -0.0005109   -2.0955498  
O   -2.5054399   -0.0008032   -2.6250165  
C   -0.0764531   -0.0007268   -2.8495186  
H    2.8036266    0.0088183    0.5858656  
H   -3.0835642    0.0000351   -0.6418796  
H   -2.4360061   -0.0011523   -3.5845904  
H   -0.1304110   -0.0013413   -3.9319077  
H    4.3715543    0.0004899   -1.3667147  
C    5.8912976   -2.0917703   -4.5522480  
C    4.9784970   -1.6292445   -3.6595324  
C    4.1021045   -0.7349680   -4.3785882  
C    4.5825769   -0.7142838   -5.7734030  
N    5.6694184   -1.5569930   -5.8122174  
C    4.0183399    0.0134452   -6.7702737  
C    2.8607053    0.8310507   -6.4478795  
O    2.2818930    1.5221480   -7.2759265  
C    2.3349637    0.8245617   -4.9770429  
O    1.3612100    1.5092075   -4.6936264  
C    3.0267417   -0.0008944   -3.9901705  
H    4.9253031   -1.8851652   -2.6163220  
H    4.3863155    0.0143831   -7.7868872  
H    6.7075424   -2.7781445   -4.3956452  
C    6.9848118   -3.0362682   -7.3998586  
C    6.4699203   -1.8467524   -7.0106067  
C    6.8807499   -0.9051098   -8.0406684  
C    7.6573874   -1.7184450   -9.0008268  
N    7.7217418   -2.9685329   -8.6305185  
C    8.2459347   -1.1468932  -10.1806689  
C    8.0664409    0.1769233  -10.3919187  
O    8.5593020    0.8416024  -11.4508473  
C    7.2874306    1.0244253   -9.4416333  
O    7.1645155    2.2222767   -9.6971038  
C    6.6935973    0.4146869   -8.2385102  
H    8.8086579   -1.7648431  -10.8650592  
H    8.2668384    1.7621867  -11.3237952  
H    6.1365253    1.0626678   -7.5751686  
H    6.9028783   -3.9899000   -6.9030221  
C    2.3971438    2.0127888    3.1728260  
C    1.9431056    1.6308205    1.9564670  
C    0.8496017    0.7127664    2.2356185  
C    0.7794028    0.6545384    3.7115134  
N    1.6840587    1.4146091    4.2663826  
C   -0.1885723   -0.1578550    4.3957118  
C   -1.0476298   -0.8789867    3.6398520  
O   -2.0015663   -1.6796266    4.1448486  
C   -1.0022026   -0.8410666    2.1483229  
O   -1.8147390   -1.5232959    1.5241687  
C    0.0000000    0.0000000    1.4700000  
H    2.3054237    1.9346118    0.9892483  
H   -0.2170646   -0.1815267    5.4753125  
H   -2.4487139   -2.0549881    3.3649027  
H    3.2048689    2.6911772    3.3971983  
