58

C   -3.2573665   -0.0002836   -1.5109386  
C   -2.5379465   -0.0002775   -0.3591966  
C   -1.1435037   -0.0002352   -0.7338501  
C   -1.1092601   -0.0001878   -2.2088478  
N   -2.4227552   -0.0006191   -2.6182611  
C    0.0265540    0.0002570   -2.9515662  
C    1.3003046    0.0004937   -2.2514972  
O    2.3786792    0.0008335   -2.8306420  
C    1.2877729    0.0001963   -0.6895602  
O    2.3539955    0.0000853   -0.0892027  
C    0.0000000    0.0000000    0.0000000  
H   -2.9384088   -0.0004824    0.6389232  
H    0.0296304    0.0004136   -4.0327228  
H   -2.7280484    0.0008586   -3.5742115  
C   -6.6174605   -0.0028031    1.3537068  
C   -5.3857490   -0.0023010    0.7819015  
C   -5.5854749   -0.0013085   -0.6481138  
C   -7.0449748   -0.0012439   -0.8641003  
N   -7.6133362   -0.0025734    0.3888377  
C   -7.6418659   -0.0000270   -2.0828801  
C   -6.7899758    0.0010821   -3.2605116  
O   -7.2316297    0.0021555   -4.4021077  
C   -5.2415211    0.0007827   -3.0553444  
O   -4.5141873    0.0014019   -4.0393394  
C   -4.7161327   -0.0002898   -1.6923267  
H   -4.4446709   -0.0027752    1.3024643  
H   -8.7143810    0.0001273   -2.2193395  
H   -8.5996523   -0.0013082    0.5738412  
C   -6.1465101   -0.0042121    3.8471636  
C   -6.9774636   -0.0038056    2.7789426  
C   -8.3172431   -0.0044301    3.3459436  
C   -8.1027695   -0.0053100    4.8090173  
N   -6.8323021   -0.0051058    5.1088545  
C   -9.1986278   -0.0060682    5.7386296  
C  -10.4517807   -0.0055638    5.2297660  
O  -11.5665996   -0.0061726    5.9802446  
C  -10.7008163   -0.0043026    3.7579841  
O  -11.8675189   -0.0040262    3.3655268  
C   -9.5600533   -0.0035866    2.8249328  
H   -9.0127054   -0.0069100    6.8027451  
H  -12.2984224   -0.0055481    5.3371361  
H   -9.7826718   -0.0025613    1.7663155  
H   -5.0681006   -0.0039593    3.8496627  
C    2.5528530    2.1414826    2.8079335  
C    2.0663498    1.7338582    4.0032312  
C    0.9804344    0.8229586    3.6752840  
C    0.9495562    0.7966882    2.1971295  
N    1.8690446    1.5676019    1.6831036  
C    0.0000000    0.0000000    1.4700000  
C   -0.8785127   -0.7372425    2.1869543  
O   -1.8187535   -1.5261249    1.6395491  
C   -0.8723269   -0.7321790    3.6796354  
O   -1.7010379   -1.4274584    4.2670412  
C    0.1115397    0.0933559    4.4024240  
H    2.4028853    2.0163452    4.9860947  
H   -2.2861435   -1.9184361    2.3990168  
H    0.0832434    0.0693689    5.4835595  
H    3.3664920    2.8238276    2.6198634  
