60

C   -0.9119259    0.6482665   -0.8003802  
C    0.0000000    0.0000000    0.0000000  
C    0.9219481   -0.6575035   -0.8673526  
C    0.5188028   -0.3717941   -2.1969277  
N   -0.5988611    0.4216553   -2.1202237  
C    1.2016830   -0.8589310   -3.3154807  
C    2.3119363   -1.6486300   -3.0876857  
O    3.0158692   -2.1502455   -4.1440352  
C    2.7296238   -1.9451553   -1.7684334  
O    3.8524745   -2.7444138   -1.7073130  
C    2.0562672   -1.4651468   -0.6644817  
H   -1.1026960    0.7919960   -2.9057036  
H    3.7410992   -2.6662776   -3.7685136  
H    4.0673502   -2.8967751   -0.7819921  
H    2.3997550   -1.7092725    0.3339654  
H   -1.7617417    1.2531819   -0.5342064  
C   -0.3302435    2.7959675   -5.2626196  
C    0.1459512    1.8910872   -4.3690286  
C    0.3402596    0.6531543   -5.0863858  
C   -0.0646430    0.9128699   -6.4811588  
N   -0.4611203    2.2297078   -6.5215718  
C   -0.0282933   -0.0087519   -7.4766470  
C    0.4407236   -1.3457703   -7.1527016  
O    0.5103812   -2.2457475   -7.9794360  
C    0.8743489   -1.6431914   -5.6818809  
O    1.2706720   -2.7652995   -5.3971654  
C    0.7907906   -0.5679961   -4.6965761  
H    0.3388869    2.0703012   -3.3263053  
H   -0.3296907    0.2023743   -8.4932572  
H   -0.7924034    2.7065750   -7.3400439  
C   -0.6314793    4.9162395   -3.9014346  
C   -0.6937337    4.2044844   -5.0508293  
C   -1.2020157    5.1387366   -6.0434632  
C   -1.3976117    6.4021586   -5.3004346  
N   -1.0647740    6.2778588   -4.0443462  
C   -1.8963454    7.5899431   -5.9372384  
C   -2.1861256    7.5189108   -7.2564486  
O   -2.6586551    8.5497362   -7.9776672  
C   -1.9991241    6.2584753   -8.0339405  
O   -2.2835383    6.2662363   -9.2315500  
C   -1.4861791    5.0535173   -7.3580051  
H   -2.0297020    8.4994388   -5.3698379  
H   -2.7661163    8.1937067   -8.8781377  
H   -1.3647744    4.1605419   -7.9564075  
H   -0.3041123    4.5815442   -2.9299498  
C    2.3971438    2.0127888    3.1728260  
C    1.9431056    1.6308205    1.9564670  
C    0.8496017    0.7127664    2.2356185  
C    0.7794028    0.6545384    3.7115134  
N    1.6840587    1.4146091    4.2663826  
C   -0.1885723   -0.1578550    4.3957118  
C   -1.0476298   -0.8789867    3.6398520  
O   -2.0015663   -1.6796266    4.1448486  
C   -1.0022026   -0.8410666    2.1483229  
O   -1.8147390   -1.5232959    1.5241687  
C    0.0000000    0.0000000    1.4700000  
H    2.3054237    1.9346118    0.9892483  
H   -0.2170646   -0.1815267    5.4753125  
H   -2.4487139   -2.0549881    3.3649027  
H    3.2048689    2.6911772    3.3971983  
