62

C    3.3003547    0.0005275   -1.4738980  
C    2.5232816    0.0003495   -2.6090742  
C    1.1623206   -0.0001320   -2.1820096  
C    1.1711889    0.0000583   -0.7636136  
N    2.4852300   -0.0014920   -0.3662353  
C    0.0000000    0.0000000    0.0000000  
C   -1.2020382    0.0000519   -0.6806479  
O   -2.3759247    0.0003494    0.0157745  
C   -1.2314650   -0.0005113   -2.0955508  
O   -2.5054383   -0.0008037   -2.6250181  
C   -0.0764510   -0.0007273   -2.8495192  
H    2.8919962   -0.0005621   -3.6205295  
H    2.8036265    0.0088181    0.5858667  
H   -3.0835641    0.0000347   -0.6418820  
H   -2.4360047   -0.0011529   -3.5845921  
C    5.6692781    0.0003509   -2.3388886  
C    4.7630506    0.0004754   -1.3275394  
C    5.5107324    0.0002563   -0.0923034  
C    6.9370640    0.0000210   -0.4696224  
N    6.9650293   -0.0003075   -1.8451613  
C    7.9663628    0.0001703    0.4148255  
C    7.6481554    0.0003646    1.8330215  
O    8.5043584    0.0004476    2.7077878  
C    6.1443525    0.0003633    2.2553745  
O    5.8642069    0.0002193    3.4465004  
C    5.1238538    0.0004732    1.2101796  
H    9.0057225    0.0001229    0.1170994  
H    4.0849828    0.0006771    1.5109657  
H    5.4995504    0.0004676   -3.4033520  
H    7.7983621    0.0010317   -2.4042699  
C    2.3338141   -2.1434184   -5.7798768  
C    1.7883286   -1.7365457   -6.9496967  
C    0.7199257   -0.8256236   -6.5685990  
C    0.7626769   -0.7985191   -5.0907552  
N    1.7067554   -1.5690026   -4.6227165  
C   -0.1496409   -0.0015614   -4.3176961  
C   -1.0628921    0.7351418   -4.9904330  
O   -1.9748529    1.5241932   -4.3973342  
C   -1.1310322    0.7292322   -6.4815671  
O   -1.9880859    1.4240534   -7.0273727  
C   -0.1842253   -0.0965645   -7.2519836  
H    2.0755614   -2.0195396   -7.9479388  
H   -2.4795466    1.9160029   -5.1328082  
H   -0.2663195   -0.0731952   -8.3303829  
H    3.1559296   -2.8255340   -5.6321685  
C    0.8676693    0.7151171    2.2619005  
C    0.5875920    0.4624972    3.5848544  
C   -0.5048400   -0.4542819    3.6114698  
C   -0.8517165   -0.7276451    2.2635546  
N    0.0000000    0.0000000    1.4700000  
C   -1.8902865   -1.5946756    1.9108239  
C   -2.5912627   -2.1969500    2.9375057  
O   -3.6148162   -3.0527051    2.6493466  
C   -2.2603868   -1.9365747    4.2886322  
O   -3.0513550   -2.6123276    5.1947621  
C   -1.2361111   -1.0811317    4.6373480  
H    1.1060808    0.8876438    4.4271209  
H   -2.1597133   -1.8070987    0.8854031  
H   -3.9636755   -3.3565188    3.4974381  
H   -2.7621927   -2.3810384    6.0827341  
H   -1.0058879   -0.9010589    5.6809233  
H    1.6167816    1.3499334    1.8205408  
