58

C    2.9127945   -0.7214798   -3.3153361  
C    3.5543782   -0.5031935   -4.4921100  
C    2.7457297    0.4250583   -5.2466109  
C    1.5720417    0.7318927   -4.4069084  
N    1.7334695    0.0049281   -3.2500363  
C    0.5691430    1.5730721   -4.7651197  
C    0.6510610    2.2191850   -6.0644898  
O   -0.2019650    2.9933463   -6.4783995  
C    1.8850635    1.9086373   -6.9703618  
O    1.9647770    2.4464642   -8.0665585  
C    2.9022255    0.9847058   -6.4747976  
H   -0.2829827    1.7845577   -4.1341949  
H    3.7535952    0.7751538   -7.1080286  
H    3.2021856   -1.3520628   -2.4904078  
C    5.2083111   -2.4181227   -4.6816263  
C    6.4448034   -2.6628449   -5.1868705  
C    6.9073391   -1.4316555   -5.7827476  
C    5.8312552   -0.4424927   -5.5817739  
N    4.8298521   -1.1036123   -4.9087190  
C    5.8835553    0.8467009   -6.0024262  
C    7.0794075    1.2895182   -6.6998401  
O    7.2225184    2.4310561   -7.1178246  
C    8.2314187    0.2587668   -6.9239545  
O    9.2429536    0.6199680   -7.5101209  
C    8.0590906   -1.1030422   -6.4243243  
H    6.9725648   -3.5990515   -5.1468769  
H    5.0831522    1.5562046   -5.8447262  
H    8.8614736   -1.8105778   -6.5833795  
H    4.5416206   -3.0875319   -4.1626810  
C    1.1319246    0.0015678   -0.8009268  
C    0.7969914    0.0034958   -2.1169401  
C   -0.6453340    0.0035696   -2.1842669  
C   -1.1266832    0.0015410   -0.7896025  
N    0.0000000    0.0000000    0.0000000  
C   -2.4346129    0.0013913   -0.4276292  
C   -3.4350111    0.0031335   -1.4820181  
O   -4.6384614    0.0030875   -1.2583914  
C   -2.9478961    0.0050442   -2.9661074  
O   -3.7809382    0.0062135   -3.8623773  
C   -1.5113825    0.0053055   -3.2312122  
H   -2.7664565    0.0000174    0.6013448  
H   -1.1823533    0.0068381   -4.2614848  
H    2.1104316    0.0009435   -0.3488059  
C    0.8175213    0.6860729    2.3021913  
C    0.0000000    0.0000000    1.4700000  
C   -0.8887526   -0.7456559    2.3478473  
C   -0.4549825   -0.3816753    3.7138435  
N    0.5448156    0.4573574    3.6934124  
C   -1.0945674   -0.9182058    4.8835240  
C   -2.1210866   -1.7789155    4.6970523  
O   -2.8083856   -2.3554314    5.6976972  
C   -2.5824069   -2.1655116    3.3310774  
O   -3.5227682   -2.9541547    3.2362962  
C   -1.9100805   -1.6015804    2.1470656  
H   -0.7567140   -0.6349833    5.8697035  
H   -3.4728268   -2.9124471    5.2533954  
H   -2.2742832   -1.9066565    1.1752040  
H    1.6189533    1.3585343    2.0405121  
