58

C    6.7726140   -0.0573876   -4.5660650  
C    7.7887663   -0.7230442   -3.9694782  
C    8.9797420   -0.3267826   -4.7050403  
C    8.4854067    0.6071090   -5.7394791  
N    7.1923810    0.7690038   -5.6629005  
C    9.3685150    1.2302601   -6.6865208  
C   10.6856449    0.9342230   -6.6036698  
O   11.6221921    1.4428864   -7.4223163  
C   11.2153162   -0.0041302   -5.5706631  
O   12.4256757   -0.2276699   -5.5539040  
C   10.2892409   -0.6306130   -4.6105430  
H    7.7365887   -1.3993603   -3.1334460  
H    8.9798660    1.9086119   -7.4319739  
H   12.4590013    1.0480509   -7.1173445  
H   10.7124970   -1.3044014   -3.8776764  
C    4.2926942   -2.1403414   -1.5040813  
C    5.3604710   -1.7320209   -2.2284475  
C    4.8134481   -0.8208704   -3.2219619  
C    3.3612075   -0.7952319   -2.9446113  
N    3.0500070   -1.5667026   -1.9386405  
C    2.4521483    0.0014840   -3.7217481  
C    2.9703735    0.7393569   -4.7298757  
O    2.2390463    1.5283419   -5.5352977  
C    4.4316781    0.7349405   -5.0343914  
O    4.8335663    1.4307759   -5.9668720  
C    5.3436401   -0.0906363   -4.2228046  
H    6.3919441   -2.0142020   -2.1038949  
H    2.8845127    1.9211529   -6.1502980  
H    4.2782631   -2.8230632   -0.6694220  
C    0.0000000    0.0000000    0.0000000  
C    1.0662923   -0.0000101   -0.8334270  
C    0.4961873    0.0000065   -2.1718887  
C   -0.9663854   -0.0000848   -1.9540250  
N   -1.2632773   -0.0000083   -0.6828660  
C   -1.8985359   -0.0000514   -3.0477261  
C   -1.3925770    0.0004566   -4.3020547  
O   -2.1456378    0.0005414   -5.4151314  
C    0.0786240    0.0009326   -4.5545000  
O    0.4683767    0.0012591   -5.7221100  
C    1.0143171    0.0008444   -3.4159031  
H    2.1107200    0.0000633   -0.5721865  
H   -2.9622181   -0.0003268   -2.8593381  
H   -1.5042265    0.0009697   -6.1484419  
C    0.0000000    0.0000000    1.4700000  
C    1.0662921    0.0000102    2.3034270  
C    0.4961870   -0.0000064    3.6418889  
C   -0.9663858    0.0000850    3.4240247  
N   -1.2632773    0.0000084    2.1528658  
C   -1.8985362    0.0000517    4.5177257  
C   -1.3925775   -0.0004564    5.7720543  
O   -2.1456383   -0.0005410    6.8851312  
C    0.0786232   -0.0009323    6.0245000  
O    0.4683759   -0.0012588    7.1921102  
C    1.0143166   -0.0008442    4.8859032  
H    2.1107198   -0.0000632    2.0421868  
H   -2.9622183    0.0003270    4.3293377  
H   -1.5042274   -0.0009692    7.6184419  
H    2.0724152   -0.0013148    5.1109744  
