58

C   -3.2567594   -0.0629032   -1.5109386  
C   -2.5374724   -0.0490669   -0.3591963  
C   -1.1432883   -0.0222179   -0.7338497  
C   -1.1090517   -0.0215123   -2.2088474  
N   -2.4222962   -0.0471941   -2.6182611  
C    0.0265437    0.0007672   -2.9515658  
C    1.3000540    0.0254904   -2.2514976  
O    2.3782233    0.0465607   -2.8306421  
C    1.2875311    0.0249523   -0.6895607  
O    2.3535590    0.0453384   -0.0892030  
C    0.0000000    0.0000000    0.0000000  
H   -2.9378566   -0.0569703    0.6389241  
H    0.0296159    0.0009830   -4.0327230  
H   -4.3262340   -0.0834711   -1.6439444  
C   -2.8694636   -0.0536273   -4.0185828  
C   -4.1385451   -0.0770932   -4.4881141  
C   -4.0027197   -0.0723656   -5.9365717  
C   -2.5434658   -0.0441226   -6.1739824  
N   -1.8740185   -0.0331153   -5.0533986  
C   -1.9883658   -0.0316080   -7.4994234  
C   -2.8518018   -0.0470141   -8.5403726  
O   -2.4731635   -0.0379659   -9.8297881  
C   -4.3297854   -0.0759532   -8.3332799  
O   -5.0561688   -0.0886373   -9.3269733  
C   -4.8746037   -0.0882826   -6.9639934  
H   -5.0538095   -0.0954456   -3.9215175  
H   -3.3071171   -0.0535309  -10.3332081  
H   -5.9508139   -0.1094145   -6.8564989  
C   -0.5317876   -0.0031942   -7.6955685  
C    0.4570988    0.0145447   -6.7650504  
C    1.7098725    0.0398212   -7.4825142  
C    1.3673242    0.0353511   -8.9175865  
N   -0.0068673    0.0084788   -8.9789476  
C    2.2762999    0.0548164   -9.9251017  
C    3.6860925    0.0817561   -9.5725492  
O    4.5811959    0.1005961  -10.4072565  
C    4.0717800    0.0866944   -8.0589355  
O    5.2555413    0.1089860   -7.7499481  
C    3.0023425    0.0643982   -7.0641203  
H    0.3241258    0.0102139   -5.6978516  
H    2.0039200    0.0512425  -10.9713843  
H    3.2777906    0.0681887   -6.0182530  
H   -0.5455266    0.0007938   -9.8256083  
C    2.3971438    2.0127888    3.1728260  
C    1.9431056    1.6308205    1.9564670  
C    0.8496017    0.7127664    2.2356185  
C    0.7794028    0.6545384    3.7115134  
N    1.6840587    1.4146091    4.2663826  
C   -0.1885723   -0.1578550    4.3957118  
C   -1.0476298   -0.8789867    3.6398520  
O   -2.0015663   -1.6796266    4.1448486  
C   -1.0022026   -0.8410666    2.1483229  
O   -1.8147390   -1.5232959    1.5241687  
C    0.0000000    0.0000000    1.4700000  
H    2.3054237    1.9346118    0.9892483  
H   -0.2170646   -0.1815267    5.4753125  
H   -2.4487139   -2.0549881    3.3649027  
H    3.2048689    2.6911772    3.3971983  
