58

C    2.4782022   -2.1081878   -5.8783640  
C    1.9212515   -1.6438943   -7.0265418  
C    0.8545984   -0.7486153   -6.6450159  
C    0.8356632   -0.7292245   -5.1698698  
N    1.8439054   -1.5742007   -4.7669395  
C   -0.0307352   -0.0004646   -4.4215603  
C   -1.0100803    0.8193482   -5.1153371  
O   -1.8333384    1.5114170   -4.5308826  
C   -1.0083720    0.8138719   -6.6773139  
O   -1.8284257    1.4999046   -7.2724040  
C   -0.0251097   -0.0124253   -7.3732162  
H    2.2230619   -1.8995542   -8.0266228  
H   -0.0304436   -0.0104846   -8.4547382  
H    2.0835082   -1.7709325   -3.8125107  
C    5.0372151   -4.2638131   -8.7595385  
C    4.0965264   -3.4730888   -8.1816664  
C    4.2572621   -3.6032170   -6.7526586  
C    5.3767489   -4.5412731   -6.5438740  
N    5.8052370   -4.9052112   -7.7995955  
C    5.8409249   -4.9260256   -5.3280568  
C    5.1946627   -4.3799563   -4.1462415  
O    5.5394120   -4.6649422   -3.0068414  
C    4.0069149   -3.3849472   -4.3437679  
O    3.4548270   -2.9189319   -3.3562004  
C    3.5969106   -3.0457645   -5.7041739  
H    3.3725292   -2.8678829   -8.6975795  
H    6.6635396   -5.6152352   -5.1968894  
H    5.2338702   -4.4321062   -9.8059105  
H    6.5609277   -5.5376102   -7.9894638  
C    3.2573670   -0.0002920   -1.5109380  
C    2.5379468   -0.0001709   -0.3591961  
C    1.1435043    0.0000332   -0.7338500  
C    1.1092609   -0.0000082   -2.2088477  
N    2.4227562    0.0001909   -2.6182613  
C   -0.0265532   -0.0002522   -2.9515663  
C   -1.3003035   -0.0002639   -2.2514981  
O   -2.3786784   -0.0004131   -2.8306429  
C   -1.2877725    0.0000312   -0.6895608  
O   -2.3539958    0.0003307   -0.0892036  
C    0.0000000    0.0000000    0.0000000  
H    2.9384091   -0.0000369    0.6389239  
H    4.3270394   -0.0004765   -1.6439446  
H    2.7280494   -0.0013406   -3.5742113  
C    2.5528530    2.1414826    2.8079335  
C    2.0663498    1.7338582    4.0032312  
C    0.9804344    0.8229586    3.6752840  
C    0.9495562    0.7966882    2.1971295  
N    1.8690446    1.5676019    1.6831036  
C    0.0000000    0.0000000    1.4700000  
C   -0.8785127   -0.7372425    2.1869543  
O   -1.8187535   -1.5261249    1.6395491  
C   -0.8723269   -0.7321790    3.6796354  
O   -1.7010379   -1.4274584    4.2670412  
C    0.1115397    0.0933559    4.4024240  
H    2.4028853    2.0163452    4.9860947  
H   -2.2861435   -1.9184361    2.3990168  
H    0.0832434    0.0693689    5.4835595  
H    3.3664920    2.8238276    2.6198634  
