60

C   -3.3041232    0.0042829   -1.5420452  
C   -2.5845340    0.0039202   -0.3695870  
C   -1.2039992    0.0016043   -0.7283597  
C   -1.1422357    0.0009174   -2.1454381  
N   -2.4348635    0.0006318   -2.6077479  
C    0.0655195   -0.0009673   -2.8497916  
C    1.2321773   -0.0018738   -2.1101388  
O    2.4392807   -0.0033637   -2.7472500  
C    1.1911203   -0.0015857   -0.6955256  
O    2.4371508   -0.0030140   -0.1032845  
C    0.0000000    0.0000000    0.0000000  
H   -3.0031509    0.0040659    0.6222562  
H   -2.7054484    0.0107130   -3.5745279  
H    0.1193552   -0.0016437   -3.9297472  
H    3.1132975   -0.0040819   -2.0551762  
H    2.3200262   -0.0026829    0.8516425  
C   -4.7577174    0.0058236   -1.7610493  
C   -5.7612528    0.0086530   -0.8461813  
C   -7.0028575    0.0090202   -1.5832383  
C   -6.6377917    0.0061232   -3.0127520  
N   -5.2625437    0.0046814   -3.0525169  
C   -7.5310382    0.0051584   -4.0344236  
C   -8.9464506    0.0073294   -3.7040626  
O   -9.8285309    0.0067417   -4.5527289  
C   -9.3558838    0.0106636   -2.1966943  
O  -10.5445603    0.0128181   -1.9063422  
C   -8.3019718    0.0111520   -1.1852005  
H   -5.6449977    0.0104776    0.2229749  
H   -7.2422423    0.0028950   -5.0762976  
H   -4.7106083    0.0010891   -3.8906112  
C   -8.1050941    0.7197882    1.2270762  
C   -8.6986626    0.0140199    0.2302598  
C   -9.7850760   -0.7260314    0.8276419  
C   -9.7757386   -0.3911342    2.2644948  
N   -8.7334023    0.4892605    2.4414999  
C  -10.6501472   -0.8882292    3.1755439  
C  -11.6682829   -1.8151107    2.7098986  
O  -12.5015210   -2.3174807    3.4526239  
C  -11.6966642   -2.1840674    1.1923768  
O  -12.5490805   -2.9636285    0.7887300  
C  -10.7017087   -1.5834955    0.3073749  
H  -10.6260740   -0.6295456    4.2250260  
H  -10.7283052   -1.8439822   -0.7419887  
H   -7.2613887    1.3887537    1.1767170  
H   -8.4709414    0.9024186    3.3175492  
C    2.5528530    2.1414826    2.8079335  
C    2.0663498    1.7338582    4.0032312  
C    0.9804344    0.8229586    3.6752840  
C    0.9495562    0.7966882    2.1971295  
N    1.8690446    1.5676019    1.6831036  
C    0.0000000    0.0000000    1.4700000  
C   -0.8785127   -0.7372425    2.1869543  
O   -1.8187535   -1.5261249    1.6395491  
C   -0.8723269   -0.7321790    3.6796354  
O   -1.7010379   -1.4274584    4.2670412  
C    0.1115397    0.0933559    4.4024240  
H    2.4028853    2.0163452    4.9860947  
H   -2.2861435   -1.9184361    2.3990168  
H    0.0832434    0.0693689    5.4835595  
H    3.3664920    2.8238276    2.6198634  
