58

C   -3.2798089    0.0016579   -1.4499641  
C   -2.5571155    0.0011927   -2.5996549  
C   -1.1637440    0.0006414   -2.2210358  
C   -1.1336964    0.0007955   -0.7459466  
N   -2.4483508    0.0018177   -0.3402713  
C    0.0000000    0.0000000    0.0000000  
C    1.2757365   -0.0008538   -0.6964419  
O    2.3524585   -0.0015451   -0.1142321  
C    1.2676485   -0.0007796   -2.2584084  
O    2.3355748   -0.0011872   -2.8557301  
C   -0.0181574   -0.0001633   -2.9516296  
H   -2.9547358    0.0014138   -3.5989097  
H   -0.0150804   -0.0003213   -4.0331626  
H   -2.7563631    0.0006030    0.6148069  
C   -6.4690095    0.0024495   -4.4192220  
C   -7.5790620    0.0026612   -3.6450370  
C   -7.0826152    0.0026685   -2.2775427  
C   -5.6103560    0.0023294   -2.4155185  
N   -5.2447516    0.0022804   -3.6686438  
C   -4.7390850    0.0022803   -1.2727270  
C   -5.3125310    0.0029464   -0.0477806  
O   -4.6211383    0.0029785    1.1046155  
C   -6.7952862    0.0036736    0.1242559  
O   -7.2479816    0.0041343    1.2689334  
C   -7.6676533    0.0036657   -1.0635576  
H   -5.3014924    0.0035545    1.8019464  
H   -8.7364289    0.0043198   -0.8963814  
H   -6.4103425    0.0023834   -5.4960378  
C   -9.5376834   -0.6830132   -5.1054384  
C   -8.9836123    0.0029683   -4.0787873  
C  -10.0844455    0.7488973   -3.4886559  
C  -11.2617142    0.3851582   -4.3061623  
N  -10.9473771   -0.4539796   -5.2553881  
C  -12.5679142    0.9219976   -4.0402083  
C  -12.6924404    1.7827720   -3.0044017  
O  -13.8512004    2.3595661   -2.6429823  
C  -11.5233167    2.1691292   -2.1605789  
O  -11.7100447    2.9578474   -1.2341463  
C  -10.1937692    1.6048828   -2.4535871  
H  -13.4105603    0.6389471   -4.6539995  
H  -13.6226085    2.9165563   -1.8770446  
H   -9.3725729    1.9097927   -1.8188452  
H   -9.0513328   -1.3556102   -5.7939513  
C    0.0000000    0.0000000    1.4700000  
C    1.0662921    0.0000102    2.3034270  
C    0.4961870   -0.0000064    3.6418889  
C   -0.9663858    0.0000850    3.4240247  
N   -1.2632773    0.0000084    2.1528658  
C   -1.8985362    0.0000517    4.5177257  
C   -1.3925775   -0.0004564    5.7720543  
O   -2.1456383   -0.0005410    6.8851312  
C    0.0786232   -0.0009323    6.0245000  
O    0.4683759   -0.0012588    7.1921102  
C    1.0143166   -0.0008442    4.8859032  
H    2.1107198   -0.0000632    2.0421868  
H   -2.9622183    0.0003270    4.3293377  
H   -1.5042274   -0.0009692    7.6184419  
H    2.0724152   -0.0013148    5.1109744  
