60

C   -3.3003048   -0.0180813   -1.4738990  
C   -2.5232434   -0.0137704   -2.6090748  
C   -1.1623041   -0.0060503   -2.1820101  
C   -1.1711715   -0.0062876   -0.7636139  
N   -2.4852029   -0.0117264   -0.3662359  
C    0.0000000    0.0000000    0.0000000  
C    1.2020219    0.0063413   -0.6806473  
O    2.3758929    0.0122874    0.0157751  
C    1.2314458    0.0070609   -2.0955504  
O    2.5053993    0.0141292   -2.6250173  
C    0.0764470    0.0011336   -2.8495193  
H   -2.8919567   -0.0148199   -3.6205303  
H   -2.8035400   -0.0237297    0.5858662  
H    3.0835203    0.0163658   -0.6418815  
H    2.4359652    0.0141089   -3.5845914  
H    0.1304016    0.0020356   -3.9319084  
C   -5.6726170   -0.0298386   -2.3740990  
C   -6.9487381   -0.0344181   -1.9098047  
C   -6.8721345   -0.0329309   -0.4679428  
C   -5.4364862   -0.0270381   -0.1278415  
N   -4.7629802   -0.0258089   -1.3275409  
C   -4.9461003   -0.0236820    1.1375498  
C   -5.8956468   -0.0262567    2.2379541  
O   -5.5533209   -0.0236523    3.4131595  
C   -7.4208477   -0.0327446    1.9010189  
O   -8.2297224   -0.0352658    2.8191569  
C   -7.8276502   -0.0356372    0.4980380  
H   -3.8892082   -0.0192401    1.3652972  
H   -8.8855550   -0.0399240    0.2732204  
H   -5.3201639   -0.0292852   -3.3927578  
C   -7.8495058   -2.1829342   -5.5921945  
C   -9.1147814   -1.7806463   -5.8545313  
C   -9.4511398   -0.8700980   -4.7708963  
C   -8.2409860   -0.8381702   -3.9217251  
N   -7.2987392   -1.6057316   -4.3981805  
C   -8.1694305   -0.0400901   -2.7288154  
C   -9.2572245    0.6930781   -2.3994175  
O   -9.3296906    1.4826728   -1.3143692  
C  -10.4932839    0.6822643   -3.2361966  
O  -11.4455847    1.3740434   -2.8759382  
C  -10.5420031   -0.1445946   -4.4551533  
H   -9.7423153   -2.0664245   -6.6813369  
H  -10.2223418    1.8713577   -1.3497416  
H  -11.4556432   -0.1248213   -5.0340327  
H   -7.2372641   -2.8633420   -6.1624388  
C    2.3971438    2.0127888    3.1728260  
C    1.9431056    1.6308205    1.9564670  
C    0.8496017    0.7127664    2.2356185  
C    0.7794028    0.6545384    3.7115134  
N    1.6840587    1.4146091    4.2663826  
C   -0.1885723   -0.1578550    4.3957118  
C   -1.0476298   -0.8789867    3.6398520  
O   -2.0015663   -1.6796266    4.1448486  
C   -1.0022026   -0.8410666    2.1483229  
O   -1.8147390   -1.5232959    1.5241687  
C    0.0000000    0.0000000    1.4700000  
H    2.3054237    1.9346118    0.9892483  
H   -0.2170646   -0.1815267    5.4753125  
H   -2.4487139   -2.0549881    3.3649027  
H    3.2048689    2.6911772    3.3971983  
