62

C    1.1243411    0.0099243   -0.7919006  
C    0.7474080    0.0234091   -2.1148544  
C   -0.6787376    0.0234901   -2.1414695  
C   -1.1201742    0.0099270   -0.7935543  
N    0.0000000    0.0000000    0.0000000  
C   -2.4730817    0.0065204   -0.4408231  
C   -3.3971953    0.0173039   -1.4675054  
O   -4.7313513    0.0149120   -1.1793453  
C   -2.9763642    0.0305307   -2.8186311  
O   -4.0166464    0.0397549   -3.7247608  
C   -1.6418558    0.0336257   -3.1673474  
H   -2.8160166   -0.0039406    0.5845978  
H   -5.1938814    0.0234010   -2.0274364  
H   -3.6464663    0.0484503   -4.6127329  
H   -1.3497461    0.0436686   -4.2109227  
H    2.1062466    0.0051544   -0.3505413  
C    4.5316458   -2.0782506   -2.8537113  
C    4.8145576   -1.6024192   -4.0937195  
C    3.7435725   -0.7035952   -4.4541939  
C    2.8068217   -0.6946980   -3.3143653  
N    3.3419281   -1.5485144   -2.3775898  
C    1.6628959    0.0337896   -3.2649305  
C    1.3321238    0.8643634   -4.4109115  
O    0.3242791    1.5570833   -4.4627600  
C    2.3096985    0.8701065   -5.6291562  
O    2.0415749    1.5652518   -6.5997971  
C    3.5120828    0.0430159   -5.5655543  
H    5.6751772   -1.8526685   -4.6881292  
H    4.1838754    0.0527636   -6.4130938  
H    2.9324186   -1.7535205   -1.4846613  
C    8.3796578   -4.2493279   -3.5384642  
C    7.2733738   -3.4438935   -3.6794552  
C    6.5061847   -3.5773113   -2.4843735  
C    7.1999977   -4.4847895   -1.6435199  
N    8.3321227   -4.8751204   -2.3147512  
C    6.7319196   -4.8525391   -0.3784308  
C    5.5419146   -4.2937871    0.0456711  
O    5.0395224   -4.6180357    1.2726505  
C    4.8348950   -3.3867124   -0.7790449  
O    3.6665038   -2.9174678   -0.2151158  
C    5.2959352   -3.0236743   -2.0273119  
H    7.0466051   -2.8359300   -4.5384954  
H    9.0265543   -5.5086366   -1.9620425  
H    7.2559279   -5.5437587    0.2671949  
H    4.2142686   -4.1251007    1.3687516  
H    3.2509950   -2.3114654   -0.8361772  
H    9.1981351   -4.4280287   -4.2145705  
C    0.0000000    0.0000000    1.4700000  
C    1.0662921    0.0000102    2.3034270  
C    0.4961870   -0.0000064    3.6418889  
C   -0.9663858    0.0000850    3.4240247  
N   -1.2632773    0.0000084    2.1528658  
C   -1.8985362    0.0000517    4.5177257  
C   -1.3925775   -0.0004564    5.7720543  
O   -2.1456383   -0.0005410    6.8851312  
C    0.0786232   -0.0009323    6.0245000  
O    0.4683759   -0.0012588    7.1921102  
C    1.0143166   -0.0008442    4.8859032  
H    2.1107198   -0.0000632    2.0421868  
H   -2.9622183    0.0003270    4.3293377  
H   -1.5042274   -0.0009692    7.6184419  
H    2.0724152   -0.0013148    5.1109744  
