58

C    1.1319247    0.0015703   -0.8009268  
C    0.7969915    0.0034979   -2.1169403  
C   -0.6453338    0.0035689   -2.1842672  
C   -1.1266834    0.0015391   -0.7896027  
N    0.0000000    0.0000000    0.0000000  
C   -2.4346130    0.0013869   -0.4276293  
C   -3.4350109    0.0031276   -1.4820179  
O   -4.6384608    0.0030793   -1.2583914  
C   -2.9478960    0.0050394   -2.9661070  
O   -3.7809380    0.0062075   -3.8623773  
C   -1.5113826    0.0053038   -3.2312122  
H   -2.7664564    0.0000122    0.6013451  
H   -1.1823532    0.0068367   -4.2614848  
H    2.1104317    0.0009476   -0.3488060  
C    2.8943510   -0.6801080   -3.3710890  
C    1.7334692    0.0049322   -3.2500365  
C    1.6070290    0.7512047   -4.4924496  
C    2.8119081    0.3886741   -5.2692519  
N    3.5702468   -0.4501088   -4.6170586  
C    3.0636185    0.9261730   -6.5780004  
C    2.1528558    1.7864236   -7.0877206  
O    2.2600684    2.3637303   -8.2965480  
C    0.9267354    2.1715622   -6.3284724  
O    0.1408565    2.9598592   -6.8540230  
C    0.6911555    1.6066575   -4.9878349  
H    1.4643993    2.9201331   -8.3770398  
H   -0.2089640    1.9106868   -4.4705525  
H    3.3459581   -1.3526082   -2.6592128  
C    5.3493977   -2.8519641   -7.1824317  
C    4.4104088   -1.9750462   -6.7571144  
C    4.7883602   -0.7026458   -7.3526390  
C    6.0120212   -1.0023429   -8.1268601  
N    6.3456970   -2.2606948   -8.0309381  
C    6.7061283    0.0096103   -8.8746919  
C    6.2005543    1.2638606   -8.8505034  
O    6.7453121    2.3053765   -9.5020592  
C    4.9671437    1.5977429   -8.0788931  
O    4.5637180    2.7604747   -8.1017575  
C    4.2732623    0.5421936   -7.3197692  
H    3.5655738   -2.1678498   -6.1182431  
H    7.5982577   -0.2375305   -9.4314123  
H    6.1641012    3.0591916   -9.2944294  
H    5.4244019   -3.9045014   -6.9599170  
C    0.0000000    0.0000000    1.4700000  
C    1.0662921    0.0000102    2.3034270  
C    0.4961870   -0.0000064    3.6418889  
C   -0.9663858    0.0000850    3.4240247  
N   -1.2632773    0.0000084    2.1528658  
C   -1.8985362    0.0000517    4.5177257  
C   -1.3925775   -0.0004564    5.7720543  
O   -2.1456383   -0.0005410    6.8851312  
C    0.0786232   -0.0009323    6.0245000  
O    0.4683759   -0.0012588    7.1921102  
C    1.0143166   -0.0008442    4.8859032  
H    2.1107198   -0.0000632    2.0421868  
H   -2.9622183    0.0003270    4.3293377  
H   -1.5042274   -0.0009692    7.6184419  
H    2.0724152   -0.0013148    5.1109744  
