58

C    3.2798085    0.0005855   -1.4499650  
C    2.5571144    0.0005564   -2.5996555  
C    1.1637431    0.0001547   -2.2210361  
C    1.1336962   -0.0000200   -0.7459473  
N    2.4483513   -0.0001429   -0.3402721  
C    0.0000000    0.0000000    0.0000000  
C   -1.2757373   -0.0000187   -0.6964413  
O   -2.3524598   -0.0000639   -0.1142312  
C   -1.2676499   -0.0000875   -2.2584083  
O   -2.3355768   -0.0004101   -2.8557296  
C    0.0181559    0.0001759   -2.9516295  
H    0.0150787    0.0003318   -4.0331632  
H    4.3498548    0.0008611   -1.3200022  
H    2.7563625    0.0012823    0.6148062  
C    5.9694204   -2.1380315   -4.2640192  
C    5.9589005   -1.7308767   -5.5546367  
C    4.8277508   -0.8211674   -5.6517374  
C    4.2525276   -0.7950004   -4.2897470  
N    4.9176042   -1.5649437   -3.4719146  
C    3.1006054    0.0006260   -3.9654952  
C    2.5486622    0.7369524   -4.9567147  
O    1.4718513    1.5247915   -4.7960058  
C    3.1062918    0.7319662   -6.3413396  
O    2.5527676    1.4263769   -7.1937628  
C    4.2885179   -0.0924701   -6.6488626  
H    1.3179703    1.9166331   -5.6746031  
H    4.6619214   -0.0684624   -7.6638622  
H    6.6565703   -2.8195051   -3.7882127  
C    7.9496876   -5.5101418   -6.8267858  
C    7.1864336   -4.6325205   -6.1348290  
C    7.3628792   -3.3609785   -6.8193348  
C    8.2897401   -3.6618906   -7.9315241  
N    8.6371074   -4.9201575   -7.9410342  
C    8.7203659   -2.6510451   -8.8577200  
C    8.2462922   -1.3966934   -8.6811085  
O    8.5643426   -0.3561343   -9.4698557  
C    7.3093421   -1.0615987   -7.5684563  
O    6.9180579    0.1011566   -7.4678722  
C    6.8824114   -2.1160252   -6.6315253  
H    6.5786694   -4.8243441   -5.2671301  
H    9.3984919   -2.8990606   -9.6611766  
H    8.0747631    0.3980407   -9.0947752  
H    8.0897002   -6.5623878   -6.6366584  
C    2.3971438    2.0127888    3.1728260  
C    1.9431056    1.6308205    1.9564670  
C    0.8496017    0.7127664    2.2356185  
C    0.7794028    0.6545384    3.7115134  
N    1.6840587    1.4146091    4.2663826  
C   -0.1885723   -0.1578550    4.3957118  
C   -1.0476298   -0.8789867    3.6398520  
O   -2.0015663   -1.6796266    4.1448486  
C   -1.0022026   -0.8410666    2.1483229  
O   -1.8147390   -1.5232959    1.5241687  
C    0.0000000    0.0000000    1.4700000  
H    2.3054237    1.9346118    0.9892483  
H   -0.2170646   -0.1815267    5.4753125  
H   -2.4487139   -2.0549881    3.3649027  
H    3.2048689    2.6911772    3.3971983  
