58

C    3.3321174    0.0004717   -1.3379335  
C    2.6974184    0.0000121   -2.5332312  
C    1.2800440   -0.0002115   -2.2052839  
C    1.2395035    0.0000645   -0.7271295  
N    2.4394064    0.0005461   -0.2131037  
C    0.0000000    0.0000000    0.0000000  
C   -1.1468696    0.0000636   -0.7169542  
O   -2.3742199    0.0000073   -0.1695491  
C   -1.1388768    0.0001610   -2.2096354  
O   -2.2206230    0.0000908   -2.7970413  
C    0.1454524    0.0001820   -2.9324241  
H    3.1367989   -0.0000646   -3.5160945  
H   -2.9844342    0.0001027   -0.9290167  
C    7.0022000   -0.0017274   -3.8667536  
C    5.7010053   -0.0020352   -3.4946352  
C    5.7268792   -0.0004762   -2.0400467  
C    7.1642513    0.0005581   -1.6928521  
N    7.9166793   -0.0000882   -2.7595493  
C    7.6175799    0.0022644   -0.3291891  
C    6.6776998    0.0032973    0.6434145  
O    6.9577650    0.0049113    1.9577970  
C    5.2193465    0.0026668    0.3250322  
O    4.4197292    0.0035537    1.2608911  
C    4.7795904    0.0008677   -1.0815724  
H    4.8310668   -0.0030886   -4.1288924  
H    8.6741775    0.0027845   -0.1044374  
H    6.0879573    0.0053405    2.3966438  
H    7.4070887   -0.0025635   -4.8662728  
C    2.4320892   -2.0124020   -6.1859208  
C    2.0200842   -1.6305786   -4.9546438  
C    0.9177879   -0.7123201   -5.1959804  
C    0.7970297   -0.6538274   -6.6685904  
N    1.6820136   -1.4139316   -7.2542822  
C   -0.1937168    0.1588225   -7.3190579  
C   -1.0262430    0.8799466   -6.5340646  
O   -1.9968160    1.6808100   -7.0059188  
C   -0.9297028    0.8417626   -5.0449764  
O   -1.7202572    1.5240004   -4.3932128  
C    0.0950453    0.0004357   -4.4015596  
H    2.4153107   -1.9345886   -4.0004690  
H   -0.2592089    0.1826846   -8.3970433  
H   -2.4168999    2.0561008   -6.2110358  
H    3.2315443   -2.6908671   -6.4379722  
C    2.5528530    2.1414826    2.8079335  
C    2.0663498    1.7338582    4.0032312  
C    0.9804344    0.8229586    3.6752840  
C    0.9495562    0.7966882    2.1971295  
N    1.8690446    1.5676019    1.6831036  
C    0.0000000    0.0000000    1.4700000  
C   -0.8785127   -0.7372425    2.1869543  
O   -1.8187535   -1.5261249    1.6395491  
C   -0.8723269   -0.7321790    3.6796354  
O   -1.7010379   -1.4274584    4.2670412  
C    0.1115397    0.0933559    4.4024240  
H    2.4028853    2.0163452    4.9860947  
H   -2.2861435   -1.9184361    2.3990168  
H    0.0832434    0.0693689    5.4835595  
H    3.3664920    2.8238276    2.6198634  
