58

C    6.8847521   -0.0023785    0.6986611  
C    5.5715632   -0.0012904    0.3713798  
C    5.5475443   -0.0015350   -1.0832412  
C    6.9721656   -0.0027414   -1.4795200  
N    7.7607267   -0.0033210   -0.4392506  
C    7.3784668   -0.0033612   -2.8579266  
C    6.4057885   -0.0031903   -3.7977300  
O    6.6406195   -0.0037039   -5.1209441  
C    4.9592109   -0.0023543   -3.4295277  
O    4.1279730   -0.0021183   -4.3374177  
C    4.5679461   -0.0016854   -2.0086701  
H    4.7238856   -0.0005185    1.0350950  
H    8.4267357   -0.0040357   -3.1187772  
H    5.7562748   -0.0034384   -5.5297074  
C    6.8469087   -0.0016672    3.2359217  
C    7.4830558   -0.0026655    2.0413944  
C    8.9000312   -0.0042480    2.3710605  
C    8.9387789   -0.0038651    3.8492630  
N    7.7382544   -0.0024346    4.3618335  
C   10.1773983   -0.0051670    4.5778952  
C   11.3251354   -0.0071671    3.8623334  
O   12.5518204   -0.0085472    4.4112264  
C   11.3189518   -0.0079756    2.3696435  
O   12.4014096   -0.0096890    1.7835505  
C   10.0355021   -0.0065659    1.6452978  
H   10.1760889   -0.0046442    5.6581304  
H   13.1629538   -0.0098559    3.6525000  
H   10.0739062   -0.0073272    0.5642081  
H    5.7847952   -0.0003946    3.4227031  
C    3.1301149   -0.0010311   -1.7028252  
C    2.5367768   -0.0002767   -0.4864665  
C    1.1089904    0.0001028   -0.7656183  
C    1.0177872   -0.0004148   -2.2415132  
N    2.1993578   -0.0011611   -2.7963820  
C   -0.2459209   -0.0002877   -2.9257118  
C   -1.3675319   -0.0000605   -2.1698524  
O   -2.6129313    0.0000867   -2.6748490  
C   -1.3083584    0.0000910   -0.6783232  
O   -2.3693261    0.0004206   -0.0541692  
C    0.0000000    0.0000000    0.0000000  
H    3.0096017   -0.0001007    0.4807525  
H   -0.2829630   -0.0004687   -4.0053125  
H   -3.1967441    0.0002094   -1.8949034  
C    0.0000000    0.0000000    1.4700000  
C    1.0662921    0.0000102    2.3034270  
C    0.4961870   -0.0000064    3.6418889  
C   -0.9663858    0.0000850    3.4240247  
N   -1.2632773    0.0000084    2.1528658  
C   -1.8985362    0.0000517    4.5177257  
C   -1.3925775   -0.0004564    5.7720543  
O   -2.1456383   -0.0005410    6.8851312  
C    0.0786232   -0.0009323    6.0245000  
O    0.4683759   -0.0012588    7.1921102  
C    1.0143166   -0.0008442    4.8859032  
H    2.1107198   -0.0000632    2.0421868  
H   -2.9622183    0.0003270    4.3293377  
H   -1.5042274   -0.0009692    7.6184419  
H    2.0724152   -0.0013148    5.1109744  
