58

C    3.2798085    0.0005856   -1.4499646  
C    2.5571146    0.0005565   -2.5996553  
C    1.1637436    0.0001548   -2.2210360  
C    1.1336964   -0.0000200   -0.7459468  
N    2.4483512   -0.0001429   -0.3402719  
C    0.0000000    0.0000000    0.0000000  
C   -1.2757371   -0.0000187   -0.6964415  
O   -2.3524597   -0.0000640   -0.1142312  
C   -1.2676493   -0.0000873   -2.2584081  
O   -2.3355761   -0.0004101   -2.8557295  
C    0.0181561    0.0001759   -2.9516296  
H    2.9547354    0.0006074   -3.5989104  
H    2.7563628    0.0012823    0.6148064  
C    5.6938836    0.0012955   -2.2318621  
C    4.7390846    0.0009612   -1.2727278  
C    5.4706528    0.0012028   -0.0152273  
C    6.8949563    0.0015827   -0.4126486  
N    7.0320427    0.0017194   -1.7108000  
C    7.9554491    0.0019522    0.5571143  
C    7.6088223    0.0023314    1.8644720  
O    8.4940073    0.0026941    2.8756536  
C    6.1802421    0.0023343    2.2972775  
O    5.9381793    0.0025673    3.5041850  
C    5.1106701    0.0019076    1.2834041  
H    8.9875889    0.0020186    0.2383707  
H    7.9484087    0.0029342    3.6827935  
H    4.0886164    0.0020393    1.6378557  
H    5.5602507    0.0012642   -3.3019631  
C    2.4064703   -2.0119085   -6.1315532  
C    1.9558551   -1.6301623   -4.9138521  
C    0.8614673   -0.7121807   -5.1897589  
C    0.7870639   -0.6537471   -6.6654397  
N    1.6902156   -1.4136445   -7.2229906  
C   -0.1829371    0.1586453   -7.3467641  
C   -1.0399148    0.8795795   -6.5883597  
O   -1.9953663    1.6801939   -7.0905244  
C   -0.9902406    0.8414490   -5.0969710  
O   -1.8010680    1.5235046   -4.4704093  
C    0.0139740    0.0003878   -4.4216236  
H    2.3209547   -1.9340557   -3.9477121  
H   -0.2145031    0.1824697   -8.4262766  
H   -2.4403317    2.0553968   -6.3092554  
H    3.2136233   -2.6901813   -6.3583206  
C    0.8400945    0.7047457    2.2710304  
C    0.0000000    0.0000000    1.4700000  
C   -0.8844236   -0.7423113    2.3369512  
C   -0.4878984   -0.4098547    3.7186280  
N    0.5629682    0.4714286    3.6095011  
C   -1.0836927   -0.9095027    4.8308716  
C   -2.1891196   -1.8367527    4.6554461  
O   -2.7906899   -2.3413415    5.5944904  
C   -2.6257283   -2.2031529    3.2011665  
O   -3.5549479   -2.9829990    3.0410059  
C   -1.9068976   -1.5999348    2.0816745  
H   -0.7774656   -0.6525820    5.8354244  
H   -2.2155208   -1.8586617    1.0779135  
H    1.6384792    1.3747609    1.9961646  
H    1.0518368    0.8833920    4.3830260  
