58

C   -1.1313486    0.0361426   -0.8009269  
C   -0.7966658    0.0230574   -2.1169401  
C    0.6448567   -0.0250666   -2.1842672  
C    1.1260065   -0.0390749   -0.7896029  
N    0.0000000    0.0000000    0.0000000  
C    2.4332152   -0.0824983   -0.4276294  
C    3.4330001   -0.1175673   -1.4820183  
O    4.6357835   -0.1576137   -1.2583919  
C    2.9460913   -0.1032490   -2.9661078  
O    3.7786321   -0.1321703   -3.8623777  
C    1.5103665   -0.0556537   -3.2312127  
H   -1.4814523    0.0448349   -2.9459193  
H    2.7649204   -0.0921803    0.6013445  
H   -2.1092919    0.0693649   -0.3488058  
C    1.0633367   -0.0428368   -4.6315339  
C   -0.2053118   -0.0021952   -5.1010638  
C   -0.0695520   -0.0083808   -6.5495224  
C    1.3891995   -0.0559537   -6.7869351  
N    2.0584250   -0.0764032   -5.6663519  
C    1.9440894   -0.0756186   -8.1123771  
C    1.0809129   -0.0493584   -9.1533250  
O    1.4593998   -0.0633017  -10.4427414  
C   -0.3965820   -0.0015983   -8.9462287  
O   -1.1227433    0.0204512   -9.9399207  
C   -0.9411905    0.0178408   -7.5769411  
H   -1.1202560    0.0281344   -4.5344661  
H    3.0141045   -0.1102692   -8.2565174  
H    0.6257063   -0.0372660  -10.9461594  
C   -3.7940857    2.1271113   -4.8794589  
C   -2.6417098    1.7071853   -5.4515359  
C   -3.0573672    0.8003413   -6.5104800  
C   -4.5340363    0.7894659   -6.4335800  
N   -4.9716627    1.5653963   -5.4794288  
C   -5.3366733    0.0009759   -7.3275284  
C   -4.6933778   -0.7425398   -8.2563393  
O   -5.3160210   -1.5250373   -9.1541443  
C   -3.2042708   -0.7524209   -8.3594109  
O   -2.6860937   -1.4529186   -9.2289027  
C   -2.4031587    0.0648588   -7.4308646  
H   -1.6340537    1.9792844   -5.1875912  
H   -6.4139639    0.0118946   -7.2485612  
H   -4.5967778   -1.9244125   -9.6760076  
H   -3.9152660    2.8109909   -4.0544757  
C    0.0000000    0.0000000    1.4700000  
C    1.0662921    0.0000102    2.3034270  
C    0.4961870   -0.0000064    3.6418889  
C   -0.9663858    0.0000850    3.4240247  
N   -1.2632773    0.0000084    2.1528658  
C   -1.8985362    0.0000517    4.5177257  
C   -1.3925775   -0.0004564    5.7720543  
O   -2.1456383   -0.0005410    6.8851312  
C    0.0786232   -0.0009323    6.0245000  
O    0.4683759   -0.0012588    7.1921102  
C    1.0143166   -0.0008442    4.8859032  
H    2.1107198   -0.0000632    2.0421868  
H   -2.9622183    0.0003270    4.3293377  
H   -1.5042274   -0.0009692    7.6184419  
H    2.0724152   -0.0013148    5.1109744  
