62

C    1.1243360    0.0104729   -0.7919008  
C    0.7473961    0.0237738   -2.1148546  
C   -0.6787493    0.0231587   -2.1414697  
C   -1.1201791    0.0093805   -0.7935542  
N    0.0000000    0.0000000    0.0000000  
C   -2.4730849    0.0053139   -0.4408229  
C   -3.3972036    0.0156462   -1.4675045  
O   -4.7313589    0.0126039   -1.1793448  
C   -2.9763790    0.0290784   -2.8186310  
O   -4.0166667    0.0377949   -3.7247602  
C   -1.6418720    0.0328242   -3.1673474  
H   -2.8160147   -0.0053146    0.5845984  
H   -5.1938923    0.0208666   -2.0274362  
H   -3.6464903    0.0466707   -4.6127327  
H   -1.3497680    0.0430099   -4.2109226  
H    2.1062435    0.0061821   -0.3505413  
C    2.8391352   -0.6731832   -3.3474594  
C    3.4424187   -0.4113042   -4.5557374  
C    2.5988715    0.5037812   -5.2526214  
C    1.4864140    0.7666169   -4.4128110  
N    1.6628785    0.0346008   -3.2649305  
C    0.4490540    1.6292529   -4.7795966  
C    0.5364537    2.2378763   -6.0165751  
O   -0.4488771    3.0897382   -6.4245798  
C    1.6383160    1.9880241   -6.8688021  
O    1.5797963    2.6690827   -8.0671679  
C    2.6619237    1.1369214   -6.5077237  
H   -0.4016060    1.8336581   -4.1441451  
H   -0.1954441    3.3991944   -7.3039390  
H    2.3604083    2.4448339   -8.5828815  
H    3.4930263    0.9649327   -7.1816426  
H    3.1541141   -1.3099540   -2.5385895  
C    4.7159987   -0.9821272   -5.0173171  
C    5.5243597   -1.8509361   -4.3667005  
C    6.6378436   -2.0791872   -5.2747507  
C    6.3306707   -1.2468794   -6.4577522  
N    5.2053718   -0.6014176   -6.3125964  
C    7.2028046   -1.1949685   -7.5987056  
C    8.3307307   -1.9403374   -7.5594584  
O    9.2341714   -1.9874753   -8.5532462  
C    8.6687527   -2.7901905   -6.3797752  
O    9.7120536   -3.4426117   -6.4127989  
C    7.7579822   -2.8265214   -5.2217160  
H    5.3825942   -2.2834271   -3.3910315  
H    6.9533624   -0.5781905   -8.4497482  
H    9.9216219   -2.5998402   -8.2345401  
H    8.0388494   -3.4545391   -4.3868884  
C    2.5528530    2.1414826    2.8079335  
C    2.0663498    1.7338582    4.0032312  
C    0.9804344    0.8229586    3.6752840  
C    0.9495562    0.7966882    2.1971295  
N    1.8690446    1.5676019    1.6831036  
C    0.0000000    0.0000000    1.4700000  
C   -0.8785127   -0.7372425    2.1869543  
O   -1.8187535   -1.5261249    1.6395491  
C   -0.8723269   -0.7321790    3.6796354  
O   -1.7010379   -1.4274584    4.2670412  
C    0.1115397    0.0933559    4.4024240  
H    2.4028853    2.0163452    4.9860947  
H   -2.2861435   -1.9184361    2.3990168  
H    0.0832434    0.0693689    5.4835595  
H    3.3664920    2.8238276    2.6198634  
