60

C    0.0000000    0.0000000    0.0000000  
C    1.0521661   -0.0011860   -0.8862347  
C    0.4917205   -0.0011938   -2.1979135  
C   -0.9187440    0.0003111   -2.0478681  
N   -1.1833179   -0.0009458   -0.7007911  
C   -1.7951715    0.0010280   -3.1372085  
C   -1.2375854    0.0005176   -4.4010421  
O   -2.0474238    0.0015283   -5.4997576  
C    0.1673561   -0.0013560   -4.5711966  
O    0.5673502   -0.0020663   -5.8915552  
C    1.0325752   -0.0023370   -3.4969896  
H    2.0953050   -0.0030567   -0.6200569  
H   -2.0989777    0.0102290   -0.2891820  
H   -2.8710941    0.0020307   -3.0295506  
H   -1.4634910    0.0006436   -6.2693588  
H    1.5290685   -0.0033095   -5.9180051  
C    4.5245128   -2.0170115   -1.5964893  
C    3.2545814   -1.6337686   -1.8647765  
C    3.3688939   -0.7174280   -2.9889440  
C    4.8179331   -0.6614834   -3.2783222  
N    5.5004024   -1.4213079   -2.4653693  
C    5.3513364    0.1487417   -4.3385592  
C    4.4768626    0.8699809   -5.0764243  
O    4.8351410    1.6687359   -6.0960651  
C    3.0086996    0.8343380   -4.8092402  
O    2.2713422    1.5165337   -5.5206709  
C    2.4861685   -0.0045284   -3.7159932  
H    2.3517431   -1.9356885   -1.3619807  
H    3.9977693    2.0447297   -6.4225472  
H    4.8658388   -2.6947758   -0.8302611  
C    6.7983396    0.1787184   -4.5958187  
C    7.7960608   -0.4803818   -3.9522239  
C    9.0326927   -0.1040351   -4.5956067  
C    8.6710472    0.8351044   -5.6745042  
N    7.3022869    0.9638990   -5.6216199  
C    9.5613382    1.4195356   -6.5156497  
C   10.9697109    1.1022566   -6.3472547  
O   11.8486734    1.5771291   -7.0545183  
C   11.3753989    0.1099320   -5.2112469  
O   12.5581177   -0.1649933   -5.0600775  
C   10.3252347   -0.4556954   -4.3679954  
H    7.6790663   -1.1535357   -3.1216883  
H    9.2751547    2.1058181   -7.3005216  
H   10.6144851   -1.1417937   -3.5835673  
H    6.7540886    1.5411072   -6.2326496  
C    3.1301144    0.0010313    3.1728260  
C    2.5367765    0.0002768    1.9564670  
C    1.1089900   -0.0001027    2.2356185  
C    1.0177864    0.0004150    3.7115134  
N    2.1993570    0.0011613    4.2663826  
C   -0.2459220    0.0002880    4.3957118  
C   -1.3675327    0.0000606    3.6398520  
O   -2.6129319   -0.0000866    4.1448486  
C   -1.3083589   -0.0000910    2.1483229  
O   -2.3693264   -0.0004206    1.5241687  
C    0.0000000    0.0000000    1.4700000  
H    3.0096015    0.0001008    0.9892483  
H   -0.2829642    0.0004689    5.4753125  
H   -3.1967446   -0.0002093    3.3649027  
H    4.1849273    0.0015113    3.3971983  
