58

C    1.0965513    0.0001360   -0.8010308  
C    0.0000000    0.0000000    0.0000000  
C   -1.1546566    0.0001471   -0.8669507  
C   -0.6372025    0.0003523   -2.2486278  
N    0.7342862    0.0007339   -2.1395012  
C   -1.4147755    0.0001357   -3.3608706  
C   -2.8576064   -0.0001045   -3.1854448  
O   -3.6427799   -0.0002486   -4.1244886  
C   -3.4275850   -0.0000723   -1.7311649  
O   -4.6406838    0.0000336   -1.5710037  
C   -2.4891870   -0.0001088   -0.6116735  
H   -2.8919123   -0.0002917    0.3920882  
H    2.1388268    0.0000662   -0.5261650  
H    1.3735858   -0.0006096   -2.9130264  
C    1.9879915   -2.0094977   -5.4216937  
C    1.1159529   -1.6281419   -4.4595634  
C    0.2020378   -0.7114852   -5.1236411  
C    0.6824134   -0.6533114   -6.5209379  
N    1.7290277   -1.4122069   -6.7016770  
C    0.0350143    0.1578558   -7.5149044  
C   -1.0434962    0.8778658   -7.1305404  
O   -1.7440922    1.6772932   -7.9528071  
C   -1.5526929    0.8399679   -5.7278847  
O   -2.5392372    1.5211385   -5.4486768  
C   -0.8712846    0.0001716   -4.7267104  
H    1.0953609   -1.9314918   -3.4267849  
H   -2.4483696    2.0520616   -7.3936156  
H    2.8222532   -2.6868434   -5.3312280  
C    1.6661718   -2.8538704  -10.3667935  
C    1.1453578   -2.2963451   -9.2489839  
C    0.9967942   -0.8847615   -9.5681403  
C    1.4897937   -0.7627505  -10.9568983  
N    1.8834455   -1.9137743  -11.4303661  
C    1.5089058    0.4961551  -11.6496303  
C    1.0557369    1.5836655  -10.9853314  
O    1.0161925    2.8206274  -11.5091655  
C    0.5515051    1.4927757   -9.5833147  
O    0.1542800    2.5234965   -9.0401319  
C    0.5421216    0.1900545   -8.8942905  
H    0.8930624   -2.7829127   -8.3223371  
H    1.8748082    0.5562323  -12.6642323  
H    0.6469808    3.3782253  -10.8007016  
H    1.9242880   -3.8873159  -10.5351363  
C    0.0000000    0.0000000    1.4700000  
C    1.0662921    0.0000102    2.3034270  
C    0.4961870   -0.0000064    3.6418889  
C   -0.9663858    0.0000850    3.4240247  
N   -1.2632773    0.0000084    2.1528658  
C   -1.8985362    0.0000517    4.5177257  
C   -1.3925775   -0.0004564    5.7720543  
O   -2.1456383   -0.0005410    6.8851312  
C    0.0786232   -0.0009323    6.0245000  
O    0.4683759   -0.0012588    7.1921102  
C    1.0143166   -0.0008442    4.8859032  
H    2.1107198   -0.0000632    2.0421868  
H   -2.9622183    0.0003270    4.3293377  
H   -1.5042274   -0.0009692    7.6184419  
H    2.0724152   -0.0013148    5.1109744  
