64

C    4.3172181   -2.1276217   -1.4346664  
C    5.3517546   -1.6299846   -2.1926633  
C    4.7753703   -0.7549588   -3.1605016  
C    3.3738274   -0.7584003   -2.9423468  
N    3.1294631   -1.6035969   -1.8885224  
C    2.4861704   -0.0045255   -3.7159919  
C    3.0231749    0.7671113   -4.7281088  
O    2.2016884    1.5228926   -5.5135825  
C    4.4189003    0.7834865   -4.9615571  
O    4.7982356    1.6013206   -6.0058726  
C    5.2951627    0.0398120   -4.1989043  
H    2.2250239   -1.7989300   -1.4988869  
H    2.7718802    1.9765073   -6.1479163  
H    5.7549254    1.5549953   -6.0964452  
H    6.3593041    0.0724103   -4.4014329  
H    4.3324687   -2.8160058   -0.6071078  
C    7.4707925   -5.4524886   -1.2504308  
C    6.5095331   -4.5053639   -1.5176457  
C    7.1891750   -3.2674655   -1.7183850  
C    8.5753360   -3.5232542   -1.5600941  
N    8.7112580   -4.8591916   -1.2747609  
C    9.5478046   -2.5270733   -1.6893856  
C    9.1130551   -1.2494611   -1.9841351  
O   10.0203240   -0.2390393   -2.1216977  
C    7.7342389   -0.9743838   -2.1454285  
O    7.4612264    0.3463086   -2.4362541  
C    6.7742989   -1.9565961   -2.0177545  
H    5.4488606   -4.6844159   -1.5613035  
H    9.5823792   -5.3341822   -1.1214203  
H   10.6058169   -2.7155228   -1.5698071  
H    9.5129351    0.5579422   -2.3232959  
H    6.5089321    0.4466659   -2.5293559  
H    7.3695990   -6.5040067   -1.0429969  
C    0.0000000    0.0000000    0.0000000  
C    1.0521669   -0.0011848   -0.8862341  
C    0.4917221   -0.0011931   -2.1979130  
C   -0.9187427    0.0003100   -2.0478683  
N   -1.1833170   -0.0009472   -0.7007915  
C   -1.7951698    0.0010259   -3.1372090  
C   -1.2375835    0.0005161   -4.4010425  
O   -2.0474208    0.0015256   -5.4997580  
C    0.1673584   -0.0013557   -4.5711962  
O    0.5673529   -0.0020659   -5.8915551  
C    1.0325773   -0.0023359   -3.4969890  
H    2.0953059   -0.0030542   -0.6200560  
H   -2.0989777    0.0102265   -0.2891825  
H   -2.8710930    0.0020274   -3.0295514  
H   -1.4634881    0.0006427   -6.2693593  
H    1.5290715   -0.0033076   -5.9180042  
C    3.3321173   -0.0004715    2.8079335  
C    2.6974184   -0.0000116    4.0032312  
C    1.2800439    0.0002118    3.6752840  
C    1.2395035   -0.0000644    2.1971295  
N    2.4394063   -0.0005460    1.6831036  
C    0.0000000    0.0000000    1.4700000  
C   -1.1468701   -0.0000635    2.1869543  
O   -2.3742202   -0.0000073    1.6395491  
C   -1.1388768   -0.0001607    3.6796354  
O   -2.2206231   -0.0000905    4.2670412  
C    0.1454524   -0.0001816    4.4024240  
H    3.1367986    0.0000651    4.9860947  
H   -2.9844344   -0.0001026    2.3990168  
H    0.1083576   -0.0003682    5.4835595  
H    4.3940039   -0.0007619    2.6198634  
