58

C    1.0965516    0.0001358   -0.8010306  
C    0.0000000    0.0000000    0.0000000  
C   -1.1546562    0.0001470   -0.8669514  
C   -0.6372014    0.0003521   -2.2486283  
N    0.7342871    0.0007338   -2.1395008  
C   -1.4147739    0.0001353   -3.3608717  
C   -2.8576050   -0.0001047   -3.1854460  
O   -3.6427777   -0.0002490   -4.1244903  
C   -3.4275843   -0.0000725   -1.7311663  
O   -4.6406829    0.0000331   -1.5710055  
C   -2.4891867   -0.0001091   -0.6116746  
H   -2.8919122   -0.0002919    0.3920862  
H    2.1388268    0.0000664   -0.5261644  
H    1.3735872   -0.0006096   -2.9130260  
C    1.9957415   -2.1407949   -5.0258942  
C    1.9855629   -1.7332337   -6.3163861  
C    0.8551750   -0.8225478   -6.4132066  
C    0.2799736   -0.7963193   -5.0512081  
N    0.9444051   -1.5670712   -4.2336131  
C   -0.8712825    0.0001712   -4.7267109  
C   -1.4226086    0.7372647   -5.7177042  
O   -2.4987598    1.5259555   -5.5567521  
C   -0.8649830    0.7322387   -7.1023300  
O   -1.4179254    1.4273753   -7.9545392  
C    0.3165528   -0.0930920   -7.4101072  
H    2.6616910   -2.0156328   -7.1051683  
H   -2.6523125    1.9181966   -6.4352284  
H    2.6823207   -2.8229901   -4.5502976  
C    1.8554816   -3.3111861   -9.9127187  
C    2.1592483   -2.6598729  -11.0594958  
C    1.8037146   -1.2717748  -10.8079419  
C    1.2867904   -1.2646195   -9.4225461  
N    1.3147668   -2.4572563   -8.8926179  
C    0.8239917   -0.0604680   -8.7893609  
C    0.8756278    1.0845563   -9.5074050  
O    0.4769531    2.2807327   -9.0423662  
C    1.3923516    1.1098311  -10.9075906  
O    1.4102691    2.1878424  -11.5015527  
C    1.8612689   -0.1385554  -11.5349443  
H    2.5735148   -3.0706463  -11.9643284  
H    0.6349676    2.8983646   -9.7790584  
H    2.2283084   -0.0780090  -12.5507419  
H    1.9722242   -4.3607442   -9.6941506  
C    2.3971438    2.0127888    3.1728260  
C    1.9431056    1.6308205    1.9564670  
C    0.8496017    0.7127664    2.2356185  
C    0.7794028    0.6545384    3.7115134  
N    1.6840587    1.4146091    4.2663826  
C   -0.1885723   -0.1578550    4.3957118  
C   -1.0476298   -0.8789867    3.6398520  
O   -2.0015663   -1.6796266    4.1448486  
C   -1.0022026   -0.8410666    2.1483229  
O   -1.8147390   -1.5232959    1.5241687  
C    0.0000000    0.0000000    1.4700000  
H    2.3054237    1.9346118    0.9892483  
H   -0.2170646   -0.1815267    5.4753125  
H   -2.4487139   -2.0549881    3.3649027  
H    3.2048689    2.6911772    3.3971983  
