60

C    0.0000000    0.0000000    0.0000000  
C    1.0521659   -0.0011911   -0.8862347  
C    0.4917207   -0.0011958   -2.1979135  
C   -0.9187438    0.0003160   -2.0478679  
N   -1.1833174   -0.0009396   -0.7007910  
C   -1.7951717    0.0010376   -3.1372084  
C   -1.2375856    0.0005245   -4.4010421  
O   -2.0474240    0.0015388   -5.4997572  
C    0.1673561   -0.0013562   -4.5711967  
O    0.5673494   -0.0020686   -5.8915555  
C    1.0325754   -0.0023417   -3.4969895  
H    2.0953050   -0.0030670   -0.6200570  
H   -2.0989780    0.0102397   -0.2891817  
H   -1.4634914    0.0006523   -6.2693587  
H    1.5290679   -0.0033161   -5.9180051  
H    2.1042126   -0.0039627   -3.6584467  
C   -4.0038668    0.6889682   -2.0943569  
C   -3.2578668    0.0024080   -2.9908493  
C   -4.2205571   -0.7421157   -3.7879762  
C   -5.5362275   -0.3770148   -3.2202635  
N   -5.4155461    0.4616460   -2.2272510  
C   -6.7642912   -0.9122290   -3.7403508  
C   -6.6817790   -1.7727502   -4.7805573  
O   -7.7464365   -2.3480907   -5.3649619  
C   -5.3688947   -2.1604567   -5.3756868  
O   -5.3689699   -2.9488569   -6.3210161  
C   -4.1232846   -1.5978670   -4.8244406  
H   -7.3710332   -2.9052862   -6.0704815  
H   -3.1928074   -1.9037204   -5.2836746  
H   -3.6630470    1.3609027   -1.3227875  
C   -8.4373647    0.6979979   -2.7170642  
C   -8.0534832   -0.5257270   -3.1491647  
C   -9.1994621   -1.3872477   -2.9021569  
C  -10.2138809   -0.4949224   -2.3010791  
N   -9.7728772    0.7286784   -2.1901485  
C  -11.5103595   -0.9734124   -1.9070266  
C  -11.7812650   -2.2836868   -2.1048287  
O  -12.9496935   -2.8652285   -1.7844790  
C  -10.7785552   -3.2094853   -2.7095042  
O  -11.0933978   -4.3899267   -2.8600123  
C   -9.4556477   -2.6945749   -3.1053695  
H  -12.2322508   -0.2990568   -1.4699601  
H  -12.8412498   -3.7983442   -2.0427186  
H   -8.7574798   -3.3973565   -3.5399830  
H   -7.8687223    1.6142546   -2.7267299  
C    3.3321173   -0.0004715    2.8079335  
C    2.6974184   -0.0000116    4.0032312  
C    1.2800439    0.0002118    3.6752840  
C    1.2395035   -0.0000644    2.1971295  
N    2.4394063   -0.0005460    1.6831036  
C    0.0000000    0.0000000    1.4700000  
C   -1.1468701   -0.0000635    2.1869543  
O   -2.3742202   -0.0000073    1.6395491  
C   -1.1388768   -0.0001607    3.6796354  
O   -2.2206231   -0.0000905    4.2670412  
C    0.1454524   -0.0001816    4.4024240  
H    3.1367986    0.0000651    4.9860947  
H   -2.9844344   -0.0001026    2.3990168  
H    0.1083576   -0.0003682    5.4835595  
H    4.3940039   -0.0007619    2.6198634  
