58

C    3.2798087    0.0005854   -1.4499645  
C    2.5571147    0.0005562   -2.5996549  
C    1.1637437    0.0001546   -2.2210357  
C    1.1336965   -0.0000200   -0.7459472  
N    2.4483515   -0.0001430   -0.3402720  
C    0.0000000    0.0000000    0.0000000  
C   -1.2757368   -0.0000187   -0.6964416  
O   -2.3524594   -0.0000640   -0.1142319  
C   -1.2676493   -0.0000873   -2.2584083  
O   -2.3355756   -0.0004101   -2.8557301  
C    0.0181562    0.0001759   -2.9516296  
H    0.0150796    0.0003316   -4.0331632  
H    4.3498548    0.0008608   -1.3200013  
H    2.7563625    0.0012821    0.6148066  
C    5.9816658   -2.0880614   -4.4453408  
C    5.0429440   -1.6267505   -3.5792758  
C    4.1873012   -0.7324976   -4.3229310  
C    4.7081987   -0.7105035   -5.7031380  
N    5.7962508   -1.5525088   -5.7108624  
C    4.1727811    0.0175973   -6.7155125  
C    3.0057190    0.8342492   -6.4264093  
O    2.4508367    1.5255865   -7.2704821  
C    2.4373473    0.8263672   -4.9715219  
O    1.4553092    1.5102017   -4.7161158  
C    3.1006060    0.0006259   -3.9654943  
H    4.9595396   -1.8834604   -2.5382391  
H    6.7934419   -2.7740415   -4.2655059  
H    6.3664583   -1.7493845   -6.5128298  
C    5.8519988   -3.0583447   -9.4692829  
C    5.3081517   -2.4762599   -8.3752137  
C    5.1767438   -1.0701604   -8.7246649  
C    5.7038459   -0.9778703  -10.1031522  
N    6.1010923   -2.1401862  -10.5449745  
C    5.7480384    0.2673762  -10.8190402  
C    5.2862739    1.3702214  -10.1867098  
O    5.2676142    2.5971321  -10.7347814  
C    4.7478313    1.3093702   -8.7958330  
O    4.3445311    2.3527667   -8.2821278  
C    4.7131615    0.0201854   -8.0825830  
H    5.0303725   -2.9433902   -7.4458575  
H    6.1386595    0.3057102  -11.8254470  
H    4.8851804    3.1704973  -10.0461968  
H    6.1071888   -4.0964128   -9.6116410  
C    0.0000000    0.0000000    1.4700000  
C    1.0662921    0.0000102    2.3034270  
C    0.4961870   -0.0000064    3.6418889  
C   -0.9663858    0.0000850    3.4240247  
N   -1.2632773    0.0000084    2.1528658  
C   -1.8985362    0.0000517    4.5177257  
C   -1.3925775   -0.0004564    5.7720543  
O   -2.1456383   -0.0005410    6.8851312  
C    0.0786232   -0.0009323    6.0245000  
O    0.4683759   -0.0012588    7.1921102  
C    1.0143166   -0.0008442    4.8859032  
H    2.1107198   -0.0000632    2.0421868  
H   -2.9622183    0.0003270    4.3293377  
H   -1.5042274   -0.0009692    7.6184419  
H    2.0724152   -0.0013148    5.1109744  
