60

C    1.1243411    0.0100026   -0.7919004  
C    0.7474071    0.0234613   -2.1148551  
C   -0.6787384    0.0234422   -2.1414704  
C   -1.1201745    0.0098483   -0.7935555  
N    0.0000000    0.0000000    0.0000000  
C   -2.4730816    0.0063472   -0.4408241  
C   -3.3971960    0.0170656   -1.4675060  
O   -4.7313522    0.0145808   -1.1793467  
C   -2.9763656    0.0303221   -2.8186324  
O   -4.0166481    0.0394731   -3.7247626  
C   -1.6418570    0.0335101   -3.1673484  
H    1.4178713    0.0311102   -2.9571212  
H   -2.8160166   -0.0041379    0.5845965  
H   -5.1938821    0.0230372   -2.0274390  
H   -3.6464680    0.0481939   -4.6127343  
H    2.1062466    0.0053018   -0.3505411  
C   -0.1936758   -0.6738947   -5.1271223  
C   -0.0848703   -0.4442870   -6.4611074  
C   -1.1307898    0.4861841   -6.8148177  
C   -1.8630904    0.7819826   -5.5686117  
N   -1.2456339    0.0471604   -4.5828770  
C   -2.9257077    1.6216592   -5.4820511  
C   -3.3784995    2.2776848   -6.6974298  
O   -4.3266797    3.0513724   -6.7231437  
C   -2.6179146    1.9789096   -8.0286130  
O   -2.9902086    2.5251438   -9.0583151  
C   -1.4864716    1.0555280   -7.9961202  
H    0.6446949   -0.8774561   -7.1219504  
H   -3.4487332    1.8249756   -4.5579212  
H    0.4059922   -1.3093613   -4.4958771  
C   -0.7778009    0.7818322   -9.2546023  
C    0.2855555   -0.0316339   -9.4524004  
C    0.5771040    0.0711330  -10.8739973  
C   -0.4354308    1.0145590  -11.3948672  
N   -1.2324002    1.4345800  -10.4501915  
C   -0.4864985    1.3864220  -12.7820214  
C    0.4324336    0.8409122  -13.6110663  
O    0.5018540    1.0986444  -14.9281830  
C    1.4672310   -0.1139852  -13.1155598  
O    2.2721454   -0.5717472  -13.9266007  
C    1.4988194   -0.4797184  -11.6882668  
H    0.8076719   -0.6277250   -8.7236025  
H   -1.2374468    2.0779607  -13.1352364  
H    1.2536009    0.5664577  -15.2456834  
H    2.2641083   -1.1744906  -11.3691206  
C    2.5528530    2.1414826    2.8079335  
C    2.0663498    1.7338582    4.0032312  
C    0.9804344    0.8229586    3.6752840  
C    0.9495562    0.7966882    2.1971295  
N    1.8690446    1.5676019    1.6831036  
C    0.0000000    0.0000000    1.4700000  
C   -0.8785127   -0.7372425    2.1869543  
O   -1.8187535   -1.5261249    1.6395491  
C   -0.8723269   -0.7321790    3.6796354  
O   -1.7010379   -1.4274584    4.2670412  
C    0.1115397    0.0933559    4.4024240  
H    2.4028853    2.0163452    4.9860947  
H   -2.2861435   -1.9184361    2.3990168  
H    0.0832434    0.0693689    5.4835595  
H    3.3664920    2.8238276    2.6198634  
