58

C    2.4602722   -2.0944457   -5.9392883  
C    1.9124734   -1.6318087   -4.7860506  
C    0.8432457   -0.7354858   -5.1577935  
C    0.8127886   -0.7137219   -6.6327135  
N    1.8180306   -1.5578237   -7.0448664  
C   -0.0596368    0.0159816   -7.3730582  
C   -1.0334827    0.8347250   -6.6703356  
O   -1.8613771    1.5276079   -7.2472273  
C   -1.0192491    0.8271226   -5.1084314  
O   -1.8341903    1.5127100   -4.5058520  
C   -0.0307352   -0.0004646   -4.4215603  
H    2.2221960   -1.8889422   -3.7887704  
H   -0.0651693    0.0176827   -8.4542048  
H    2.0482142   -1.7553499   -8.0014469  
C    5.0438529   -4.2521190   -3.0816686  
C    4.0984200   -3.4607874   -3.6509016  
C    4.2467024   -3.5901469   -5.0813256  
C    5.3640149   -4.5284592   -5.3003558  
N    5.8037952   -4.8926275   -4.0486110  
C    5.8169804   -4.9132755   -6.5203734  
C    5.1603753   -4.3666632   -7.6962215  
O    5.4947425   -4.6515657   -8.8387320  
C    3.9750443   -3.3709889   -7.4878255  
O    3.4147135   -2.9040428   -8.4702974  
C    3.5771664   -3.0322268   -6.1237190  
H    3.3793454   -2.8553822   -3.1283786  
H    6.6380335   -5.6028739   -6.6590695  
H    5.2495060   -4.4211031   -2.0371396  
H    6.5590200   -5.5276172   -3.8656633  
C    3.2573670   -0.0002920   -1.5109380  
C    2.5379468   -0.0001709   -0.3591961  
C    1.1435043    0.0000332   -0.7338500  
C    1.1092609   -0.0000082   -2.2088477  
N    2.4227562    0.0001909   -2.6182613  
C   -0.0265532   -0.0002522   -2.9515663  
C   -1.3003035   -0.0002639   -2.2514981  
O   -2.3786784   -0.0004131   -2.8306429  
C   -1.2877725    0.0000312   -0.6895608  
O   -2.3539958    0.0003307   -0.0892036  
C    0.0000000    0.0000000    0.0000000  
H    2.9384091   -0.0000369    0.6389239  
H    4.3270394   -0.0004765   -1.6439446  
H    2.7280494   -0.0013406   -3.5742113  
C    0.8175213    0.6860729    2.3021913  
C    0.0000000    0.0000000    1.4700000  
C   -0.8887526   -0.7456559    2.3478473  
C   -0.4549825   -0.3816753    3.7138435  
N    0.5448156    0.4573574    3.6934124  
C   -1.0945674   -0.9182058    4.8835240  
C   -2.1210866   -1.7789155    4.6970523  
O   -2.8083856   -2.3554314    5.6976972  
C   -2.5824069   -2.1655116    3.3310774  
O   -3.5227682   -2.9541547    3.2362962  
C   -1.9100805   -1.6015804    2.1470656  
H   -0.7567140   -0.6349833    5.8697035  
H   -3.4728268   -2.9124471    5.2533954  
H   -2.2742832   -1.9066565    1.1752040  
H    1.6189533    1.3585343    2.0405121  
