62

C    3.3003540    0.0005278   -1.4738998  
C    2.5232805    0.0003501   -2.6090759  
C    1.1623190   -0.0001315   -2.1820106  
C    1.1711880    0.0000584   -0.7636147  
N    2.4852300   -0.0014918   -0.3662366  
C    0.0000000    0.0000000    0.0000000  
C   -1.2020387    0.0000521   -0.6806476  
O   -2.3759253    0.0003495    0.0157752  
C   -1.2314666   -0.0005110   -2.0955505  
O   -2.5054395   -0.0008035   -2.6250174  
C   -0.0764524   -0.0007269   -2.8495195  
H    2.8919942   -0.0005615   -3.6205312  
H    2.8036265    0.0088181    0.5858650  
H   -3.0835639    0.0000348   -0.6418810  
H   -2.4360058   -0.0011523   -3.5845915  
C   -0.1496428   -0.0015607   -4.3176960  
C    0.8605969   -0.0020137   -5.2251597  
C    0.2508202   -0.0027512   -6.5339794  
C   -1.2079401   -0.0026612   -6.3130521  
N   -1.3844322   -0.0023257   -4.9485957  
C   -2.1356024   -0.0028332   -7.3035797  
C   -1.6659583   -0.0033529   -8.6790694  
O   -2.4225864   -0.0036040   -9.6412615  
C   -0.1253123   -0.0037089   -8.9363928  
O    0.2819474   -0.0044537  -10.0902551  
C    0.7762256   -0.0031995   -7.7870100  
H    1.9128678   -0.0020322   -5.0030350  
H   -3.2010555   -0.0026328   -7.1199502  
H    1.8415227   -0.0032451   -7.9737364  
H   -2.2733191   -0.0006336   -4.4828440  
C    6.7690591    0.0043654   -4.2725618  
C    5.4996697    0.0031007   -3.8032780  
C    5.6352790    0.0013801   -2.3547935  
C    7.0947600    0.0017605   -2.1170978  
N    7.7645131    0.0035889   -3.2375516  
C    7.6497398    0.0004311   -0.7915481  
C    6.7859644   -0.0008154    0.2492331  
O    7.1644559   -0.0021417    1.5387227  
C    5.3077380   -0.0008591    0.0418516  
O    4.5810518   -0.0021558    1.0354037  
C    4.7630502    0.0004759   -1.3275418  
H    4.5843327    0.0033998   -4.3700532  
H    8.7202887    0.0005392   -0.6472011  
H    6.3302587   -0.0027811    2.0419802  
H    7.0973373    0.0058210   -5.2997939  
C    0.8576279    0.7185626    2.2703808  
C    0.0000000    0.0000000    1.4700000  
C   -0.8668858   -0.7285659    2.3373528  
C   -0.4876752   -0.4117774    3.6669281  
N    0.5635254    0.4678311    3.5902241  
C   -1.1297612   -0.9515493    4.7854808  
C   -2.1738724   -1.8268314    4.5576857  
O   -2.8357962   -2.3827064    5.6140350  
C   -2.5667212   -2.1555554    3.2384331  
O   -3.6226318   -3.0413663    3.1773122  
C   -1.9335634   -1.6236449    2.1344818  
H    1.0363952    0.8769718    4.3757045  
H   -0.8454472   -0.7142436    5.8013813  
H   -3.5178062   -2.9546422    5.2385129  
H   -3.8247440   -3.2102924    2.2519915  
H   -2.2566033   -1.8942483    1.1360343  
H    1.6567807    1.3889844    2.0042067  
