58

C    2.8922521   -0.6982572   -3.3324291  
C    1.7334699    0.0049570   -3.2500362  
C    1.6030732    0.7473411   -4.4815794  
C    2.7893657    0.4165962   -5.2940499  
N    3.5310201   -0.4638662   -4.5406409  
C    3.0380318    0.9168132   -6.5308406  
C    2.0729844    1.8429136   -7.0996620  
O    2.2068537    2.3478959   -8.2066278  
C    0.8094983    2.2074954   -6.2567575  
O   -0.0098084    2.9863625   -6.7251191  
C    0.6511880    1.6038096   -4.9360179  
H    3.9143719    0.6611527   -7.1101291  
H   -0.2264971    1.8612750   -4.3588660  
H    3.3334280   -1.3678374   -2.6120713  
C    1.1319247    0.0015868   -0.8009270  
C    0.7969917    0.0035091   -2.1169402  
C   -0.6453335    0.0035583   -2.1842672  
C   -1.1266832    0.0015218   -0.7896028  
N    0.0000000    0.0000000    0.0000000  
C   -2.4346129    0.0013499   -0.4276298  
C   -3.4350112    0.0030751   -1.4820187  
O   -4.6384611    0.0030088   -1.2583921  
C   -2.9478957    0.0049940   -2.9661078  
O   -3.7809377    0.0061492   -3.8623781  
C   -1.5113821    0.0052796   -3.2312127  
H   -2.7664567   -0.0000294    0.6013443  
H   -1.1823527    0.0068175   -4.2614851  
H    2.1104317    0.0009792   -0.3488056  
C    4.8056530   -1.0655807   -4.9579554  
C    5.5815233   -1.9352387   -4.2699884  
C    6.7136566   -2.2005272   -5.1442860  
C    6.4517118   -1.3864995   -6.3506557  
N    5.3347152   -0.7189647   -6.2471901  
C    7.3535533   -1.3721406   -7.4693874  
C    8.4666808   -2.1359622   -7.3865565  
O    9.3942870   -2.2182608   -8.3554809  
C    8.7592321   -2.9681269   -6.1823652  
O    9.7912761   -3.6389937   -6.1757510  
C    7.8186109   -2.9659066   -5.0478385  
H    5.4071619   -2.3459165   -3.2901835  
H    7.1369837   -0.7680286   -8.3383267  
H   10.0623606   -2.8360117   -8.0073228  
H    8.0668073   -3.5821174   -4.1940748  
C    2.3971438    2.0127888    3.1728260  
C    1.9431056    1.6308205    1.9564670  
C    0.8496017    0.7127664    2.2356185  
C    0.7794028    0.6545384    3.7115134  
N    1.6840587    1.4146091    4.2663826  
C   -0.1885723   -0.1578550    4.3957118  
C   -1.0476298   -0.8789867    3.6398520  
O   -2.0015663   -1.6796266    4.1448486  
C   -1.0022026   -0.8410666    2.1483229  
O   -1.8147390   -1.5232959    1.5241687  
C    0.0000000    0.0000000    1.4700000  
H    2.3054237    1.9346118    0.9892483  
H   -0.2170646   -0.1815267    5.4753125  
H   -2.4487139   -2.0549881    3.3649027  
H    3.2048689    2.6911772    3.3971983  
