58

C   -3.3320426    0.0222003   -1.3379349  
C   -2.6973541    0.0183414   -2.5332321  
C   -1.2800117    0.0089209   -2.2052845  
C   -1.2394747    0.0083692   -0.7271299  
N   -2.4393529    0.0160519   -0.2131048  
C    0.0000000    0.0000000    0.0000000  
C    1.1468433   -0.0078670   -0.7169532  
O    2.3741651   -0.0161618   -0.1695474  
C    1.1388510   -0.0079100   -2.2096345  
O    2.2205732   -0.0152002   -2.7970398  
C   -0.1454485    0.0008076   -2.9324237  
H   -3.1367234    0.0214076   -3.5160961  
H    2.9843646   -0.0204091   -0.9290152  
H   -0.1083557    0.0003685   -4.0135593  
C   -5.7850231    0.0387411   -1.9873469  
C   -4.7794850    0.0316532   -1.0815745  
C   -5.4415513    0.0352614    0.2138616  
C   -6.8853331    0.0450005   -0.1054879  
N   -7.0928278    0.0469996   -1.3942590  
C   -7.8914820    0.0509983    0.9205309  
C   -7.4742636    0.0470401    2.2070950  
O   -8.3031149    0.0518061    3.2649343  
C   -6.0242896    0.0368563    2.5615435  
O   -5.7169415    0.0338529    3.7534949  
C   -5.0114747    0.0308943    1.4909854  
H   -7.7144339    0.0470860    4.0411977  
H   -3.9716784    0.0234375    1.7893119  
H   -5.7098001    0.0388441   -3.0631322  
C   -9.9310718   -0.6201871   -0.4317646  
C   -9.3175142    0.0609251    0.5638314  
C  -10.3797282    0.8132254    1.2136345  
C  -11.6020692    0.4581197    0.4610611  
N  -11.3453106   -0.3818569   -0.5046013  
C  -12.8883390    1.0030645    0.7981539  
C  -12.9507211    1.8633425    1.8399624  
O  -14.0843189    2.4471695    2.2643937  
C  -11.7349339    2.2410861    2.6192765  
O  -11.8658438    3.0298472    3.5551931  
C  -10.4270021    1.6686174    2.2538750  
H  -13.7649525    0.7262292    0.2308616  
H  -13.8107742    3.0017207    3.0172542  
H   -9.5705239    1.9674243    2.8432730  
H   -9.4872904   -1.2950616   -1.1463104  
C    0.8175213    0.6860729    2.3021913  
C    0.0000000    0.0000000    1.4700000  
C   -0.8887526   -0.7456559    2.3478473  
C   -0.4549825   -0.3816753    3.7138435  
N    0.5448156    0.4573574    3.6934124  
C   -1.0945674   -0.9182058    4.8835240  
C   -2.1210866   -1.7789155    4.6970523  
O   -2.8083856   -2.3554314    5.6976972  
C   -2.5824069   -2.1655116    3.3310774  
O   -3.5227682   -2.9541547    3.2362962  
C   -1.9100805   -1.6015804    2.1470656  
H   -0.7567140   -0.6349833    5.8697035  
H   -3.4728268   -2.9124471    5.2533954  
H   -2.2742832   -1.9066565    1.1752040  
H    1.6189533    1.3585343    2.0405121  
