64

C    4.6027284   -2.0944968   -2.9150973  
C    3.4411565   -1.6373420   -2.3369735  
C    2.8377886   -0.7405118   -3.2676953  
C    3.6836207   -0.6899843   -4.4052108  
N    4.7469282   -1.5221609   -4.1572675  
C    3.3988813    0.0972714   -5.5250056  
C    2.2389987    0.8469468   -5.4960815  
O    1.9125736    1.6330028   -6.5631221  
C    1.3824833    0.8101280   -4.3700960  
O    0.2670645    1.6125636   -4.4937160  
C    1.6628945    0.0339172   -3.2649299  
H    3.0744456   -1.9151390   -1.3636567  
H    4.0395082    0.1402698   -6.3950344  
H    1.0776865    2.0643813   -6.3391998  
H   -0.2575671    1.5298016   -3.6915214  
H    5.3404960   -2.7824368   -2.5390701  
C    6.9909494   -5.2431972   -5.2098433  
C    6.1112510   -4.3425063   -4.6554503  
C    6.3971300   -3.0707861   -5.2347613  
C    7.4698941   -3.2590369   -6.1434241  
N    7.8075276   -4.5890509   -6.1023915  
C    8.0152226   -2.2148611   -6.8964854  
C    7.4674271   -0.9578040   -6.7294365  
O    7.9616360    0.0974399   -7.4402317  
C    6.3969840   -0.7498994   -5.8273582  
O    5.9617651    0.5581529   -5.7732521  
C    5.8586846   -1.7794897   -5.0839183  
H    5.3570779   -4.5734401   -3.9227248  
H    8.5295517   -5.0216711   -6.6496587  
H    8.8329392   -2.3517589   -7.5906039  
H    7.4450528    0.8700655   -7.1766867  
H    5.2382357    0.6120703   -5.1414286  
H    7.1014675   -6.3002063   -5.0381506  
C    1.1243410    0.0100105   -0.7919003  
C    0.7474072    0.0234665   -2.1148542  
C   -0.6787384    0.0234379   -2.1414698  
C   -1.1201748    0.0098411   -0.7935547  
N    0.0000000    0.0000000    0.0000000  
C   -2.4730818    0.0063307   -0.4408240  
C   -3.3971962    0.0170429   -1.4675058  
O   -4.7313520    0.0145490   -1.1793468  
C   -2.9763654    0.0303020   -2.8186325  
O   -4.0166484    0.0394464   -3.7247625  
C   -1.6418567    0.0334992   -3.1673480  
H   -2.8160166   -0.0041569    0.5845966  
H   -5.1938823    0.0230023   -2.0274386  
H   -3.6464680    0.0481700   -4.6127343  
H   -1.3497475    0.0435647   -4.2109234  
H    2.1062466    0.0053162   -0.3505405  
C    0.0000000    0.0000000    1.4700000  
C    1.0662921    0.0000102    2.3034270  
C    0.4961870   -0.0000064    3.6418889  
C   -0.9663858    0.0000850    3.4240247  
N   -1.2632773    0.0000084    2.1528658  
C   -1.8985362    0.0000517    4.5177257  
C   -1.3925775   -0.0004564    5.7720543  
O   -2.1456383   -0.0005410    6.8851312  
C    0.0786232   -0.0009323    6.0245000  
O    0.4683759   -0.0012588    7.1921102  
C    1.0143166   -0.0008442    4.8859032  
H    2.1107198   -0.0000632    2.0421868  
H   -2.9622183    0.0003270    4.3293377  
H   -1.5042274   -0.0009692    7.6184419  
H    2.0724152   -0.0013148    5.1109744  
