60

C    0.0000000    0.0000000    0.0000000  
C    1.0521665   -0.0011901   -0.8862342  
C    0.4917217   -0.0011956   -2.1979130  
C   -0.9187428    0.0003148   -2.0478683  
N   -1.1833173   -0.0009411   -0.7007911  
C   -1.7951703    0.0010349   -3.1372088  
C   -1.2375840    0.0005224   -4.4010424  
O   -2.0474220    0.0015359   -5.4997576  
C    0.1673578   -0.0013566   -4.5711965  
O    0.5673521   -0.0020688   -5.8915549  
C    1.0325768   -0.0023412   -3.4969890  
H    2.0953059   -0.0030648   -0.6200563  
H   -2.0989774    0.0102371   -0.2891826  
H   -1.4634888    0.0006496   -6.2693593  
H    1.5290706   -0.0033152   -5.9180048  
C    3.4064528   -0.7318366   -2.9764950  
C    4.6700471   -0.5171191   -3.4251602  
C    4.5733462    0.4095834   -4.5282045  
C    3.1395582    0.7193978   -4.6865021  
N    2.4861699   -0.0045381   -3.7159922  
C    2.6335421    1.5602166   -5.6238792  
C    3.5630782    2.2027684   -6.5380050  
O    3.2057020    2.9763279   -7.4167478  
C    5.0859339    1.8890250   -6.3887352  
O    5.8780057    2.4238418   -7.1528382  
C    5.5107310    0.9658168   -5.3394087  
H    5.5674380   -0.9577775   -3.0287723  
H    1.5783521    1.7739232   -5.7229396  
H    6.5669016    0.7540381   -5.2425735  
H    3.0700923   -1.3603658   -2.1679762  
C   -4.3329831    2.1449844   -0.3175482  
C   -5.5711587    1.7385011   -0.6826118  
C   -5.3538080    0.8273591   -1.7957508  
C   -3.8860980    0.7997141   -1.9736450  
N   -3.2823598    1.5700958   -1.1099309  
C   -3.2578657    0.0024038   -2.9908504  
C   -4.0594124   -0.7341201   -3.7935892  
O   -3.6090765   -1.5234579   -4.7836319  
C   -5.5440554   -0.7276670   -3.6388180  
O   -6.2116997   -1.4223514   -4.4049025  
C   -6.1645251    0.0984839   -2.5879058  
H   -6.5153680    2.0218840   -0.2499011  
H   -4.4116709   -1.9150347   -5.1730704  
H   -7.2431281    0.0755053   -2.5084188  
H   -4.0642024    2.8271070    0.4732988  
C    3.3321173   -0.0004715    2.8079335  
C    2.6974184   -0.0000116    4.0032312  
C    1.2800439    0.0002118    3.6752840  
C    1.2395035   -0.0000644    2.1971295  
N    2.4394063   -0.0005460    1.6831036  
C    0.0000000    0.0000000    1.4700000  
C   -1.1468701   -0.0000635    2.1869543  
O   -2.3742202   -0.0000073    1.6395491  
C   -1.1388768   -0.0001607    3.6796354  
O   -2.2206231   -0.0000905    4.2670412  
C    0.1454524   -0.0001816    4.4024240  
H    3.1367986    0.0000651    4.9860947  
H   -2.9844344   -0.0001026    2.3990168  
H    0.1083576   -0.0003682    5.4835595  
H    4.3940039   -0.0007619    2.6198634  
