62

C   -3.3000858   -0.0420369   -1.4739007  
C   -2.5230754   -0.0320855   -2.6090763  
C   -1.1622279   -0.0144870   -2.1820107  
C   -1.1710945   -0.0147886   -0.7636148  
N   -2.4850515   -0.0297654   -0.3662375  
C    0.0000000    0.0000000    0.0000000  
C    1.2019447    0.0150663   -0.6806468  
O    2.3757414    0.0295330    0.0157761  
C    1.2313639    0.0159994   -2.0955502  
O    2.5052322    0.0323149   -2.6250163  
C    0.0764385    0.0016885   -2.8495194  
H   -2.8917711   -0.0358114   -3.6205317  
H   -2.8032936   -0.0440792    0.5858646  
H    3.0833215    0.0387477   -0.6418798  
H    2.4358009    0.0317906   -3.5845906  
H    0.1303849    0.0029820   -3.9319085  
C   -6.6258339   -0.0865808   -4.4617214  
C   -5.3876554   -0.0710046   -3.8624401  
C   -5.6072001   -0.0720491   -2.4530434  
C   -7.0109863   -0.0889966   -2.2504990  
N   -7.5996604   -0.0955262   -3.4906752  
C   -7.5915647   -0.0949249   -0.9786176  
C   -6.7395037   -0.0838442    0.1086024  
O   -7.2532385   -0.0893285    1.3731419  
C   -5.3361135   -0.0665118   -0.0730925  
O   -4.6228244   -0.0566848    1.1077829  
C   -4.7626664   -0.0603814   -1.3275431  
H   -4.4424937   -0.0591112   -4.3777273  
H   -8.6607173   -0.1076821   -0.8175253  
H   -6.4975622   -0.0794284    1.9749050  
H   -3.6843739   -0.0451938    0.8961654  
H   -6.8913822   -0.0905719   -5.5049985  
C   -9.8775877   -2.2962569   -6.4832211  
C  -11.1475627   -1.9158869   -6.2110798  
C  -11.0318876   -0.9990855   -5.0874275  
C   -9.5821157   -0.9399288   -4.8023921  
N   -8.9003991   -1.6982043   -5.6174198  
C   -9.0473048   -0.1282708   -3.7439621  
C   -9.9210576    0.5918660   -3.0041693  
O   -9.5614593    1.3917268   -1.9858606  
C  -11.3898594    0.5535606   -3.2674433  
O  -12.1265238    1.2346843   -2.5542690  
C  -11.9138453   -0.2868031   -4.3588426  
H  -12.0512348   -2.2198325   -6.7111491  
H  -10.3986007    1.7665166   -1.6574093  
H  -12.9839459   -0.2869353   -4.5173201  
H   -9.5370696   -2.9733611   -7.2503915  
C    2.5528530    2.1414826    2.8079335  
C    2.0663498    1.7338582    4.0032312  
C    0.9804344    0.8229586    3.6752840  
C    0.9495562    0.7966882    2.1971295  
N    1.8690446    1.5676019    1.6831036  
C    0.0000000    0.0000000    1.4700000  
C   -0.8785127   -0.7372425    2.1869543  
O   -1.8187535   -1.5261249    1.6395491  
C   -0.8723269   -0.7321790    3.6796354  
O   -1.7010379   -1.4274584    4.2670412  
C    0.1115397    0.0933559    4.4024240  
H    2.4028853    2.0163452    4.9860947  
H   -2.2861435   -1.9184361    2.3990168  
H    0.0832434    0.0693689    5.4835595  
H    3.3664920    2.8238276    2.6198634  
