60

C    1.1188652    0.0008224   -0.8003802  
C    0.0000000    0.0000000    0.0000000  
C   -1.1323853    0.0008890   -0.8673533  
C   -0.6382643    0.0019671   -2.1969285  
N    0.7324033    0.0038480   -2.1202239  
C   -1.4770893    0.0027306   -3.3154817  
C   -2.8395456    0.0020923   -3.0876872  
O   -3.7039175    0.0024398   -4.1440366  
C   -3.3517859    0.0013910   -1.7684347  
O   -4.7300482    0.0012340   -1.7073141  
C   -2.5248534    0.0009109   -0.6644831  
H   -1.1067543    0.0036975   -4.3313818  
H   -4.5940006    0.0021799   -3.7685155  
H   -4.9934591    0.0007236   -0.7819939  
H   -2.9462571    0.0005587    0.3339638  
H    2.1619903    0.0009362   -0.5342058  
C    2.8040021   -0.7159408   -3.3653690  
C    1.6478457   -0.0100099   -3.2702992  
C    1.4957399    0.7174269   -4.5082553  
C    2.6664319    0.3749497   -5.3383031  
N    3.4207028   -0.4973419   -4.5879215  
C    2.8929145    0.8595980   -6.5855108  
C    1.9187493    1.7801252   -7.1477982  
O    2.0328527    2.2713027   -8.2631573  
C    0.6714812    2.1569266   -6.2863179  
O   -0.1553079    2.9312412   -6.7490459  
C    0.5367524    1.5697089   -4.9555753  
H   -0.3298157    1.8355597   -4.3655693  
H    3.2575091   -1.3773148   -2.6450879  
H    4.2849208   -0.9128926   -4.8837121  
C    4.9907991   -2.9566578   -7.1497901  
C    5.9634997   -2.5536961   -8.0074325  
C    5.7618656   -1.1429681   -8.2398676  
C    4.5835300   -0.7542905   -7.4415910  
N    4.1629687   -1.8990909   -6.8048417  
C    4.0692646    0.5005550   -7.3906130  
C    4.7195865    1.5374845   -8.1744458  
O    4.3321563    2.6984183   -8.1952245  
C    5.9689012    1.1483124   -9.0274193  
O    6.5245702    2.0127682   -9.6916541  
C    6.4300517   -0.2375124   -9.0013234  
H    6.7341814   -3.1739592   -8.4292583  
H    7.2958531   -0.4987295   -9.5945161  
H    4.8089448   -3.9372797   -6.7408896  
H    3.3770701   -1.9569379   -6.1835009  
C    0.8175213    0.6860729    2.3021913  
C    0.0000000    0.0000000    1.4700000  
C   -0.8887526   -0.7456559    2.3478473  
C   -0.4549825   -0.3816753    3.7138435  
N    0.5448156    0.4573574    3.6934124  
C   -1.0945674   -0.9182058    4.8835240  
C   -2.1210866   -1.7789155    4.6970523  
O   -2.8083856   -2.3554314    5.6976972  
C   -2.5824069   -2.1655116    3.3310774  
O   -3.5227682   -2.9541547    3.2362962  
C   -1.9100805   -1.6015804    2.1470656  
H   -0.7567140   -0.6349833    5.8697035  
H   -3.4728268   -2.9124471    5.2533954  
H   -2.2742832   -1.9066565    1.1752040  
H    1.6189533    1.3585343    2.0405121  
