62

C   -4.4706654    2.1247474   -0.3281857  
C   -5.6599553    1.6265075   -0.8075747  
C   -5.3396781    0.7517232   -1.8877483  
C   -3.9276369    0.7559269   -2.0220874  
N   -3.4313039    1.6013255   -1.0610605  
C   -3.2578655    0.0024729   -2.9908506  
C   -4.0275441   -0.7695189   -3.8392616  
O   -3.4248154   -1.5249155   -4.8031639  
C   -5.4377145   -0.7866543   -3.7211792  
O   -6.0625153   -1.6047615   -4.6396925  
C   -6.0991488   -0.0433951   -2.7658801  
H   -6.6380947    1.8651571   -0.4264138  
H   -2.4588016    1.7971671   -0.9065739  
H   -4.1336291   -1.9788775   -5.2772599  
H   -7.0120053   -1.5589523   -4.4914535  
H   -4.2816583    2.8131793    0.4776032  
C    0.0000000    0.0000000    0.0000000  
C    1.0521667   -0.0012127   -0.8862342  
C    0.4917213   -0.0012065   -2.1979130  
C   -0.9187429    0.0003340   -2.0478681  
N   -1.1833171   -0.0009161   -0.7007913  
C   -1.7951703    0.0010729   -3.1372088  
C   -1.2375845    0.0005482   -4.4010422  
O   -2.0474215    0.0015792   -5.4997578  
C    0.1673578   -0.0013607   -4.5711963  
O    0.5673518   -0.0020815   -5.8915554  
C    1.0325766   -0.0023637   -3.4969890  
H    2.0953063   -0.0031096   -0.6200564  
H   -2.0989776    0.0102817   -0.2891822  
H   -1.4634889    0.0006800   -6.2693595  
H    1.5290711   -0.0033483   -5.9180046  
H    2.1042152   -0.0040061   -3.6584455  
C   -8.4166865    0.9365362   -2.4374391  
C   -7.5657098   -0.0884001   -2.6760232  
C   -8.4189752   -1.2570643   -2.8265579  
C   -9.7927737   -0.7415777   -2.6434306  
N   -9.7977463    0.5436586   -2.4151059  
C  -10.9435106   -1.5990106   -2.7189274  
C  -10.7314888   -2.9116731   -2.9665132  
O  -11.7123788   -3.8251942   -3.0633351  
C   -9.3570451   -3.4621722   -3.1562882  
O   -9.2386690   -4.6671218   -3.3783336  
C   -8.1928364   -2.5622901   -3.0741005  
H  -11.9359317   -1.1953389   -2.5808722  
H  -11.2523028   -4.6648645   -3.2434367  
H   -7.2140474   -3.0000576   -3.2174964  
H   -8.1759383    1.9742058   -2.2693448  
C    3.3321173   -0.0004715    2.8079335  
C    2.6974184   -0.0000116    4.0032312  
C    1.2800439    0.0002118    3.6752840  
C    1.2395035   -0.0000644    2.1971295  
N    2.4394063   -0.0005460    1.6831036  
C    0.0000000    0.0000000    1.4700000  
C   -1.1468701   -0.0000635    2.1869543  
O   -2.3742202   -0.0000073    1.6395491  
C   -1.1388768   -0.0001607    3.6796354  
O   -2.2206231   -0.0000905    4.2670412  
C    0.1454524   -0.0001816    4.4024240  
H    3.1367986    0.0000651    4.9860947  
H   -2.9844344   -0.0001026    2.3990168  
H    0.1083576   -0.0003682    5.4835595  
H    4.3940039   -0.0007619    2.6198634  
