60

C   -1.1161981    0.1354435   -0.7919011  
C   -0.7441679    0.0733656   -2.1148550  
C    0.6700108   -0.1109971   -2.1414706  
C    1.1094998   -0.1545893   -0.7935551  
N    0.0000000    0.0000000    0.0000000  
C    2.4515050   -0.3260304   -0.4408249  
C    3.3664775   -0.4561343   -1.4675063  
O    4.6897574   -0.6261590   -1.1793473  
C    2.9474649   -0.4148716   -2.8186330  
O    3.9778337   -0.5584406   -3.7247629  
C    1.6237441   -0.2454987   -3.1673488  
H   -1.4099939    0.1524629   -2.9571211  
H    2.7929174   -0.3599703    0.5845955  
H    5.1473126   -0.6943433   -2.0274392  
H    3.6096329   -0.5192289   -4.6127349  
H   -2.0892548    0.2670523   -0.3505407  
C    1.2290815   -0.2078080   -4.5828772  
C   -0.0069890   -0.0516188   -5.1230711  
C    0.1530310   -0.0866173   -6.5576454  
C    1.5939785   -0.2773961   -6.8107563  
N    2.1906524   -0.3427887   -5.5727768  
C    2.1532295   -0.3629890   -8.0442944  
C    1.2775393   -0.2601401   -9.1997704  
O    1.6849788   -0.3249993  -10.3521965  
C   -0.2518360   -0.0576403   -8.9552088  
O   -0.9988798    0.0306170   -9.9202980  
C   -0.7364171    0.0193411   -7.5793066  
H   -0.9259636    0.0739784   -4.5787136  
H   -1.7967243    0.1594390   -7.4185425  
H    3.1730258   -0.4710556   -5.4129719  
C    3.5937185   -0.5535765   -8.2669344  
C    4.5719209   -0.6721192   -7.3392240  
C    5.7971619   -0.8400341   -8.1054414  
C    5.3621273   -0.7975066   -9.5180700  
N    4.0715283   -0.6297059   -9.6189987  
C    6.2926849   -0.9301138  -10.6050680  
C    7.5985340   -1.0972071  -10.2949521  
O    8.5752120   -1.2340353  -11.2078698  
C    8.0688132   -1.1439217   -8.8790366  
O    9.2720601   -1.2988100   -8.6706447  
C    7.0947907   -1.0055829   -7.7817370  
H    4.4741321   -0.6484392   -6.2673320  
H    5.9469298   -0.8955099  -11.6278909  
H    9.3910095   -1.3349882  -10.6849592  
H    7.4756719   -1.0446942   -6.7699915  
C    0.0000000    0.0000000    1.4700000  
C    1.0662921    0.0000102    2.3034270  
C    0.4961870   -0.0000064    3.6418889  
C   -0.9663858    0.0000850    3.4240247  
N   -1.2632773    0.0000084    2.1528658  
C   -1.8985362    0.0000517    4.5177257  
C   -1.3925775   -0.0004564    5.7720543  
O   -2.1456383   -0.0005410    6.8851312  
C    0.0786232   -0.0009323    6.0245000  
O    0.4683759   -0.0012588    7.1921102  
C    1.0143166   -0.0008442    4.8859032  
H    2.1107198   -0.0000632    2.0421868  
H   -2.9622183    0.0003270    4.3293377  
H   -1.5042274   -0.0009692    7.6184419  
H    2.0724152   -0.0013148    5.1109744  
