64

C    4.5582359   -2.0922264   -2.8633927  
C    4.7995863   -1.5811264   -4.1175831  
C    3.7180587   -0.7032889   -4.4246643  
C    2.8401178   -0.7189699   -3.3107075  
N    3.3790676   -1.5738357   -2.3815388  
C    1.6628945    0.0339172   -3.2649299  
C    1.3667038    0.8171316   -4.3635762  
O    0.2298889    1.5725144   -4.3714928  
C    2.2299650    0.8458158   -5.4846351  
O    1.7963543    1.6742716   -6.4990245  
C    3.3913537    0.1031242   -5.5305966  
H    2.9820488   -1.7789139   -1.4824836  
H    0.2153772    2.0351557   -5.2194414  
H    2.4353791    1.6358679   -7.2172002  
H    4.0328106    0.1452890   -6.4030837  
H    5.1331928   -2.7866339   -2.2750211  
C    6.9414177   -5.3760408   -4.8726084  
C    7.8812187   -4.8769638   -5.7444823  
C    7.6193846   -3.4818743   -5.8850841  
C    6.4986632   -3.1843328   -5.0681531  
N    6.1106687   -4.3570287   -4.4691018  
C    5.9606910   -1.8982550   -4.9614823  
C    6.5652789   -0.8941946   -5.6925866  
O    6.0807472    0.3800392   -5.6249804  
C    7.6841593   -1.1713697   -6.5136224  
O    8.1731296   -0.0658864   -7.1785716  
C    8.2152451   -2.4399331   -6.6195459  
H    8.6590456   -5.4483678   -6.2214269  
H    5.3472015   -4.4545001   -3.8244324  
H    6.6394204    0.9156279   -6.2031615  
H    8.9269868   -0.3394457   -7.7100511  
H    9.0728185   -2.6218970   -7.2566780  
H    6.7970836   -6.3785432   -4.5077593  
C    1.1243410    0.0100105   -0.7919003  
C    0.7474072    0.0234665   -2.1148542  
C   -0.6787384    0.0234379   -2.1414698  
C   -1.1201748    0.0098411   -0.7935547  
N    0.0000000    0.0000000    0.0000000  
C   -2.4730818    0.0063307   -0.4408240  
C   -3.3971962    0.0170429   -1.4675058  
O   -4.7313520    0.0145490   -1.1793468  
C   -2.9763654    0.0303020   -2.8186325  
O   -4.0166484    0.0394464   -3.7247625  
C   -1.6418567    0.0334992   -3.1673480  
H   -2.8160166   -0.0041569    0.5845966  
H   -5.1938823    0.0230023   -2.0274386  
H   -3.6464680    0.0481700   -4.6127343  
H   -1.3497475    0.0435647   -4.2109234  
H    2.1062466    0.0053162   -0.3505405  
C    0.8175213    0.6860729    2.3021913  
C    0.0000000    0.0000000    1.4700000  
C   -0.8887526   -0.7456559    2.3478473  
C   -0.4549825   -0.3816753    3.7138435  
N    0.5448156    0.4573574    3.6934124  
C   -1.0945674   -0.9182058    4.8835240  
C   -2.1210866   -1.7789155    4.6970523  
O   -2.8083856   -2.3554314    5.6976972  
C   -2.5824069   -2.1655116    3.3310774  
O   -3.5227682   -2.9541547    3.2362962  
C   -1.9100805   -1.6015804    2.1470656  
H   -0.7567140   -0.6349833    5.8697035  
H   -3.4728268   -2.9124471    5.2533954  
H   -2.2742832   -1.9066565    1.1752040  
H    1.6189533    1.3585343    2.0405121  
