58

C    2.5049804   -2.0931563   -5.9399565  
C    1.9571818   -1.6308520   -4.7865848  
C    0.8879545   -0.7344212   -5.1580685  
C    0.8574973   -0.7122316   -6.6329822  
N    1.8627391   -1.5562149   -7.0453792  
C   -0.0149279    0.0176860   -7.3731166  
C   -0.9887732    0.8362267   -6.6701568  
O   -1.8166678    1.5292768   -7.2468489  
C   -0.9745397    0.8281737   -5.1082553  
O   -1.7894804    1.5135872   -4.5054780  
C    0.0139741    0.0003876   -4.4216236  
H    2.2669048   -1.8882737   -3.7893787  
H   -0.0204605    0.0196991   -8.4542617  
H    3.3239678   -2.7807665   -6.0753927  
C    3.0265652   -5.2727707   -9.1260418  
C    2.6564093   -4.3549465   -8.1961713  
C    2.5369098   -3.0883862   -8.8790918  
C    2.8701502   -3.3454075  -10.2931924  
N    3.1579471   -4.6882085  -10.3765472  
C    2.8727838   -2.3998413  -11.2666422  
C    2.5243590   -1.0380711  -10.8968885  
O    2.4980343   -0.1155382  -11.7009661  
C    2.1682194   -0.7430449   -9.4049334  
O    1.8735683    0.3997378   -9.0816854  
C    2.1999224   -1.8451561   -8.4467073  
H    2.4866478   -4.5436053   -7.1510860  
H    3.1201719   -2.6094263  -12.2980410  
H    3.2146361   -6.3269841   -9.0029433  
H    3.4207662   -5.1698153  -11.2168014  
C    3.2798085    0.0005853   -1.4499648  
C    2.5571144    0.0005562   -2.5996554  
C    1.1637436    0.0001546   -2.2210360  
C    1.1336965   -0.0000201   -0.7459470  
N    2.4483513   -0.0001430   -0.3402717  
C    0.0000000    0.0000000    0.0000000  
C   -1.2757367   -0.0000188   -0.6964414  
O   -2.3524597   -0.0000640   -0.1142313  
C   -1.2676494   -0.0000875   -2.2584081  
O   -2.3355762   -0.0004102   -2.8557294  
C    0.0181562    0.0001757   -2.9516296  
H    2.9547357    0.0006072   -3.5989105  
H    4.3498550    0.0008609   -1.3200021  
H    2.7563627    0.0012824    0.6148063  
C    2.5528530    2.1414826    2.8079335  
C    2.0663498    1.7338582    4.0032312  
C    0.9804344    0.8229586    3.6752840  
C    0.9495562    0.7966882    2.1971295  
N    1.8690446    1.5676019    1.6831036  
C    0.0000000    0.0000000    1.4700000  
C   -0.8785127   -0.7372425    2.1869543  
O   -1.8187535   -1.5261249    1.6395491  
C   -0.8723269   -0.7321790    3.6796354  
O   -1.7010379   -1.4274584    4.2670412  
C    0.1115397    0.0933559    4.4024240  
H    2.4028853    2.0163452    4.9860947  
H   -2.2861435   -1.9184361    2.3990168  
H    0.0832434    0.0693689    5.4835595  
H    3.3664920    2.8238276    2.6198634  
