60

C    0.0000000    0.0000000    0.0000000  
C    0.7157253    0.7712285   -0.8862348  
C    0.3349575    0.3599928   -2.1979133  
C   -0.6244343   -0.6739225   -2.0478684  
N   -0.8032671   -0.8689095   -0.7007915  
C   -1.2204156   -1.3165195   -3.1372092  
C   -0.8412103   -0.9077341   -4.4010425  
O   -1.3921657   -1.5012715   -5.4997578  
C    0.1146993    0.1218780   -4.5711965  
O    0.3869820    0.4148937   -5.8915553  
C    0.7032601    0.7560717   -3.4969896  
H    1.4258193    1.5353675   -0.6200570  
H   -1.4335774   -1.5331889   -0.2891825  
H   -1.9521470   -2.1053040   -3.0295510  
H   -0.9947863   -1.0734075   -6.2693592  
H    1.0412974    1.1197166   -5.9180052  
C    2.8323914    2.0144584   -3.0037690  
C    1.6924573    1.8211663   -3.7159928  
C    1.6429613    2.8571005   -4.7205950  
C    2.8562154    3.6756148   -4.5339418  
N    3.5342421    3.1125177   -3.4774897  
C    3.1786254    4.7559184   -5.2893894  
C    2.2699469    5.1381161   -6.3574547  
O    2.4716063    6.0956534   -7.0928162  
C    0.9789329    4.2856831   -6.5729684  
O    0.2062602    4.5980306   -7.4688907  
C    0.7399117    3.1431928   -5.6946535  
H   -0.1561671    2.5580027   -5.8506001  
H    3.2186860    1.4472478   -2.1725423  
H    4.4058036    3.4464546   -3.1088248  
C    7.4294195    3.8578687   -4.2950569  
C    6.1144591    3.6944306   -4.5702764  
C    5.6047291    5.0409665   -4.7788816  
C    6.7793525    5.9182101   -4.5857815  
N    7.8518716    5.2303339   -4.3020247  
C    6.6901223    7.3472120   -4.7085732  
C    5.4824299    7.8757924   -5.0109238  
O    5.2543407    9.1922213   -5.1559435  
C    4.2783241    7.0168465   -5.2121766  
O    3.2111052    7.5661517   -5.4851748  
C    4.3955757    5.5536645   -5.0807416  
H    5.5590077    2.7738069   -4.6250641  
H    7.5646989    7.9640851   -4.5619632  
H    4.3057439    9.2576004   -5.3681769  
H    8.1625154    3.0967486   -4.0800208  
C    3.3321173   -0.0004715    2.8079335  
C    2.6974184   -0.0000116    4.0032312  
C    1.2800439    0.0002118    3.6752840  
C    1.2395035   -0.0000644    2.1971295  
N    2.4394063   -0.0005460    1.6831036  
C    0.0000000    0.0000000    1.4700000  
C   -1.1468701   -0.0000635    2.1869543  
O   -2.3742202   -0.0000073    1.6395491  
C   -1.1388768   -0.0001607    3.6796354  
O   -2.2206231   -0.0000905    4.2670412  
C    0.1454524   -0.0001816    4.4024240  
H    3.1367986    0.0000651    4.9860947  
H   -2.9844344   -0.0001026    2.3990168  
H    0.1083576   -0.0003682    5.4835595  
H    4.3940039   -0.0007619    2.6198634  
