60

C    1.1243404    0.0100101   -0.7919010  
C    0.7474060    0.0234663   -2.1148549  
C   -0.6787396    0.0234385   -2.1414699  
C   -1.1201749    0.0098418   -0.7935544  
N    0.0000000    0.0000000    0.0000000  
C   -2.4730823    0.0063321   -0.4408230  
C   -3.3971967    0.0170447   -1.4675047  
O   -4.7313524    0.0145515   -1.1793448  
C   -2.9763671    0.0303042   -2.8186310  
O   -4.0166497    0.0394489   -3.7247605  
C   -1.6418584    0.0335006   -3.1673477  
H   -2.8160162   -0.0041554    0.5845978  
H   -5.1938829    0.0230052   -2.0274358  
H   -3.6464702    0.0481723   -4.6127325  
H   -1.3497496    0.0435660   -4.2109228  
H    2.1062462    0.0053151   -0.3505420  
C    4.5575643   -2.0610707   -2.9109879  
C    3.4088202   -1.6041454   -2.3491333  
C    2.8058341   -0.6999826   -3.2997819  
C    3.7038723   -0.6673939   -4.4699334  
N    4.7468088   -1.5133522   -4.1707223  
C    3.4850154    0.0718708   -5.5867569  
C    2.2849994    0.8902155   -5.6397509  
O    1.9987724    1.5912618   -6.6014727  
C    1.3199204    0.8712369   -4.4117165  
O    0.3066376    1.5563858   -4.4447249  
C    1.6628928    0.0339168   -3.2649309  
H    3.0274839   -1.8699907   -1.3793280  
H    5.2819174   -2.7516843   -2.5106676  
H    5.5245077   -1.7050614   -4.7752714  
C    5.7853316   -3.1121584   -7.6034217  
C    4.9709445   -2.4132861   -6.7713001  
C    5.0113854   -1.0356366   -7.2017430  
C    5.9225999   -0.9888589   -8.3611771  
N    6.3582078   -2.2797330   -8.5529584  
C    6.2269436    0.1370746   -9.0549746  
C    5.6164678    1.3862406   -8.6313718  
O    5.8272290    2.4541348   -9.1912667  
C    4.6484635    1.3601365   -7.4057733  
O    4.1287787    2.4057061   -7.0397514  
C    4.3978831    0.0848623   -6.7388868  
H    4.4064641   -2.8167637   -5.9496054  
H    6.8977955    0.1496346   -9.9027418  
H    6.0153568   -4.1652387   -7.6027425  
H    6.9927873   -2.5724278   -9.2731562  
C    2.5528530    2.1414826    2.8079335  
C    2.0663498    1.7338582    4.0032312  
C    0.9804344    0.8229586    3.6752840  
C    0.9495562    0.7966882    2.1971295  
N    1.8690446    1.5676019    1.6831036  
C    0.0000000    0.0000000    1.4700000  
C   -0.8785127   -0.7372425    2.1869543  
O   -1.8187535   -1.5261249    1.6395491  
C   -0.8723269   -0.7321790    3.6796354  
O   -1.7010379   -1.4274584    4.2670412  
C    0.1115397    0.0933559    4.4024240  
H    2.4028853    2.0163452    4.9860947  
H   -2.2861435   -1.9184361    2.3990168  
H    0.0832434    0.0693689    5.4835595  
H    3.3664920    2.8238276    2.6198634  
