58

C    0.0000000    0.0000000    0.0000000  
C    1.0541688   -0.0001718   -0.8560387  
C    0.5103144   -0.0000448   -2.1935956  
C   -0.9576364    0.0002467   -2.0455734  
N   -1.2018455   -0.0001388   -0.6915972  
C   -1.8348302    0.0008328   -3.0810616  
C   -1.2972835    0.0009751   -4.4314609  
O   -2.0050655    0.0014279   -5.4301327  
C    0.2542638    0.0004199   -4.6117572  
O    0.7184690    0.0002275   -5.7439119  
C    1.0974562    0.0000881   -3.4189129  
H    2.0940753   -0.0005481   -0.5817981  
H    2.1707289   -0.0000902   -3.5523664  
H   -2.1128193    0.0014914   -0.2706800  
C   -4.0213993    0.6871366   -1.9915551  
C   -3.2941063    0.0012884   -2.9038252  
C   -4.2729881   -0.7435710   -3.6806623  
C   -5.5765823   -0.3794228   -3.0851599  
N   -5.4354376    0.4590134   -2.0946586  
C   -6.8150469   -0.9152132   -3.5793460  
C   -6.7540279   -1.7753746   -4.6213313  
O   -7.8304581   -2.3511744   -5.1832856  
C   -5.4537852   -2.1621219   -5.2441925  
O   -5.4733724   -2.9502394   -6.1895536  
C   -4.1971357   -1.5989547   -4.7192164  
H   -7.4697200   -2.9079363   -5.8967545  
H   -3.2763909   -1.9041169   -5.1981058  
H   -3.6647466    1.3590437   -1.2271513  
C   -8.0916854   -0.5296554   -2.9609286  
C   -8.2933210    0.3138856   -1.9220063  
C   -9.7349029    0.3307998   -1.7269295  
C  -10.2619267   -0.5834657   -2.7627621  
N   -9.3033563   -1.0909330   -3.4891288  
C  -11.6682361   -0.8429506   -2.9043511  
C  -12.5097640   -0.2178150   -2.0497353  
O  -13.8451966   -0.3672957   -2.0675347  
C  -12.0085188    0.7102829   -0.9935398  
O  -12.8316559    1.2447065   -0.2505342  
C  -10.5614886    0.9601112   -0.8685854  
H   -7.5549813    0.8574346   -1.3576617  
H  -12.0255351   -1.5155602   -3.6704090  
H  -14.1679162    0.2006337   -1.3447201  
H  -10.2387659    1.6389197   -0.0905756  
C    1.0672568    0.0000697    2.3021913  
C    0.0000000    0.0000000    1.4700000  
C   -1.1601224    0.0000736    2.3478473  
C   -0.5938729    0.0000769    3.7138435  
N    0.7113367    0.0001554    3.6934124  
C   -1.4286986    0.0001879    4.8835240  
C   -2.7683114    0.0006799    4.6970523  
O   -3.6653903    0.0008304    5.6976972  
C   -3.3702025    0.0010610    3.3310774  
O   -4.5974910    0.0013779    3.2362962  
C   -2.4926826    0.0008943    2.1470656  
H   -0.9878360   -0.0000190    5.8697035  
H   -4.5324246    0.0012261    5.2533954  
H   -2.9677772    0.0012974    1.1752040  
H    2.1134392    0.0000545    2.0405121  
