58

C    0.0000000    0.0000000    0.0000000  
C    1.0541693   -0.0001723   -0.8560387  
C    0.5103147   -0.0000456   -2.1935954  
C   -0.9576362    0.0002458   -2.0455734  
N   -1.2018452   -0.0001392   -0.6915973  
C   -1.8348299    0.0008314   -3.0810616  
C   -1.2972829    0.0009735   -4.4314608  
O   -2.0050649    0.0014262   -5.4301328  
C    0.2542648    0.0004182   -4.6117572  
O    0.7184698    0.0002254   -5.7439116  
C    1.0974567    0.0000872   -3.4189126  
H    2.0940757   -0.0005483   -0.5817976  
H    2.1707290   -0.0000912   -3.5523662  
H   -2.1128189    0.0014911   -0.2706799  
C   -3.2941061    0.0012872   -2.9038251  
C   -3.9928917    0.0012411   -1.7448266  
C   -5.3903257    0.0018076   -2.1493958  
C   -5.3503919    0.0022630   -3.6275667  
N   -4.1243019    0.0018800   -4.0755544  
C   -6.5485024    0.0028438   -4.4210506  
C   -7.7326777    0.0025751   -3.7675502  
O   -8.9284306    0.0030578   -4.3809146  
C   -7.8059009    0.0017434   -2.2766448  
O   -8.9180020    0.0016638   -1.7489580  
C   -6.5627953    0.0012025   -1.4850567  
H   -3.6076316    0.0007786   -0.7395153  
H   -6.4897352    0.0033745   -5.4996866  
H   -9.5790577    0.0026677   -3.6557686  
C   -4.4563375    2.0118945    1.8890203  
C   -4.8007868    1.6307289    0.6369631  
C   -5.9146733    0.7124934    0.8175185  
C   -6.1153715    0.6532927    2.2813488  
N   -5.2634838    1.4129955    2.9146960  
C   -7.1401200   -0.1595495    2.8765503  
C   -7.9287811   -0.8801810    2.0470694  
O   -8.9236683   -1.6811516    2.4650257  
C   -7.7513705   -0.8412778    0.5654578  
O   -8.5053665   -1.5230939   -0.1286878  
C   -6.6930516    0.0002336   -0.0208394  
H   -4.3542061    1.9351569   -0.2941463  
H   -7.2641617   -0.1839327    3.9493640  
H   -9.2999248   -2.0559979    1.6482796  
H   -3.6717095    2.6901331    2.1845277  
C    0.0000000    0.0000000    1.4700000  
C    1.0662921    0.0000102    2.3034270  
C    0.4961870   -0.0000064    3.6418889  
C   -0.9663858    0.0000850    3.4240247  
N   -1.2632773    0.0000084    2.1528658  
C   -1.8985362    0.0000517    4.5177257  
C   -1.3925775   -0.0004564    5.7720543  
O   -2.1456383   -0.0005410    6.8851312  
C    0.0786232   -0.0009323    6.0245000  
O    0.4683759   -0.0012588    7.1921102  
C    1.0143166   -0.0008442    4.8859032  
H    2.1107198   -0.0000632    2.0421868  
H   -2.9622183    0.0003270    4.3293377  
H   -1.5042274   -0.0009692    7.6184419  
H    2.0724152   -0.0013148    5.1109744  
