58

C    3.2798087    0.0005854   -1.4499645  
C    2.5571147    0.0005562   -2.5996549  
C    1.1637437    0.0001546   -2.2210357  
C    1.1336965   -0.0000200   -0.7459472  
N    2.4483515   -0.0001430   -0.3402720  
C    0.0000000    0.0000000    0.0000000  
C   -1.2757368   -0.0000187   -0.6964416  
O   -2.3524594   -0.0000640   -0.1142319  
C   -1.2676493   -0.0000873   -2.2584083  
O   -2.3355756   -0.0004101   -2.8557301  
C    0.0181562    0.0001759   -2.9516296  
H    0.0150796    0.0003316   -4.0331632  
H    4.3498548    0.0008608   -1.3200013  
H    2.7563625    0.0012821    0.6148066  
C    5.9816658   -2.0880614   -4.4453408  
C    5.0429440   -1.6267505   -3.5792758  
C    4.1873012   -0.7324976   -4.3229310  
C    4.7081987   -0.7105035   -5.7031380  
N    5.7962508   -1.5525088   -5.7108624  
C    4.1727811    0.0175973   -6.7155125  
C    3.0057190    0.8342492   -6.4264093  
O    2.4508367    1.5255865   -7.2704821  
C    2.4373473    0.8263672   -4.9715219  
O    1.4553092    1.5102017   -4.7161158  
C    3.1006060    0.0006259   -3.9654943  
H    4.9595396   -1.8834604   -2.5382391  
H    6.7934419   -2.7740415   -4.2655059  
H    6.3664583   -1.7493845   -6.5128298  
C    5.8030255   -3.1838226   -9.2825434  
C    5.2616554   -2.4776174   -8.2567423  
C    5.1706674   -1.1042052   -8.6929705  
C    5.7072256   -1.0679055  -10.0668610  
N    6.0735230   -2.3601806  -10.3647560  
C    5.7935847    0.0514771  -10.8292460  
C    5.3271371    1.3041476  -10.2584756  
O    5.3628806    2.3667148  -10.8650845  
C    4.7552870    1.2891138   -8.8050084  
O    4.3598445    2.3377208   -8.3137761  
C    4.7131615    0.0201854   -8.0825830  
H    4.9605997   -2.8735742   -7.3032236  
H    6.1903763    0.0563811  -11.8349506  
H    6.0273383   -4.2366276   -9.3388897  
H    6.4736480   -2.6593036  -11.2350845  
C    0.8175213    0.6860729    2.3021913  
C    0.0000000    0.0000000    1.4700000  
C   -0.8887526   -0.7456559    2.3478473  
C   -0.4549825   -0.3816753    3.7138435  
N    0.5448156    0.4573574    3.6934124  
C   -1.0945674   -0.9182058    4.8835240  
C   -2.1210866   -1.7789155    4.6970523  
O   -2.8083856   -2.3554314    5.6976972  
C   -2.5824069   -2.1655116    3.3310774  
O   -3.5227682   -2.9541547    3.2362962  
C   -1.9100805   -1.6015804    2.1470656  
H   -0.7567140   -0.6349833    5.8697035  
H   -3.4728268   -2.9124471    5.2533954  
H   -2.2742832   -1.9066565    1.1752040  
H    1.6189533    1.3585343    2.0405121  
