62

C    3.3041274    0.0001176   -1.5420427  
C    2.5845368   -0.0004777   -0.3695848  
C    1.2040006   -0.0000008   -0.7283587  
C    1.1422377    0.0006035   -2.1454373  
N    2.4348642    0.0026109   -2.6077463  
C   -0.0655180    0.0008795   -2.8497918  
C   -1.2321768    0.0002321   -2.1101401  
O   -2.4392812    0.0001141   -2.7472520  
C   -1.1911212   -0.0000008   -0.6955262  
O   -2.4371527   -0.0002321   -0.1032859  
C    0.0000000    0.0000000    0.0000000  
H    3.0031534   -0.0000658    0.6222587  
H   -0.1193545    0.0014840   -3.9297470  
H   -3.1132985   -0.0000653   -2.0551791  
H   -2.3200283   -0.0004073    0.8516408  
H    4.3686625    0.0004072   -1.7024288  
C    3.8594214   -0.7175076   -4.5601987  
C    2.8310669   -0.0116223   -4.0232750  
C    2.2094032    0.7153299   -5.1048990  
C    2.9652793    0.3726183   -6.3247306  
N    3.9521602   -0.4993328   -5.9264121  
C    2.6888649    0.8568052   -7.5620112  
C    1.5725237    1.7770481   -7.7015487  
O    1.2438412    2.2678069   -8.7736608  
C    0.7583127    2.1540909   -6.4229929  
O   -0.1835058    2.9281698   -6.5280650  
C    1.1517641    1.5673730   -5.1443962  
H    0.5827559    1.8333879   -4.2639477  
H    4.5574579   -1.3785738   -4.0727301  
H    4.6334395   -0.9149355   -6.5348364  
C    3.9459145   -0.7575573   -9.0432586  
C    4.6300775   -0.7214258  -10.2361892  
C    4.5647071    0.6212707  -10.7131515  
C    3.8218304    1.3654295   -9.7611606  
N    3.4596575    0.4975375   -8.7610551  
C    3.5586647    2.7308097   -9.9070008  
C    4.0547198    3.3564275  -11.0342584  
O    3.8273183    4.6885031  -11.2262921  
C    4.7978479    2.6309058  -11.9956097  
O    5.2229004    3.3955546  -13.0623742  
C    5.0576193    1.2838460  -11.8525185  
H    5.1155032   -1.5599404  -10.7054944  
H    2.9930062    3.3036254   -9.1851175  
H    4.2534777    4.9206054  -12.0616259  
H    5.7165033    2.8301806  -13.6642978  
H    5.6296121    0.7545878  -12.6056375  
H    3.7650989   -1.5796211   -8.3720836  
C    2.3971438    2.0127888    3.1728260  
C    1.9431056    1.6308205    1.9564670  
C    0.8496017    0.7127664    2.2356185  
C    0.7794028    0.6545384    3.7115134  
N    1.6840587    1.4146091    4.2663826  
C   -0.1885723   -0.1578550    4.3957118  
C   -1.0476298   -0.8789867    3.6398520  
O   -2.0015663   -1.6796266    4.1448486  
C   -1.0022026   -0.8410666    2.1483229  
O   -1.8147390   -1.5232959    1.5241687  
C    0.0000000    0.0000000    1.4700000  
H    2.3054237    1.9346118    0.9892483  
H   -0.2170646   -0.1815267    5.4753125  
H   -2.4487139   -2.0549881    3.3649027  
H    3.2048689    2.6911772    3.3971983  
