58

C    3.1301152   -0.0010311   -1.7028248  
C    2.5367767   -0.0002766   -0.4864663  
C    1.1089906    0.0001028   -0.7656180  
C    1.0177872   -0.0004148   -2.2415129  
N    2.1993581   -0.0011610   -2.7963816  
C   -0.2459210   -0.0002877   -2.9257117  
C   -1.3675316   -0.0000605   -2.1698524  
O   -2.6129307    0.0000866   -2.6748494  
C   -1.3083586    0.0000911   -0.6783233  
O   -2.3693263    0.0004206   -0.0541693  
C    0.0000000    0.0000000    0.0000000  
H    3.0096017   -0.0001007    0.4807526  
H   -3.1967436    0.0002093   -1.8949037  
C    4.5679462   -0.0016852   -2.0086697  
C    5.6049853   -0.0016930   -1.1391127  
C    6.7955423   -0.0024716   -1.9752190  
C    6.2781454   -0.0029781   -3.3604573  
N    4.9730343   -0.0024398   -3.3863775  
C    7.1539718   -0.0037578   -4.4997619  
C    8.4861205   -0.0036309   -4.2658482  
O    9.4181590   -0.0043052   -5.2340135  
C    9.0391359   -0.0027523   -2.8793659  
O   10.2622859   -0.0028089   -2.7410728  
C    8.1201341   -0.0020060   -1.7272550  
H    5.5667631   -0.0011377   -0.0631872  
H    6.7483991   -0.0043218   -5.5009712  
H   10.2688734   -0.0039788   -4.7592102  
H    8.5604259   -0.0012651   -0.7391394  
C   -0.2963280   -0.0005339   -4.3948472  
C    0.7407584   -0.0008424   -5.2643476  
C    0.1250922   -0.0009651   -6.5824732  
C   -1.3291498   -0.0008024   -6.3145845  
N   -1.5822781   -0.0004687   -5.0339934  
C   -2.2982555   -0.0008136   -7.3756789  
C   -1.8356058   -0.0005908   -8.6466195  
O   -2.6263915   -0.0005806   -9.7332194  
C   -0.3739267   -0.0003762   -8.9493645  
O   -0.0244410   -0.0003032  -10.1296528  
C    0.6002594   -0.0004128   -7.8435228  
H    1.7935301   -0.0008806   -5.0390746  
H   -3.3548522   -0.0008990   -7.1509277  
H   -2.0105034   -0.0003707  -10.4880931  
H    1.6500179   -0.0001373   -8.1047442  
C    0.0000000    0.0000000    1.4700000  
C    1.0541688    0.0001722    2.3260392  
C    0.5103138    0.0000454    3.6635956  
C   -0.9576371   -0.0002459    3.5155732  
N   -1.2018458    0.0001392    2.1615969  
C   -1.8348311   -0.0008317    4.5510609  
C   -1.2972847   -0.0009736    5.9014604  
O   -2.0050672   -0.0014265    6.9001319  
C    0.2542623   -0.0004184    6.0817573  
O    0.7184670   -0.0002256    7.2139121  
C    1.0974552   -0.0000873    4.8889129  
H    2.0940752    0.0005483    2.0517982  
H   -2.9081052   -0.0011668    4.4207061  
H    2.1707277    0.0000911    5.0223670  
H   -2.1128194   -0.0014912    1.7406791  
