58

C    3.2573672   -0.0002920   -1.5109380  
C    2.5379469   -0.0001709   -0.3591961  
C    1.1435040    0.0000331   -0.7338498  
C    1.1092607   -0.0000083   -2.2088474  
N    2.4227561    0.0001908   -2.6182610  
C   -0.0265531   -0.0002525   -2.9515662  
C   -1.3003047   -0.0002641   -2.2514977  
O   -2.3786789   -0.0004134   -2.8306425  
C   -1.2877729    0.0000311   -0.6895606  
O   -2.3539957    0.0003306   -0.0892034  
C    0.0000000    0.0000000    0.0000000  
H    2.9384086   -0.0000367    0.6389239  
H   -0.0296291   -0.0004087   -4.0327232  
H    2.7280494   -0.0013408   -3.5742114  
C    6.4550019   -0.0009257    1.4492357  
C    7.5628473   -0.0014712    0.6718960  
C    7.0625123   -0.0013727   -0.6941806  
C    5.5906518   -0.0008360   -0.5520172  
N    5.2286136   -0.0004914    0.7021430  
C    4.7161331   -0.0005435   -1.6923257  
C    5.2860928   -0.0003877   -2.9188983  
O    4.5914249   -0.0001201   -4.0693230  
C    6.7683529   -0.0005474   -3.0951524  
O    7.2177897   -0.0005153   -4.2411135  
C    7.6440949   -0.0008910   -1.9098252  
H    8.5924156   -0.0017984    0.9866399  
H    5.2697922   -0.0000403   -4.7685866  
H    6.3993983   -0.0008022    2.5262135  
C   10.9229857   -2.1094844    0.1115716  
C   11.9712618   -1.6447728   -0.6159141  
C   11.4294069   -0.7490830   -1.6103831  
C    9.9690544   -0.7299069   -1.4011144  
N    9.7268461   -1.5753865   -0.3431026  
C    9.0957829   -0.0008794   -2.1411282  
C    9.6298115    0.8194682   -3.2155483  
O    8.9250968    1.5118104   -3.9382791  
C   11.1732887    0.8142274   -3.4552495  
O   11.6344437    1.5007102   -4.3571022  
C   12.0128500   -0.0123966   -2.5917213  
H   13.0059917   -1.9004141   -0.4723977  
H   13.0805558   -0.0102901   -2.7641275  
H   10.9236181   -2.7973627    0.9414589  
H    8.8209272   -1.7723679    0.0410282  
C    0.0000000    0.0000000    1.4700000  
C    1.0662921    0.0000102    2.3034270  
C    0.4961870   -0.0000064    3.6418889  
C   -0.9663858    0.0000850    3.4240247  
N   -1.2632773    0.0000084    2.1528658  
C   -1.8985362    0.0000517    4.5177257  
C   -1.3925775   -0.0004564    5.7720543  
O   -2.1456383   -0.0005410    6.8851312  
C    0.0786232   -0.0009323    6.0245000  
O    0.4683759   -0.0012588    7.1921102  
C    1.0143166   -0.0008442    4.8859032  
H    2.1107198   -0.0000632    2.0421868  
H   -2.9622183    0.0003270    4.3293377  
H   -1.5042274   -0.0009692    7.6184419  
H    2.0724152   -0.0013148    5.1109744  
