58

C    0.0000000    0.0000000    0.0000000  
C    1.0541693   -0.0001721   -0.8560389  
C    0.5103150   -0.0000451   -2.1935956  
C   -0.9576363    0.0002465   -2.0455733  
N   -1.2018452   -0.0001388   -0.6915972  
C   -1.8348298    0.0008325   -3.0810614  
C   -1.2972830    0.0009746   -4.4314610  
O   -2.0050650    0.0014279   -5.4301326  
C    0.2542643    0.0004191   -4.6117573  
O    0.7184695    0.0002265   -5.7439121  
C    1.0974565    0.0000878   -3.4189126  
H    2.0940756   -0.0005485   -0.5817977  
H    2.1707293   -0.0000910   -3.5523662  
H   -2.1128192    0.0014916   -0.2706798  
C   -4.4922135    2.0924796   -0.2420904  
C   -3.4155262    1.6303232   -0.9285534  
C   -3.9166416    0.7353638   -1.9448045  
C   -5.3840553    0.7138765   -1.7930606  
N   -5.6687569    1.5568198   -0.7436415  
C   -6.2266201   -0.0146439   -2.5683329  
C   -5.6496868   -0.8323140   -3.6224197  
O   -6.3245416   -1.5240948   -4.3736268  
C   -4.0979603   -0.8249829   -3.8010133  
O   -3.6007571   -1.5096744   -4.6848946  
C   -3.2941061    0.0012884   -2.9038251  
H   -2.3875701    1.8869178   -0.7439486  
H   -4.5251467    2.7791523    0.5881422  
H   -6.5895628    1.7542209   -0.3969475  
C   -8.9503420    3.2619931   -1.6559256  
C  -10.1495699    2.6354962   -1.6253870  
C   -9.8513596    1.2405080   -1.9110067  
C   -8.3843402    1.2026219   -2.0926715  
N   -7.8506666    2.3846340   -1.9442504  
C   -7.6862945   -0.0167091   -2.3944163  
C   -8.4203822   -1.1468880   -2.5090690  
O   -7.9005618   -2.3545070   -2.7874279  
C   -9.9024117   -1.1411321   -2.3309833  
O  -10.5066175   -2.2069877   -2.4497631  
C  -10.5952860    0.1223458   -2.0219956  
H  -11.1170420    3.0667243   -1.4327334  
H   -8.6664836   -2.9563822   -2.8036498  
H  -11.6695229    0.0842723   -1.9003572  
H   -8.7430253    4.3076958   -1.4931401  
C    3.1301144    0.0010313    3.1728260  
C    2.5367765    0.0002768    1.9564670  
C    1.1089900   -0.0001027    2.2356185  
C    1.0177864    0.0004150    3.7115134  
N    2.1993570    0.0011613    4.2663826  
C   -0.2459220    0.0002880    4.3957118  
C   -1.3675327    0.0000606    3.6398520  
O   -2.6129319   -0.0000866    4.1448486  
C   -1.3083589   -0.0000910    2.1483229  
O   -2.3693264   -0.0004206    1.5241687  
C    0.0000000    0.0000000    1.4700000  
H    3.0096015    0.0001008    0.9892483  
H   -0.2829642    0.0004689    5.4753125  
H   -3.1967446   -0.0002093    3.3649027  
H    4.1849273    0.0015113    3.3971983  
