58

C    3.2798086    0.0005855   -1.4499648  
C    2.5571148    0.0005562   -2.5996554  
C    1.1637436    0.0001544   -2.2210360  
C    1.1336965   -0.0000202   -0.7459472  
N    2.4483515   -0.0001428   -0.3402719  
C    0.0000000    0.0000000    0.0000000  
C   -1.2757369   -0.0000188   -0.6964412  
O   -2.3524597   -0.0000640   -0.1142313  
C   -1.2676495   -0.0000876   -2.2584085  
O   -2.3355760   -0.0004105   -2.8557299  
C    0.0181562    0.0001755   -2.9516295  
H    2.9547356    0.0006072   -3.5989106  
H    4.3498552    0.0008611   -1.3200022  
H    2.7563629    0.0012824    0.6148064  
C    2.4107292   -2.0068248   -6.1315643  
C    1.9593060   -1.6260414   -4.9138613  
C    0.8629755   -0.7103792   -5.1897635  
C    0.7884490   -0.6520947   -6.6654437  
N    1.6932090   -1.4100734   -7.2229985  
C   -0.1832712    0.1582445   -7.3467636  
C   -1.0417747    0.8773565   -6.5883545  
O   -1.9989205    1.6759476   -7.0905155  
C   -0.9920203    0.8393226   -5.0969664  
O   -1.8042913    1.5196549   -4.4704009  
C    0.0139741    0.0003873   -4.4216238  
H    2.3250483   -1.9291665   -3.9477229  
H   -2.4446800    2.0502023   -6.3092441  
H    3.2193179   -2.6833843   -6.3583356  
C    0.3001187   -2.9819856  -10.4129865  
C    0.2078530   -2.2992797   -9.2427409  
C   -0.0473170   -0.9186539   -9.5797805  
C   -0.0965294   -0.8525122  -11.0528694  
N    0.1219019   -2.1361542  -11.4972130  
C   -0.3175826    0.2816013  -11.7646476  
C   -0.5203562    1.5197669  -11.0309144  
O   -0.7264612    2.5937696  -11.5807687  
C   -0.4721552    1.4731258   -9.4703675  
O   -0.6411674    2.5093007   -8.8418480  
C   -0.2262947    0.1905825   -8.8157778  
H    0.3073872   -2.7153307   -8.2560247  
H   -0.3499184    0.3083849  -12.8449931  
H    0.4835269   -4.0318161  -10.5745638  
H    0.1459252   -2.4158500  -12.4606648  
C    2.3971438    2.0127888    3.1728260  
C    1.9431056    1.6308205    1.9564670  
C    0.8496017    0.7127664    2.2356185  
C    0.7794028    0.6545384    3.7115134  
N    1.6840587    1.4146091    4.2663826  
C   -0.1885723   -0.1578550    4.3957118  
C   -1.0476298   -0.8789867    3.6398520  
O   -2.0015663   -1.6796266    4.1448486  
C   -1.0022026   -0.8410666    2.1483229  
O   -1.8147390   -1.5232959    1.5241687  
C    0.0000000    0.0000000    1.4700000  
H    2.3054237    1.9346118    0.9892483  
H   -0.2170646   -0.1815267    5.4753125  
H   -2.4487139   -2.0549881    3.3649027  
H    3.2048689    2.6911772    3.3971983  
