60

C    0.0000000    0.0000000    0.0000000  
C   -0.0954212    1.0478318   -0.8862338  
C   -0.0439575    0.4897547   -2.1979128  
C    0.0840422   -0.9148902   -2.0478684  
N    0.1095851   -1.1782325   -0.7007915  
C    0.1637956   -1.7876817   -3.1372091  
C    0.1131103   -1.2324027   -4.4010425  
O    0.1864575   -2.0389133   -5.4997580  
C   -0.0140154    0.1667763   -4.5711963  
O   -0.0500324    0.5651467   -5.8915549  
C   -0.0924763    1.0284308   -3.4969887  
H   -0.1893319    2.0867367   -0.6200559  
H    0.1825267   -2.0910509   -0.2891831  
H    0.2615806   -2.8591528   -3.0295516  
H    0.1337254   -1.4573649   -6.2693595  
H   -0.1370928    1.5229175   -5.9180040  
C    0.4159767    3.4592589   -2.9764944  
C    0.0861473    4.6978015   -3.4251590  
C   -0.8277620    4.5164228   -4.5282034  
C   -1.0046224    3.0602454   -4.6865015  
N   -0.2237527    2.4760857   -3.7159916  
C   -1.7954288    2.4791656   -5.6238784  
C   -2.5206131    3.3457783   -6.5380040  
O   -3.2580922    2.9188870   -7.4167471  
C   -2.3480183    4.8910078   -6.3887338  
O   -2.9533015    5.6306301   -7.1528366  
C   -1.4677133    5.3987764   -5.3394075  
H   -1.9113489    1.4088110   -5.7229394  
H   -1.3538033    6.4699307   -5.2425720  
H    1.0727343    3.1820289   -2.1679755  
C    1.8386135    6.2368959   -2.4659639  
C    0.5732976    5.9745285   -2.8833532  
C   -0.1923094    7.1837144   -2.6921710  
C    0.7373632    8.1791960   -2.1251476  
N    1.9516996    7.5423568   -2.0123976  
C    0.3969771    9.4525273   -1.8019300  
C   -0.9767464    9.8703750   -2.0273670  
O   -1.3814781   10.9962606   -1.7687660  
C   -1.9784313    8.8325202   -2.6267765  
O   -3.1376984    9.1727437   -2.8207029  
C   -1.4937374    7.4894192   -2.9350020  
H    1.0943675   10.1670420   -1.3871709  
H   -2.1935599    6.7768234   -3.3499476  
H    2.6979411    5.5863328   -2.4513527  
H    2.7913137    7.9619618   -1.6573941  
C    3.3321173   -0.0004715    2.8079335  
C    2.6974184   -0.0000116    4.0032312  
C    1.2800439    0.0002118    3.6752840  
C    1.2395035   -0.0000644    2.1971295  
N    2.4394063   -0.0005460    1.6831036  
C    0.0000000    0.0000000    1.4700000  
C   -1.1468701   -0.0000635    2.1869543  
O   -2.3742202   -0.0000073    1.6395491  
C   -1.1388768   -0.0001607    3.6796354  
O   -2.2206231   -0.0000905    4.2670412  
C    0.1454524   -0.0001816    4.4024240  
H    3.1367986    0.0000651    4.9860947  
H   -2.9844344   -0.0001026    2.3990168  
H    0.1083576   -0.0003682    5.4835595  
H    4.3940039   -0.0007619    2.6198634  
