58

C    2.5092678   -2.0880362   -5.9399679  
C    1.9605221   -1.6268626   -4.7865937  
C    0.8894596   -0.7326236   -5.1580731  
C    0.8589576   -0.7104878   -6.6329864  
N    1.8659273   -1.5524063   -7.0453877  
C   -0.0149620    0.0176441   -7.3731170  
C   -0.9904836    0.8341826   -6.6701528  
O   -1.8197969    1.5255374   -7.2468411  
C   -0.9762341    0.8261497   -5.1082510  
O   -1.7925785    1.5098879   -4.5054704  
C    0.0139742    0.0003880   -4.4216237  
H    2.2707715   -1.8836544   -3.7893890  
H   -0.0204987    0.0196525   -8.4542617  
H    3.3296625   -2.7739650   -6.0754075  
C    3.2798084    0.0005856   -1.4499648  
C    2.5571145    0.0005566   -2.5996552  
C    1.1637436    0.0001549   -2.2210359  
C    1.1336965   -0.0000199   -0.7459471  
N    2.4483512   -0.0001427   -0.3402717  
C    0.0000000    0.0000000    0.0000000  
C   -1.2757368   -0.0000186   -0.6964415  
O   -2.3524598   -0.0000639   -0.1142315  
C   -1.2676495   -0.0000872   -2.2584081  
O   -2.3355762   -0.0004101   -2.8557296  
C    0.0181563    0.0001760   -2.9516296  
H    2.9547356    0.0006075   -3.5989103  
H    4.3498548    0.0008613   -1.3200014  
H    2.7563626    0.0012824    0.6148063  
C    2.2037027   -1.8406473   -8.4467171  
C    3.1755495   -2.6554584   -8.9191329  
C    3.0658885   -2.5696254  -10.3672721  
C    1.9454085   -1.6335110  -10.6013621  
N    1.4360962   -1.2028334   -9.4792622  
C    1.5145599   -1.2785032  -11.9255313  
C    2.1733824   -1.8331483  -12.9684390  
O    1.8780831   -1.5913041  -14.2569851  
C    3.3083697   -2.7810194  -12.7647108  
O    3.8621061   -3.2478112  -13.7600510  
C    3.7314595   -3.1294300  -11.3966716  
H    3.8799171   -3.2422039   -8.3546226  
H    0.6926567   -0.5919864  -12.0672331  
H    2.5162638   -2.1265938  -14.7622997  
H    4.5578308   -3.8195790  -11.2916263  
C    0.0000000    0.0000000    1.4700000  
C    1.0662921    0.0000102    2.3034270  
C    0.4961870   -0.0000064    3.6418889  
C   -0.9663858    0.0000850    3.4240247  
N   -1.2632773    0.0000084    2.1528658  
C   -1.8985362    0.0000517    4.5177257  
C   -1.3925775   -0.0004564    5.7720543  
O   -2.1456383   -0.0005410    6.8851312  
C    0.0786232   -0.0009323    6.0245000  
O    0.4683759   -0.0012588    7.1921102  
C    1.0143166   -0.0008442    4.8859032  
H    2.1107198   -0.0000632    2.0421868  
H   -2.9622183    0.0003270    4.3293377  
H   -1.5042274   -0.0009692    7.6184419  
H    2.0724152   -0.0013148    5.1109744  
