58

C    0.0000000    0.0000000    0.0000000  
C    1.0541696   -0.0001722   -0.8560389  
C    0.5103148   -0.0000455   -2.1935956  
C   -0.9576363    0.0002459   -2.0455734  
N   -1.2018453   -0.0001391   -0.6915972  
C   -1.8348301    0.0008316   -3.0810614  
C   -1.2972834    0.0009736   -4.4314607  
O   -2.0050657    0.0014265   -5.4301322  
C    0.2542633    0.0004184   -4.6117575  
O    0.7184687    0.0002257   -5.7439120  
C    1.0974567    0.0000873   -3.4189128  
H    2.0940760   -0.0005483   -0.5817983  
H    2.1707283   -0.0000911   -3.5523665  
H   -2.1128191    0.0014912   -0.2706800  
C   -3.2941063    0.0012872   -2.9038249  
C   -3.9928916    0.0012412   -1.7448261  
C   -5.3903264    0.0018076   -2.1493951  
C   -5.3503921    0.0022631   -3.6275657  
N   -4.1243027    0.0018801   -4.0755540  
C   -6.5485029    0.0028439   -4.4210497  
C   -7.7326786    0.0025753   -3.7675488  
O   -8.9284315    0.0030579   -4.3809134  
C   -7.8059015    0.0017435   -2.2766437  
O   -8.9180020    0.0016639   -1.7489566  
C   -6.5627954    0.0012025   -1.4850558  
H   -3.6076315    0.0007785   -0.7395145  
H   -9.5790584    0.0026678   -3.6557672  
H   -6.6586511    0.0004895   -0.4075398  
C   -3.8468912   -2.1375863   -7.0870114  
C   -4.2676064   -1.7293122   -8.3068021  
C   -5.3696624   -0.8184345   -8.0379629  
C   -5.4809061   -0.7928865   -6.5636641  
N   -4.5908218   -1.5641706   -6.0007617  
C   -6.4685325    0.0035662   -5.8888729  
C   -7.3066661    0.7412737   -6.6521909  
O   -8.2752138    1.5300078   -6.1563544  
C   -7.2192855    0.7369428   -8.1423268  
O   -8.0147434    1.4326172   -8.7736003  
C   -6.1976386   -0.0883630   -8.8109321  
H   -3.8781286   -2.0113594   -9.2700424  
H   -8.7005557    1.9227520   -6.9399287  
H   -6.1670752   -0.0638412   -9.8919941  
H   -3.0447577   -2.8201279   -6.8552959  
C    3.1301144    0.0010313    3.1728260  
C    2.5367765    0.0002768    1.9564670  
C    1.1089900   -0.0001027    2.2356185  
C    1.0177864    0.0004150    3.7115134  
N    2.1993570    0.0011613    4.2663826  
C   -0.2459220    0.0002880    4.3957118  
C   -1.3675327    0.0000606    3.6398520  
O   -2.6129319   -0.0000866    4.1448486  
C   -1.3083589   -0.0000910    2.1483229  
O   -2.3693264   -0.0004206    1.5241687  
C    0.0000000    0.0000000    1.4700000  
H    3.0096015    0.0001008    0.9892483  
H   -0.2829642    0.0004689    5.4753125  
H   -3.1967446   -0.0002093    3.3649027  
H    4.1849273    0.0015113    3.3971983  
