58

C    3.2573678   -0.0002919   -1.5109373  
C    2.5379468   -0.0001706   -0.3591954  
C    1.1435045    0.0000332   -0.7338494  
C    1.1092616   -0.0000083   -2.2088474  
N    2.4227573    0.0001909   -2.6182603  
C   -0.0265521   -0.0002524   -2.9515662  
C   -1.3003027   -0.0002640   -2.2514981  
O   -2.3786774   -0.0004131   -2.8306438  
C   -1.2877723    0.0000312   -0.6895612  
O   -2.3539951    0.0003306   -0.0892047  
C    0.0000000    0.0000000    0.0000000  
H    2.9384090   -0.0000365    0.6389246  
H   -0.0296275   -0.0004088   -4.0327232  
H    4.3270401   -0.0004765   -1.6439427  
C    3.9018586   -0.6890598   -4.5615347  
C    2.8699655   -0.0020526   -4.0185813  
C    2.2904561    0.7418983   -5.1263747  
C    3.1192068    0.3760112   -6.2950844  
N    4.0653378   -0.4625798   -5.9701355  
C    2.8658217    0.9104935   -7.6047448  
C    1.8312933    1.7710660   -7.7407617  
O    1.4810339    2.3457724   -8.9039780  
C    0.9763066    2.1595573   -6.5804890  
O    0.0517412    2.9479590   -6.7775250  
C    1.2565191    1.5977096   -5.2471726  
H    0.7129611    2.9031933   -8.6837540  
H    0.6139389    1.9041193   -4.4326584  
H    4.5856444   -1.3607925   -4.0673834  
C    3.7120263    0.5232212   -8.7426628  
C    4.7762170   -0.3198776   -8.7702102  
C    5.2514073   -0.3536163  -10.1332545  
C    4.3705274    0.5454047  -10.9030617  
N    3.4584785    1.0448519  -10.0021683  
C    4.4913939    0.7868394  -12.2330262  
C    5.5602679    0.1163355  -12.9544601  
O    5.7517058    0.2681411  -14.1538799  
C    6.5048863   -0.8403536  -12.1593207  
O    7.4081614   -1.4106602  -12.7560673  
C    6.2751600   -1.0202225  -10.7279839  
H    5.1819047   -0.8570056   -7.9314462  
H    3.8346851    1.4500711  -12.7787067  
H    6.9337481   -1.6841499  -10.1846731  
H    2.7232916    1.6905635  -10.2248875  
C    0.0000000    0.0000000    1.4700000  
C    1.0662921    0.0000102    2.3034270  
C    0.4961870   -0.0000064    3.6418889  
C   -0.9663858    0.0000850    3.4240247  
N   -1.2632773    0.0000084    2.1528658  
C   -1.8985362    0.0000517    4.5177257  
C   -1.3925775   -0.0004564    5.7720543  
O   -2.1456383   -0.0005410    6.8851312  
C    0.0786232   -0.0009323    6.0245000  
O    0.4683759   -0.0012588    7.1921102  
C    1.0143166   -0.0008442    4.8859032  
H    2.1107198   -0.0000632    2.0421868  
H   -2.9622183    0.0003270    4.3293377  
H   -1.5042274   -0.0009692    7.6184419  
H    2.0724152   -0.0013148    5.1109744  
