62

C    3.3041272    0.0001177   -1.5420431  
C    2.5845370   -0.0004780   -0.3695856  
C    1.2040004   -0.0000008   -0.7283590  
C    1.1422372    0.0006037   -2.1454372  
N    2.4348639    0.0026111   -2.6077465  
C   -0.0655183    0.0008798   -2.8497916  
C   -1.2321770    0.0002324   -2.1101397  
O   -2.4392813    0.0001147   -2.7472520  
C   -1.1911211   -0.0000007   -0.6955262  
O   -2.4371526   -0.0002320   -0.1032861  
C    0.0000000    0.0000000    0.0000000  
H    3.0031535   -0.0000661    0.6222581  
H    2.7054628   -0.0071098   -3.5745262  
H   -3.1132988   -0.0000650   -2.0551783  
H   -2.3200283   -0.0004072    0.8516412  
C    2.2805262   -2.0884670   -5.9525544  
C    1.7869811   -1.6272475   -4.7745201  
C    0.7005262   -0.7318379   -5.0949770  
C    0.6008354   -0.7090651   -6.5668239  
N    1.5865172   -1.5517701   -7.0263553  
C   -0.3061621    0.0202022   -7.2648421  
C   -1.2468139    0.8373777   -6.5165544  
O   -2.1016170    1.5297581   -7.0534179  
C   -1.1592601    0.8286874   -4.9570470  
O   -1.9457427    1.5129527   -4.3163541  
C   -0.1387085    0.0017018   -4.3179686  
H    2.1434562   -1.8847455   -3.7930754  
H   -0.3624480    0.0226613   -8.3445348  
H    3.0929927   -2.7751194   -6.1266122  
H    1.7717477   -1.7483671   -7.9928368  
C    6.9078749   -0.0046647    1.0804404  
C    5.6166942   -0.0033644    0.6749415  
C    5.6800157   -0.0008097   -0.7784972  
C    7.1258518   -0.0007965   -1.0885652  
N    7.8505614   -0.0031316   -0.0028488  
C    7.6141446    0.0013733   -2.4401020  
C    6.6996203    0.0030473   -3.4365845  
O    7.0134391    0.0051621   -4.7433187  
C    5.2335527    0.0027108   -3.1558602  
O    4.4582991    0.0044332   -4.1119978  
C    4.7577221    0.0005130   -1.7610465  
H    4.7307120   -0.0041440    1.2865875  
H    8.6761778    0.0015371   -2.6375719  
H    6.1552194    0.0059339   -5.2044176  
H    7.2868915   -0.0066359    2.0900525  
C    0.0000000    0.0000000    1.4700000  
C    1.0521667    0.0011902    2.3562342  
C    0.4917218    0.0011957    3.6679131  
C   -0.9187428   -0.0003148    3.5178682  
N   -1.1833171    0.0009411    2.1707914  
C   -1.7951701   -0.0010350    4.6072090  
C   -1.2375837   -0.0005224    5.8710424  
O   -2.0474215   -0.0015360    6.9697579  
C    0.1673580    0.0013566    6.0411963  
O    0.5673524    0.0020687    7.3615553  
C    1.0325770    0.0023412    4.9669890  
H    2.0953057    0.0030649    2.0900562  
H   -2.0989778   -0.0102372    1.7591824  
H   -2.8710934   -0.0020419    4.4995513  
H   -1.4634884   -0.0006497    7.7393593  
H    1.5290710    0.0033153    7.3880045  
H    2.1042148    0.0039609    5.1284455  
