58

C    2.0485059   -2.1404842   -4.9352596  
C    2.0920574   -1.7327542   -6.2250031  
C    0.9665703   -0.8221932   -6.3687264  
C    0.3351123   -0.7962139   -5.0318753  
N    0.9649966   -1.5669927   -4.1874018  
C   -0.8287665    0.0000939   -4.7555305  
C   -1.3384137    0.7372506   -5.7685425  
O   -2.4204375    1.5257896   -5.6524721  
C   -0.7235768    0.7324749   -7.1287312  
O   -1.2406169    1.4276566   -8.0031527  
C    0.4698623   -0.0926716   -7.3871122  
H    2.8005017   -2.0149675   -6.9849624  
H   -2.5373014    1.9181277   -6.5365348  
H    0.8852525   -0.0684849   -8.3856594  
C    5.5281435   -4.2903930   -6.4377594  
C    5.9344631   -4.9750428   -5.3433473  
C    4.9896557   -4.6086211   -4.2995208  
C    4.0550450   -3.6692500   -4.9557757  
N    4.3656259   -3.4788953   -6.2092889  
C    2.9566835   -3.0703663   -4.2486503  
C    2.7989290   -3.3954473   -2.9452816  
O    1.8179629   -2.9116202   -2.1644759  
C    3.7252488   -4.3406469   -2.2548542  
O    3.5216441   -4.5909729   -1.0669560  
C    4.8444312   -4.9417737   -3.0018503  
H    6.7718479   -5.6459437   -5.2552985  
H    1.9675213   -3.3237448   -1.2944536  
H    5.4928281   -5.6216578   -2.4655954  
H    5.9679306   -4.2906194   -7.4224229  
C    1.0672569   -0.0000698   -0.8321910  
C    0.0000000    0.0000000    0.0000000  
C   -1.1601223   -0.0000736   -0.8778472  
C   -0.5938729   -0.0000768   -2.2438435  
N    0.7113367   -0.0001553   -2.2234123  
C   -1.4286985   -0.0001877   -3.4135239  
C   -2.7683113   -0.0006798   -3.2270524  
O   -3.6653902   -0.0008302   -4.2276970  
C   -3.3702024   -0.0010610   -1.8610774  
O   -4.5974910   -0.0013779   -1.7662963  
C   -2.4926825   -0.0008943   -0.6770658  
H   -4.5324245   -0.0012258   -3.7833954  
H   -2.9677772   -0.0012974    0.2947961  
H    2.1134391   -0.0000547   -0.5705119  
C    2.5528530    2.1414826    2.8079335  
C    2.0663498    1.7338582    4.0032312  
C    0.9804344    0.8229586    3.6752840  
C    0.9495562    0.7966882    2.1971295  
N    1.8690446    1.5676019    1.6831036  
C    0.0000000    0.0000000    1.4700000  
C   -0.8785127   -0.7372425    2.1869543  
O   -1.8187535   -1.5261249    1.6395491  
C   -0.8723269   -0.7321790    3.6796354  
O   -1.7010379   -1.4274584    4.2670412  
C    0.1115397    0.0933559    4.4024240  
H    2.4028853    2.0163452    4.9860947  
H   -2.2861435   -1.9184361    2.3990168  
H    0.0832434    0.0693689    5.4835595  
H    3.3664920    2.8238276    2.6198634  
