58

C   -0.0876898    1.1285238   -0.8009271  
C   -0.0641275    0.7944145   -2.1169400  
C    0.0455434   -0.6437352   -2.1842669  
C    0.0841914   -1.1235345   -0.7896021  
N    0.0000000    0.0000000    0.0000000  
C    0.1838590   -2.4276616   -0.4276284  
C    0.2582412   -3.4252920   -1.4820176  
O    0.3498555   -4.6252495   -1.2583906  
C    0.2192718   -2.9397348   -2.9661065  
O    0.2814909   -3.7704509   -3.8623764  
C    0.1097089   -1.5074053   -3.2312120  
H   -0.1173030    1.4774806   -2.9459194  
H    0.2104784   -2.7584381    0.6013455  
H   -0.1615206    2.1042418   -0.3488061  
C    1.8610129    1.8882755   -5.5261472  
C    1.5436887    1.0584393   -4.5052373  
C    0.7025118    0.0329750   -5.1030196  
C    0.6134080    0.4093059   -6.5302612  
N    1.2905765    1.4960014   -6.7842800  
C   -0.1416697   -0.3658781   -7.4757950  
C   -0.7784559   -1.4671784   -7.0164746  
O   -1.5184534   -2.2824534   -7.7870404  
C   -0.7073808   -1.8733603   -5.5818577  
O   -1.3120618   -2.8875074   -5.2338819  
C    0.0736047   -1.0616520   -4.6315338  
H    1.8434929    1.1329368   -3.4739064  
H   -0.1896760   -0.0674125   -8.5128694  
H   -1.8404198   -2.9728949   -7.1797667  
C    3.3205295    3.6403837   -4.4130205  
C    2.6939122    3.0987908   -5.4833512  
C    3.0228251    3.9778017   -6.5949518  
C    3.8790590    5.0264485   -6.0001511  
N    4.0571570    4.8338887   -4.7214050  
C    4.4206108    6.1019696   -6.7844094  
C    4.1207474    6.1284663   -8.1030122  
O    4.5575124    7.0731482   -8.9532202  
C    3.2596594    5.0844226   -8.7328237  
O    3.0279231    5.1714008   -9.9386235  
C    2.7161446    3.9913836   -7.9071233  
H    5.0432554    6.8548387   -6.3235282  
H    4.1801370    6.8237667   -9.8160925  
H    2.0967984    3.2548045   -8.4011802  
H    3.3242310    3.2840795   -3.3951762  
C    2.5528530    2.1414826    2.8079335  
C    2.0663498    1.7338582    4.0032312  
C    0.9804344    0.8229586    3.6752840  
C    0.9495562    0.7966882    2.1971295  
N    1.8690446    1.5676019    1.6831036  
C    0.0000000    0.0000000    1.4700000  
C   -0.8785127   -0.7372425    2.1869543  
O   -1.8187535   -1.5261249    1.6395491  
C   -0.8723269   -0.7321790    3.6796354  
O   -1.7010379   -1.4274584    4.2670412  
C    0.1115397    0.0933559    4.4024240  
H    2.4028853    2.0163452    4.9860947  
H   -2.2861435   -1.9184361    2.3990168  
H    0.0832434    0.0693689    5.4835595  
H    3.3664920    2.8238276    2.6198634  
