58

C    1.9999911   -2.1070887   -5.1447770  
C    1.9105656   -1.6426492   -6.4177162  
C    0.7784242   -0.7475269   -6.4606981  
C    0.2115573   -0.7283874   -5.0986829  
N    0.9973776   -1.5733442   -4.3494007  
C   -0.8712836    0.0001712   -4.7267108  
C   -1.5219810    0.8200166   -5.7351660  
O   -2.5037654    1.5119157   -5.4992064  
C   -0.9387713    0.8148046   -7.1841812  
O   -1.4783605    1.5008670   -8.0417491  
C    0.2330287   -0.0112899   -7.4640109  
H    0.6307979   -0.0091667   -8.4697437  
H    2.7138538   -2.7945379   -4.7208629  
H    0.8643837   -1.7702168   -3.3744132  
C    1.0965511    0.0001359   -0.8010309  
C    0.0000000    0.0000000    0.0000000  
C   -1.1546566    0.0001470   -0.8669509  
C   -0.6372021    0.0003521   -2.2486277  
N    0.7342865    0.0007338   -2.1395011  
C   -1.4147747    0.0001354   -3.3608713  
C   -2.8576055   -0.0001049   -3.1854454  
O   -3.6427790   -0.0002491   -4.1244894  
C   -3.4275846   -0.0000728   -1.7311654  
O   -4.6406834    0.0000330   -1.5710050  
C   -2.4891869   -0.0001093   -0.6116739  
H   -2.8919121   -0.0002921    0.3920870  
H    2.1388271    0.0000663   -0.5261654  
H    1.3735864   -0.0006096   -2.9130262  
C    3.6757588   -5.4746238   -7.5074692  
C    4.3890032   -5.1557674   -8.6125446  
C    4.1638534   -3.7315927   -8.8062799  
C    3.2664567   -3.3419077   -7.6974919  
N    2.9769561   -4.3594582   -6.9327897  
C    2.8024904   -1.9918329   -7.5328134  
C    3.2165239   -1.0727493   -8.4345870  
O    2.8618346    0.2230915   -8.4024436  
C    4.1224338   -1.4348934   -9.5643383  
O    4.4589517   -0.5469229  -10.3475916  
C    4.5845541   -2.8265244   -9.7117589  
H    4.9933528   -5.8066058   -9.2210233  
H    3.3115285    0.6223306   -9.1689522  
H    5.2400028   -3.0480643  -10.5433463  
H    3.5813494   -6.4385433   -7.0332125  
C    2.5528530    2.1414826    2.8079335  
C    2.0663498    1.7338582    4.0032312  
C    0.9804344    0.8229586    3.6752840  
C    0.9495562    0.7966882    2.1971295  
N    1.8690446    1.5676019    1.6831036  
C    0.0000000    0.0000000    1.4700000  
C   -0.8785127   -0.7372425    2.1869543  
O   -1.8187535   -1.5261249    1.6395491  
C   -0.8723269   -0.7321790    3.6796354  
O   -1.7010379   -1.4274584    4.2670412  
C    0.1115397    0.0933559    4.4024240  
H    2.4028853    2.0163452    4.9860947  
H   -2.2861435   -1.9184361    2.3990168  
H    0.0832434    0.0693689    5.4835595  
H    3.3664920    2.8238276    2.6198634  
