58

C   -3.2798051    0.0046593   -1.4499655  
C   -2.5571117    0.0035327   -2.5996560  
C   -1.1637420    0.0017062   -2.2210366  
C   -1.1336950    0.0018329   -0.7459477  
N   -2.4483481    0.0040582   -0.3402729  
C    0.0000000    0.0000000    0.0000000  
C    1.2757358   -0.0020215   -0.6964420  
O    2.3524565   -0.0036980   -0.1142317  
C    1.2676481   -0.0019399   -2.2584083  
O    2.3355743   -0.0033249   -2.8557300  
C   -0.0181560   -0.0001469   -2.9516300  
H   -2.9547322    0.0041175   -3.5989115  
H   -0.0150792   -0.0003078   -4.0331632  
H   -2.7563612    0.0031256    0.6148057  
C   -6.8068753    0.0108072   -4.1747006  
C   -5.5278522    0.0093818   -3.7323460  
C   -5.6328214    0.0087860   -2.2813184  
C   -7.0869524    0.0101480   -2.0128329  
N   -7.7802339    0.0112555   -3.1188844  
C   -7.6137962    0.0099941   -0.6758507  
C   -6.7282205    0.0081564    0.3464440  
O   -7.0793775    0.0078013    1.6436444  
C   -5.2547075    0.0063774    0.1078698  
O   -4.5071884    0.0048745    1.0858440  
C   -4.7390803    0.0066173   -1.2727289  
H   -4.6246975    0.0087155   -4.3183382  
H   -8.6810548    0.0112162   -0.5089125  
H   -6.2347329    0.0063344    2.1291612  
C   -6.5065332    0.0118279   -6.6786570  
C   -7.2838462    0.0119168   -5.5651675  
C   -8.6573299    0.0135914   -6.0105608  
C   -8.6161838    0.0144479   -7.4853816  
N   -7.2834901    0.0137101   -7.8271662  
C   -9.7125761    0.0156590   -8.2851489  
C  -11.0204234    0.0163777   -7.6510587  
O  -12.0678066    0.0175358   -8.2845320  
C  -11.0876936    0.0157433   -6.0905203  
O  -12.1831909    0.0166458   -5.5454108  
C   -9.8368264    0.0141520   -5.3360802  
H   -9.6604212    0.0161411   -9.3650514  
H   -9.8920726    0.0135162   -4.2559542  
H   -5.4314636    0.0107625   -6.7568501  
H   -6.9297662    0.0124668   -8.7662750  
C    2.5528530    2.1414826    2.8079335  
C    2.0663498    1.7338582    4.0032312  
C    0.9804344    0.8229586    3.6752840  
C    0.9495562    0.7966882    2.1971295  
N    1.8690446    1.5676019    1.6831036  
C    0.0000000    0.0000000    1.4700000  
C   -0.8785127   -0.7372425    2.1869543  
O   -1.8187535   -1.5261249    1.6395491  
C   -0.8723269   -0.7321790    3.6796354  
O   -1.7010379   -1.4274584    4.2670412  
C    0.1115397    0.0933559    4.4024240  
H    2.4028853    2.0163452    4.9860947  
H   -2.2861435   -1.9184361    2.3990168  
H    0.0832434    0.0693689    5.4835595  
H    3.3664920    2.8238276    2.6198634  
