58

C    1.0965517    0.0001357   -0.8010303  
C    0.0000000    0.0000000    0.0000000  
C   -1.1546559    0.0001468   -0.8669513  
C   -0.6372014    0.0003518   -2.2486279  
N    0.7342875    0.0007336   -2.1395010  
C   -1.4147734    0.0001352   -3.3608717  
C   -2.8576047   -0.0001048   -3.1854460  
O   -3.6427777   -0.0002494   -4.1244909  
C   -3.4275841   -0.0000724   -1.7311669  
O   -4.6406823    0.0000332   -1.5710061  
C   -2.4891866   -0.0001090   -0.6116746  
H   -1.0150442    0.0001614   -4.3654247  
H   -2.8919121   -0.0002917    0.3920862  
H    2.1388273    0.0000661   -0.5261641  
C    4.5566859   -2.0943516   -2.8440014  
C    3.3981929   -1.6309283   -2.3080836  
C    2.8135377   -0.7361952   -3.2788908  
C    3.7329572   -0.7162214   -4.4326065  
N    4.7695091   -1.5597360   -4.1056005  
C    3.5352823    0.0116643   -5.5607961  
C    2.3371289    0.8302000   -5.6442437  
O    2.0692130    1.5215077   -6.6182129  
C    1.3496283    0.8244739   -4.4340310  
O    0.3376980    1.5099051   -4.4926968  
C    1.6707647   -0.0012347   -3.2725970  
H    2.9988748   -1.8865416   -1.3427751  
H    4.2221499    0.0120713   -6.3957353  
H    5.2729796   -2.7812829   -2.4233609  
C    6.8533402   -5.3163839   -4.8354912  
C    7.8156564   -4.9429837   -5.7107618  
C    7.6100696   -3.5163510   -5.9081261  
C    6.4502697   -3.1850799   -5.0527272  
N    6.0024474   -4.2362348   -4.4214436  
C    5.9245662   -1.8503893   -4.9671474  
C    6.5302215   -0.8902067   -5.7023789  
O    6.1452945    0.3972725   -5.7187880  
C    7.7028663   -1.1930060   -6.5749491  
O    8.2042462   -0.2698064   -7.2164645  
C    8.2234791   -2.5699156   -6.6457022  
H    8.5717047   -5.5594967   -6.1661519  
H    6.7645967    0.8334289   -6.3314753  
H    9.0744680   -2.7480042   -7.2893907  
H    6.6666078   -6.2994170   -4.4333095  
C    2.5528530    2.1414826    2.8079335  
C    2.0663498    1.7338582    4.0032312  
C    0.9804344    0.8229586    3.6752840  
C    0.9495562    0.7966882    2.1971295  
N    1.8690446    1.5676019    1.6831036  
C    0.0000000    0.0000000    1.4700000  
C   -0.8785127   -0.7372425    2.1869543  
O   -1.8187535   -1.5261249    1.6395491  
C   -0.8723269   -0.7321790    3.6796354  
O   -1.7010379   -1.4274584    4.2670412  
C    0.1115397    0.0933559    4.4024240  
H    2.4028853    2.0163452    4.9860947  
H   -2.2861435   -1.9184361    2.3990168  
H    0.0832434    0.0693689    5.4835595  
H    3.3664920    2.8238276    2.6198634  
