60

C    3.3041275    0.0001181   -1.5420431  
C    2.5845370   -0.0004778   -0.3695856  
C    1.2040006   -0.0000007   -0.7283585  
C    1.1422375    0.0006038   -2.1454369  
N    2.4348641    0.0026112   -2.6077464  
C   -0.0655181    0.0008798   -2.8497918  
C   -1.2321766    0.0002325   -2.1101401  
O   -2.4392816    0.0001145   -2.7472520  
C   -1.1911210   -0.0000006   -0.6955259  
O   -2.4371524   -0.0002321   -0.1032861  
C    0.0000000    0.0000000    0.0000000  
H    3.0031534   -0.0000657    0.6222583  
H    2.7054630   -0.0071096   -3.5745259  
H   -3.1132987   -0.0000651   -2.0551784  
H   -2.3200282   -0.0004071    0.8516411  
H    4.3686621    0.0004075   -1.7024291  
C    0.6887310   -0.7238758   -5.1615446  
C    0.3681064   -0.5064781   -6.4630873  
C   -0.7390721    0.4202659   -6.4747850  
C   -1.0393320    0.7271839   -5.0632484  
N   -0.1387082    0.0017018   -4.3179684  
C   -2.0224202    1.5671714   -4.6513473  
C   -2.8394472    2.2118213   -5.6659552  
O   -3.7493945    2.9848410   -5.3962566  
C   -2.5393027    1.9011589   -7.1670238  
O   -3.2207395    2.4377604   -8.0301365  
C   -1.4529087    0.9785915   -7.4871325  
H   -2.2260443    1.7787425   -3.6108261  
H   -1.2514014    0.7689508   -8.5288476  
H    1.4597344   -1.3532678   -4.7476496  
C    1.4590789   -2.3902582   -7.7363336  
C    1.0293365   -1.1064055   -7.6308897  
C    1.3464589   -0.4524940   -8.8785551  
C    2.0008468   -1.4679115   -9.7256053  
N    2.0387815   -2.6201923   -8.9748062  
C    2.4518148   -1.2432919  -10.9857159  
C    2.2815011    0.0874184  -11.5449461  
O    2.6541447    0.3893759  -12.6711163  
C    1.5913465    1.1783688  -10.6655595  
O    1.4427276    2.3024510  -11.1255719  
C    1.1470577    0.8162846   -9.3219248  
H    2.9289662   -2.0021062  -11.5902296  
H    0.6699331    1.5773493   -8.7195484  
H    1.4012521   -3.1877104   -7.0134119  
H    2.4259342   -3.4941659   -9.2803069  
C    2.5528530    2.1414826    2.8079335  
C    2.0663498    1.7338582    4.0032312  
C    0.9804344    0.8229586    3.6752840  
C    0.9495562    0.7966882    2.1971295  
N    1.8690446    1.5676019    1.6831036  
C    0.0000000    0.0000000    1.4700000  
C   -0.8785127   -0.7372425    2.1869543  
O   -1.8187535   -1.5261249    1.6395491  
C   -0.8723269   -0.7321790    3.6796354  
O   -1.7010379   -1.4274584    4.2670412  
C    0.1115397    0.0933559    4.4024240  
H    2.4028853    2.0163452    4.9860947  
H   -2.2861435   -1.9184361    2.3990168  
H    0.0832434    0.0693689    5.4835595  
H    3.3664920    2.8238276    2.6198634  
