62

C    3.3041270    0.0001178   -1.5420432  
C    2.5845372   -0.0004779   -0.3695853  
C    1.2040007   -0.0000006   -0.7283591  
C    1.1422373    0.0006039   -2.1454374  
N    2.4348636    0.0026110   -2.6077466  
C   -0.0655186    0.0008800   -2.8497915  
C   -1.2321770    0.0002326   -2.1101397  
O   -2.4392818    0.0001149   -2.7472515  
C   -1.1911209   -0.0000006   -0.6955262  
O   -2.4371522   -0.0002319   -0.1032858  
C    0.0000000    0.0000000    0.0000000  
H    3.0031535   -0.0000661    0.6222580  
H    2.7054625   -0.0071097   -3.5745263  
H   -3.1132993   -0.0000646   -2.0551781  
H   -2.3200286   -0.0004070    0.8516413  
C    6.6801368   -0.0033359    1.2661383  
C    7.7093283   -0.0019929    0.3802272  
C    7.1273472   -0.0004469   -0.9411851  
C    5.6642438   -0.0009741   -0.7511359  
N    5.4589564   -0.0031397    0.6092841  
C    4.7577214    0.0005130   -1.7610465  
C    5.2563290    0.0025581   -3.1263015  
O    4.5202041    0.0039399   -4.1042684  
C    6.8020688    0.0028974   -3.3510091  
O    7.2336226    0.0043062   -4.4960070  
C    7.6791155    0.0014558   -2.1828315  
H    8.7566702   -0.0022581    0.6245396  
H    8.7481207    0.0019069   -2.3470027  
H    6.7110419   -0.0046693    2.3436044  
H    4.5604250   -0.0024244    1.0561488  
C    2.3446864   -2.1385761   -5.7825609  
C    1.7992122   -1.7303702   -6.9519222  
C    0.7308348   -0.8198482   -6.5697984  
C    0.7735867   -0.7944099   -5.0919254  
N    1.7176437   -1.5654466   -4.6247546  
C   -0.1387086    0.0017020   -4.3179679  
C   -1.0519392    0.7391883   -4.9898743  
O   -1.9638778    1.5275966   -4.3958873  
C   -1.1200796    0.7349606   -6.4810151  
O   -1.9771137    1.4304204   -7.0260370  
C   -0.1732959   -0.0899942   -7.2523610  
H    2.0864370   -2.0122476   -7.9504825  
H   -2.4685604    1.9202489   -5.1309194  
H   -0.2553894   -0.0654077   -8.3307328  
H    3.1667827   -2.8208807   -5.6356218  
C    0.0000000    0.0000000    1.4700000  
C    1.0521667    0.0011902    2.3562342  
C    0.4917218    0.0011957    3.6679131  
C   -0.9187428   -0.0003148    3.5178682  
N   -1.1833171    0.0009411    2.1707914  
C   -1.7951701   -0.0010350    4.6072090  
C   -1.2375837   -0.0005224    5.8710424  
O   -2.0474215   -0.0015360    6.9697579  
C    0.1673580    0.0013566    6.0411963  
O    0.5673524    0.0020687    7.3615553  
C    1.0325770    0.0023412    4.9669890  
H    2.0953057    0.0030649    2.0900562  
H   -2.0989778   -0.0102372    1.7591824  
H   -2.8710934   -0.0020419    4.4995513  
H   -1.4634884   -0.0006497    7.7393593  
H    1.5290710    0.0033153    7.3880045  
H    2.1042148    0.0039609    5.1284455  
