64

C    1.5862965   -2.0670324   -5.3411837  
C    1.3189955   -1.5555211   -6.5899330  
C    0.1997468   -0.6822142   -6.4513058  
C   -0.1759083   -0.7009553   -5.0836590  
N    0.6852546   -1.5532115   -4.4381559  
C   -1.2456329    0.0471727   -4.5828766  
C   -1.9487576    0.8286862   -5.4789954  
O   -3.0021411    1.5794497   -5.0433908  
C   -1.5894390    0.8603675   -6.8474631  
O   -2.3865851    1.6866030   -7.6124701  
C   -0.5344144    0.1223711   -7.3422459  
H    1.8630207   -1.7845998   -7.4902396  
H    0.6698564   -1.7594945   -3.4557141  
H   -3.3470234    2.0416480   -5.8184353  
H   -2.0769442    1.6504691   -8.5226462  
H   -0.2828475    0.1667452   -8.3954427  
C    4.7969529   -4.1382905   -7.5683925  
C    5.3337881   -4.8254742   -6.5044130  
C    4.5663790   -4.4768288   -5.3537047  
C    3.5663870   -3.5659735   -5.7806525  
N    3.7360562   -3.3807217   -7.1302869  
C    2.6256935   -3.0116757   -4.9073605  
C    2.6955731   -3.3838924   -3.5789216  
O    1.8012456   -2.8728986   -2.6833338  
C    3.6862901   -4.2911022   -3.1336518  
O    3.6248701   -4.5620022   -1.7822877  
C    4.6147985   -4.8381149   -3.9945682  
H    6.1757049   -5.4947587   -6.5516223  
H    3.1654309   -2.7940415   -7.7118146  
H    2.0242868   -3.2568845   -1.8253871  
H    4.3273361   -5.1821387   -1.5641698  
H    5.3620417   -5.5302763   -3.6244086  
H    5.0877695   -4.1275010   -8.6048621  
C    1.1243410    0.0099923   -0.7919003  
C    0.7474076    0.0234544   -2.1148543  
C   -0.6787381    0.0234490   -2.1414700  
C   -1.1201745    0.0098592   -0.7935546  
N    0.0000000    0.0000000    0.0000000  
C   -2.4730816    0.0063709   -0.4408240  
C   -3.3971958    0.0170982   -1.4675058  
O   -4.7313517    0.0146259   -1.1793471  
C   -2.9763648    0.0303504   -2.8186324  
O   -4.0166480    0.0395118   -3.7247624  
C   -1.6418562    0.0335260   -3.1673481  
H    1.4178717    0.0310972   -2.9571209  
H   -2.8160166   -0.0041111    0.5845966  
H   -5.1938818    0.0230867   -2.0274384  
H   -3.6464675    0.0482293   -4.6127343  
H    2.1062467    0.0052819   -0.3505407  
C    2.3971438    2.0127888    3.1728260  
C    1.9431056    1.6308205    1.9564670  
C    0.8496017    0.7127664    2.2356185  
C    0.7794028    0.6545384    3.7115134  
N    1.6840587    1.4146091    4.2663826  
C   -0.1885723   -0.1578550    4.3957118  
C   -1.0476298   -0.8789867    3.6398520  
O   -2.0015663   -1.6796266    4.1448486  
C   -1.0022026   -0.8410666    2.1483229  
O   -1.8147390   -1.5232959    1.5241687  
C    0.0000000    0.0000000    1.4700000  
H    2.3054237    1.9346118    0.9892483  
H   -0.2170646   -0.1815267    5.4753125  
H   -2.4487139   -2.0549881    3.3649027  
H    3.2048689    2.6911772    3.3971983  
