60

C    3.3041267    0.0001175   -1.5420439  
C    2.5845368   -0.0004781   -0.3695855  
C    1.2040004   -0.0000009   -0.7283591  
C    1.1422366    0.0006033   -2.1454373  
N    2.4348631    0.0026106   -2.6077468  
C   -0.0655195    0.0008790   -2.8497916  
C   -1.2321775    0.0002319   -2.1101396  
O   -2.4392826    0.0001138   -2.7472509  
C   -1.1911215   -0.0000009   -0.6955257  
O   -2.4371529   -0.0002324   -0.1032853  
C    0.0000000    0.0000000    0.0000000  
H    3.0031533   -0.0000656    0.6222577  
H   -0.1193557    0.0014834   -3.9297466  
H   -3.1132997   -0.0000652   -2.0551780  
H   -2.3200283   -0.0004072    0.8516422  
H    4.3686616    0.0004071   -1.7024304  
C    5.6502431   -2.1159097   -4.7187993  
C    5.4250913   -1.6663857   -5.9802706  
C    4.2912953   -0.7748314   -5.9133920  
C    3.8713705   -0.7415302   -4.4994102  
N    4.7351834   -1.5757177   -3.8279578  
C    2.8310651   -0.0116226   -4.0232758  
C    2.0743447    0.7948327   -4.9664298  
O    1.1203075    1.4867869   -4.6358048  
C    2.5012788    0.7745008   -6.4688011  
O    1.8714958    1.4492139   -7.2721669  
C    3.6401530   -0.0516395   -6.8616244  
H    5.9888030   -1.9294834   -6.8575520  
H    3.9294718   -0.0600297   -7.9037130  
H    4.7066616   -1.7617126   -2.8422400  
C    8.8123282   -4.1765294   -6.8965412  
C    9.4257654   -4.8762094   -5.9138301  
C    8.6894624   -4.5467789   -4.7031141  
C    7.6363376   -3.6101444   -5.1505835  
N    7.7033086   -3.3893794   -6.4354057  
C    6.6829948   -3.0441132   -4.2363450  
C    6.7771899   -3.3980050   -2.9343380  
O    5.9544469   -2.9465111   -1.9724195  
C    7.8286702   -4.3412939   -2.4518903  
O    7.8551842   -4.6188956   -1.2529515  
C    8.7949941   -4.9084146   -3.4092394  
H   10.2731961   -5.5346368   -5.9999129  
H    6.2700912   -3.3735337   -1.1556123  
H    9.5411895   -5.5880234   -3.0199388  
H    9.0591423   -4.1495381   -7.9459831  
C    2.3971438    2.0127888    3.1728260  
C    1.9431056    1.6308205    1.9564670  
C    0.8496017    0.7127664    2.2356185  
C    0.7794028    0.6545384    3.7115134  
N    1.6840587    1.4146091    4.2663826  
C   -0.1885723   -0.1578550    4.3957118  
C   -1.0476298   -0.8789867    3.6398520  
O   -2.0015663   -1.6796266    4.1448486  
C   -1.0022026   -0.8410666    2.1483229  
O   -1.8147390   -1.5232959    1.5241687  
C    0.0000000    0.0000000    1.4700000  
H    2.3054237    1.9346118    0.9892483  
H   -0.2170646   -0.1815267    5.4753125  
H   -2.4487139   -2.0549881    3.3649027  
H    3.2048689    2.6911772    3.3971983  
