58

C   -1.0547456    0.2998953   -0.8010305  
C    0.0000000    0.0000000    0.0000000  
C    1.1105557   -0.3160646   -0.8669513  
C    0.6127905   -0.1746817   -2.2486280  
N   -0.7064683    0.2002017   -2.1395010  
C    1.3607508   -0.3872233   -3.3608717  
C    2.7485910   -0.7817632   -3.1854462  
O    3.5038421   -0.9964538   -4.1244910  
C    3.2968117   -0.9377457   -1.7311670  
O    4.4635906   -1.2697611   -1.5710063  
C    2.3942318   -0.6809569   -0.6116750  
H    0.9762674   -0.2778792   -4.3654242  
H    2.7816404   -0.7909706    0.3920860  
H   -2.0572302    0.5851375   -0.5261644  
C   -3.8097758    3.2611810   -2.8440010  
C   -2.8222860    2.4984681   -2.3080835  
C   -2.5047473    1.4779108   -3.2788909  
C   -3.3945475    1.7102599   -4.4326065  
N   -4.1607534    2.8051962   -4.1056004  
C   -3.4035712    0.9560640   -5.5607961  
C   -2.4750959   -0.1590619   -5.6442439  
O   -2.4065511   -0.8972941   -6.6182132  
C   -1.5237104   -0.4237429   -4.4340311  
O   -0.7379337   -1.3598915   -4.4926969  
C   -1.6066721    0.4583229   -3.2725972  
H   -2.3682675    2.6350705   -1.3427749  
H   -4.0643399    1.1436055   -6.3957349  
H   -4.8648926    3.2117884   -4.6937484  
C   -3.3728782    5.3764130    1.0071475  
C   -3.2400906    4.5170857   -0.0359245  
C   -4.1944467    4.9235244   -1.0403386  
C   -4.8991515    6.0985216   -0.4930150  
N   -4.3547889    6.3213181    0.7507380  
C   -5.8795943    6.7775831   -1.1405577  
C   -6.2667558    6.3205662   -2.4648600  
O   -7.1391021    6.8650835   -3.1287978  
C   -5.5339622    5.0780122   -3.0639246  
O   -5.8515881    4.6838654   -4.1779365  
C   -4.4930295    4.4295095   -2.2703528  
H   -2.5522318    3.6924741   -0.0949093  
H   -6.3837282    7.6372007   -0.7212524  
H   -2.8361779    5.3987800    1.9416752  
H   -4.6272750    7.0581922    1.3750889  
C    2.3971438    2.0127888    3.1728260  
C    1.9431056    1.6308205    1.9564670  
C    0.8496017    0.7127664    2.2356185  
C    0.7794028    0.6545384    3.7115134  
N    1.6840587    1.4146091    4.2663826  
C   -0.1885723   -0.1578550    4.3957118  
C   -1.0476298   -0.8789867    3.6398520  
O   -2.0015663   -1.6796266    4.1448486  
C   -1.0022026   -0.8410666    2.1483229  
O   -1.8147390   -1.5232959    1.5241687  
C    0.0000000    0.0000000    1.4700000  
H    2.3054237    1.9346118    0.9892483  
H   -0.2170646   -0.1815267    5.4753125  
H   -2.4487139   -2.0549881    3.3649027  
H    3.2048689    2.6911772    3.3971983  
