58

C   -3.2573639   -0.0045762   -1.5109380  
C   -2.5379441   -0.0036221   -0.3591960  
C   -1.1435029   -0.0017421   -0.7338497  
C   -1.1092596   -0.0016495   -2.2088471  
N   -2.4227533   -0.0038118   -2.6182607  
C    0.0265529    0.0002921   -2.9515664  
C    1.3003023    0.0022074   -2.2514976  
O    2.3786749    0.0039683   -2.8306422  
C    1.2877710    0.0018935   -0.6895606  
O    2.3539936    0.0031875   -0.0892031  
C    0.0000000    0.0000000    0.0000000  
H   -2.9384056   -0.0043548    0.6389239  
H    0.0296287    0.0004529   -4.0327229  
H   -2.7280481   -0.0027365   -3.5742115  
C   -6.7921713   -0.0111223    1.2037511  
C   -5.5118950   -0.0096336    0.7650374  
C   -5.6127357   -0.0088218   -0.6862831  
C   -7.0660970   -0.0101409   -0.9589044  
N   -7.7625224   -0.0114116    0.1451703  
C   -7.5891352   -0.0097871   -2.2973801  
C   -6.7006548   -0.0077991   -3.3171510  
O   -7.0481200   -0.0072504   -4.6153451  
C   -5.2278265   -0.0060586   -3.0743856  
O   -4.4775282   -0.0044118   -4.0502290  
C   -4.7161290   -0.0065049   -1.6923257  
H   -4.6104111   -0.0090564    1.3535966  
H   -8.6559145   -0.0109821   -2.4673540  
H   -6.2020976   -0.0057129   -5.0984568  
C   -4.6481491   -0.0120049    5.0360491  
C   -5.7072044   -0.0135150    5.8860341  
C   -6.9000278   -0.0137583    5.0723950  
C   -6.4458318   -0.0122847    3.6686520  
N   -5.0708040   -0.0108705    3.7154047  
C   -7.2730958   -0.0124377    2.5928551  
C   -8.7064747   -0.0139432    2.8336004  
O   -9.5334687   -0.0141371    1.9311691  
C   -9.2098444   -0.0152665    4.3122557  
O  -10.4144216   -0.0162324    4.5273228  
C   -8.2215923   -0.0152422    5.3879931  
H   -5.6583808   -0.0141794    6.9603847  
H   -8.5783339   -0.0163681    6.4090016  
H   -3.5944699   -0.0114085    5.2633147  
H   -4.4672787   -0.0112236    2.9136539  
C    2.5528530    2.1414826    2.8079335  
C    2.0663498    1.7338582    4.0032312  
C    0.9804344    0.8229586    3.6752840  
C    0.9495562    0.7966882    2.1971295  
N    1.8690446    1.5676019    1.6831036  
C    0.0000000    0.0000000    1.4700000  
C   -0.8785127   -0.7372425    2.1869543  
O   -1.8187535   -1.5261249    1.6395491  
C   -0.8723269   -0.7321790    3.6796354  
O   -1.7010379   -1.4274584    4.2670412  
C    0.1115397    0.0933559    4.4024240  
H    2.4028853    2.0163452    4.9860947  
H   -2.2861435   -1.9184361    2.3990168  
H    0.0832434    0.0693689    5.4835595  
H    3.3664920    2.8238276    2.6198634  
