58

C   -3.2798078   -0.0015997   -1.4499647  
C   -2.5571143   -0.0013472   -2.5996554  
C   -1.1637429   -0.0005146   -2.2210360  
C   -1.1336961   -0.0003305   -0.7459470  
N   -2.4483510   -0.0006140   -0.3402721  
C    0.0000000    0.0000000    0.0000000  
C    1.2757371    0.0004131   -0.6964418  
O    2.3524597    0.0007913   -0.1142320  
C    1.2676490    0.0004793   -2.2584085  
O    2.3355765    0.0011322   -2.8557300  
C   -0.0181559   -0.0001815   -2.9516298  
H   -2.9547349   -0.0015211   -3.5989103  
H   -0.0150791   -0.0003365   -4.0331631  
H   -2.7563620   -0.0021346    0.6148065  
C   -6.5739152   -0.0039047   -4.3537886  
C   -7.6280837   -0.0043055   -3.4977493  
C   -7.0842285   -0.0039640   -2.1601929  
C   -5.6162779   -0.0032976   -2.3082156  
N   -5.3720687   -0.0036925   -3.6621917  
C   -4.7390840   -0.0024266   -1.2727278  
C   -5.2766305   -0.0023514    0.0776719  
O   -4.5688481   -0.0016596    1.0763434  
C   -6.8281771   -0.0033018    0.2579686  
O   -7.2923821   -0.0035541    1.3901232  
C   -7.6713704   -0.0039178   -0.9348757  
H   -8.7446431   -0.0043691   -0.8014218  
H   -6.5739151   -0.0039633   -5.4316982  
H   -4.4610963   -0.0018473   -4.0831096  
C   -9.6909190   -2.1474165   -6.6819737  
C  -10.9710058   -1.7405477   -6.5164012  
C  -10.9313594   -0.8294890   -5.3828673  
C   -9.5099602   -0.8023094   -4.9760851  
N   -8.7779923   -1.5728701   -5.7340086  
C   -9.0494875   -0.0052109   -3.8725976  
C   -9.9672062    0.7315552   -3.2060376  
O   -9.6781357    1.5207376   -2.1573860  
C  -11.4089601    0.7255726   -3.5926500  
O  -12.1886887    1.4204574   -2.9412057  
C  -11.8564695   -0.1003686   -4.7282034  
H  -11.8353897   -2.0236267   -7.0924066  
H  -10.5319172    1.9125624   -1.8991571  
H  -12.9090943   -0.0770486   -4.9765337  
H   -9.3011759   -2.8296134   -7.4206758  
C    0.0000000    0.0000000    1.4700000  
C    1.0662921    0.0000102    2.3034270  
C    0.4961870   -0.0000064    3.6418889  
C   -0.9663858    0.0000850    3.4240247  
N   -1.2632773    0.0000084    2.1528658  
C   -1.8985362    0.0000517    4.5177257  
C   -1.3925775   -0.0004564    5.7720543  
O   -2.1456383   -0.0005410    6.8851312  
C    0.0786232   -0.0009323    6.0245000  
O    0.4683759   -0.0012588    7.1921102  
C    1.0143166   -0.0008442    4.8859032  
H    2.1107198   -0.0000632    2.0421868  
H   -2.9622183    0.0003270    4.3293377  
H   -1.5042274   -0.0009692    7.6184419  
H    2.0724152   -0.0013148    5.1109744  
