60

C    3.3003547    0.0005275   -1.4738980  
C    2.5232816    0.0003495   -2.6090742  
C    1.1623206   -0.0001320   -2.1820096  
C    1.1711889    0.0000583   -0.7636136  
N    2.4852300   -0.0014920   -0.3662353  
C    0.0000000    0.0000000    0.0000000  
C   -1.2020382    0.0000519   -0.6806479  
O   -2.3759247    0.0003494    0.0157745  
C   -1.2314650   -0.0005113   -2.0955508  
O   -2.5054383   -0.0008037   -2.6250181  
C   -0.0764510   -0.0007273   -2.8495192  
H    2.8919962   -0.0005621   -3.6205295  
H    2.8036265    0.0088181    0.5858667  
H   -3.0835641    0.0000347   -0.6418820  
H   -2.4360047   -0.0011529   -3.5845921  
C    5.6973669    0.0011962   -2.3066368  
C    4.7630506    0.0004754   -1.3275394  
C    5.5210302   -0.0002217   -0.0857799  
C    6.9366169    0.0000943   -0.5132119  
N    7.0462383    0.0010056   -1.8139702  
C    8.0173672   -0.0003683    0.4339234  
C    7.6984452   -0.0007237    1.7483142  
O    8.6048004   -0.0011805    2.7405635  
C    6.2793309   -0.0006779    2.2112130  
O    6.0628271   -0.0011401    3.4229663  
C    5.1885714   -0.0002433    1.2201686  
H    9.0425397   -0.0003291    0.0934389  
H    8.0763821   -0.0013218    3.5590531  
H    4.1742367   -0.0001086    1.5961407  
H    5.5411504    0.0018571   -3.3736744  
C    0.6255550   -0.6879834   -5.1891748  
C   -0.1496409   -0.0015614   -4.3176961  
C   -1.0811315    0.7434624   -5.1506208  
C   -0.7158460    0.3787721   -6.5363162  
N    0.2838792   -0.4600984   -6.5652203  
C   -1.4129707    0.9145424   -7.6730016  
C   -2.4290864    1.7752033   -7.4361333  
O   -3.1654571    2.3510478   -8.4016397  
C   -2.8218931    2.1625050   -6.0491002  
O   -3.7565099    2.9510602   -5.9080577  
C   -2.0913489    1.5993469   -4.8997161  
H   -1.1245867    0.6308112   -8.6746207  
H   -3.8070523    2.9082157   -7.9251188  
H   -2.4067664    1.9049196   -3.9110975  
H    1.4391420   -1.3601755   -4.9673468  
C    2.3971438    2.0127888    3.1728260  
C    1.9431056    1.6308205    1.9564670  
C    0.8496017    0.7127664    2.2356185  
C    0.7794028    0.6545384    3.7115134  
N    1.6840587    1.4146091    4.2663826  
C   -0.1885723   -0.1578550    4.3957118  
C   -1.0476298   -0.8789867    3.6398520  
O   -2.0015663   -1.6796266    4.1448486  
C   -1.0022026   -0.8410666    2.1483229  
O   -1.8147390   -1.5232959    1.5241687  
C    0.0000000    0.0000000    1.4700000  
H    2.3054237    1.9346118    0.9892483  
H   -0.2170646   -0.1815267    5.4753125  
H   -2.4487139   -2.0549881    3.3649027  
H    3.2048689    2.6911772    3.3971983  
