60

C   -1.1239075    0.0327664   -0.7919009  
C   -0.7477578    0.0049816   -2.1148548  
C    0.6773568   -0.0492402   -2.1414694  
C    1.1189899   -0.0524453   -0.7935543  
N    0.0000000    0.0000000    0.0000000  
C    2.4710516   -0.1004019   -0.4408227  
C    3.3940895   -0.1462595   -1.4675046  
O    4.7273746   -0.1945187   -1.1793444  
C    2.9730598   -0.1435010   -2.8186308  
O    4.0122422   -0.1922109   -3.7247600  
C    1.6393959   -0.0959313   -3.1673471  
H    2.8141365   -0.1029671    0.5845984  
H    5.1892488   -0.2205604   -2.0274357  
H    3.6419987   -0.1868467   -4.6127322  
H    1.3471155   -0.0948778   -4.2109226  
H   -2.1049239    0.0748091   -0.3505418  
C   -1.6629795    0.0293635   -3.2649308  
C   -3.0152972    0.0810574   -3.2529376  
C   -3.4030227    0.0829985   -4.6551372  
C   -2.1242127    0.0275454   -5.3955116  
N   -1.1007385   -0.0041565   -4.5858911  
C   -2.0765721    0.0125552   -6.8316842  
C   -3.2529993    0.0508169   -7.4979341  
O   -3.3574031    0.0424557   -8.8377368  
C   -4.5600983    0.1067656   -6.7792386  
O   -5.5916998    0.1396444   -7.4500124  
C   -4.5825542    0.1211918   -5.3057356  
H   -3.6689891    0.1137350   -2.3981304  
H   -1.1278846   -0.0280621   -7.3467101  
H   -4.3153128    0.0769649   -9.0120083  
C   -6.2736491    2.2319216   -1.7632141  
C   -5.4031643    1.8081745   -2.7088746  
C   -6.1753282    0.9106104   -3.5542393  
C   -7.5283891    0.9087294   -2.9577450  
N   -7.5921203    1.6815094   -1.9076309  
C   -8.6026894    0.1309721   -3.5109713  
C   -8.3374447   -0.6108709   -4.6103570  
O   -9.2448194   -1.3837666   -5.2311174  
C   -6.9822251   -0.6296629   -5.2358077  
O   -6.8125069   -1.3280554   -6.2351398  
C   -5.8968235    0.1766780   -4.6495975  
H   -4.3652751    2.0721599   -2.8192064  
H   -9.5815252    0.1483098   -3.0543642  
H   -8.7611904   -1.7844979   -5.9758802  
H   -6.0882303    2.9114269   -0.9465956  
C    0.0000000    0.0000000    1.4700000  
C    1.0662921    0.0000102    2.3034270  
C    0.4961870   -0.0000064    3.6418889  
C   -0.9663858    0.0000850    3.4240247  
N   -1.2632773    0.0000084    2.1528658  
C   -1.8985362    0.0000517    4.5177257  
C   -1.3925775   -0.0004564    5.7720543  
O   -2.1456383   -0.0005410    6.8851312  
C    0.0786232   -0.0009323    6.0245000  
O    0.4683759   -0.0012588    7.1921102  
C    1.0143166   -0.0008442    4.8859032  
H    2.1107198   -0.0000632    2.0421868  
H   -2.9622183    0.0003270    4.3293377  
H   -1.5042274   -0.0009692    7.6184419  
H    2.0724152   -0.0013148    5.1109744  
