60

C    3.3041272    0.0001178   -1.5420437  
C    2.5845373   -0.0004779   -0.3695863  
C    1.2040006   -0.0000007   -0.7283594  
C    1.1422373    0.0006039   -2.1454379  
N    2.4348636    0.0026111   -2.6077468  
C   -0.0655185    0.0008799   -2.8497924  
C   -1.2321770    0.0002325   -2.1101400  
O   -2.4392818    0.0001148   -2.7472522  
C   -1.1911211   -0.0000007   -0.6955266  
O   -2.4371525   -0.0002319   -0.1032866  
C    0.0000000    0.0000000    0.0000000  
H    3.0031536   -0.0000661    0.6222576  
H    2.7054625   -0.0071097   -3.5745267  
H   -3.1132991   -0.0000648   -2.0551789  
H   -2.3200280   -0.0004071    0.8516406  
H    4.3686620    0.0004072   -1.7024302  
C   -0.1387085    0.0017019   -4.3179685  
C    0.8715312    0.0021967   -5.2254326  
C    0.2617550    0.0029742   -6.5342516  
C   -1.1970056    0.0029205   -6.3133249  
N   -1.3734978    0.0017347   -4.9488692  
C   -2.1246679    0.0039286   -7.3038525  
C   -1.6550235    0.0049216   -8.6793407  
O   -2.4116513    0.0058065   -9.6415337  
C   -0.1143777    0.0047445   -8.9366650  
O    0.2928821    0.0052677  -10.0905283  
C    0.7871604    0.0038970   -7.7872819  
H    1.9238023    0.0018530   -5.0033081  
H    1.8524573    0.0039850   -7.9740081  
H   -2.2623846    0.0029668   -4.4831156  
C   -4.2198711    0.7081258   -6.0896723  
C   -3.5733100    0.0040243   -7.0541797  
C   -4.5780321   -0.7374973   -7.7791029  
C   -5.8722180   -0.4052794   -7.1534005  
N   -5.5860115    0.4751257   -6.1356269  
C   -7.0695967   -0.9043611   -7.5520305  
C   -7.0846616   -1.8307061   -8.6719381  
O   -8.1123399   -2.3347350   -9.1056826  
C   -5.7257430   -2.1968391   -9.3495015  
O   -5.7258929   -2.9759254  -10.2930503  
C   -4.5003026   -1.5942899   -8.8307695  
H   -8.0074903   -0.6476288   -7.0794275  
H   -3.5635969   -1.8528263   -9.3056012  
H   -3.8132599    1.3774613   -5.3490328  
H   -6.2651809    0.8867342   -5.5221497  
C    2.3971438    2.0127888    3.1728260  
C    1.9431056    1.6308205    1.9564670  
C    0.8496017    0.7127664    2.2356185  
C    0.7794028    0.6545384    3.7115134  
N    1.6840587    1.4146091    4.2663826  
C   -0.1885723   -0.1578550    4.3957118  
C   -1.0476298   -0.8789867    3.6398520  
O   -2.0015663   -1.6796266    4.1448486  
C   -1.0022026   -0.8410666    2.1483229  
O   -1.8147390   -1.5232959    1.5241687  
C    0.0000000    0.0000000    1.4700000  
H    2.3054237    1.9346118    0.9892483  
H   -0.2170646   -0.1815267    5.4753125  
H   -2.4487139   -2.0549881    3.3649027  
H    3.2048689    2.6911772    3.3971983  
