60

C    3.3003548    0.0005277   -1.4738984  
C    2.5232816    0.0003501   -2.6090747  
C    1.1623203   -0.0001316   -2.1820102  
C    1.1711885    0.0000585   -0.7636140  
N    2.4852303   -0.0014920   -0.3662358  
C    0.0000000    0.0000000    0.0000000  
C   -1.2020381    0.0000521   -0.6806484  
O   -2.3759250    0.0003494    0.0157746  
C   -1.2314657   -0.0005108   -2.0955510  
O   -2.5054384   -0.0008032   -2.6250185  
C   -0.0764515   -0.0007267   -2.8495195  
H    2.8036264    0.0088182    0.5858665  
H   -3.0835635    0.0000350   -0.6418819  
H   -2.4360042   -0.0011520   -3.5845924  
H   -0.1304093   -0.0013415   -3.9319085  
H    4.3715550    0.0004898   -1.3667136  
C    4.0803118   -0.6868208   -4.4912472  
C    3.0267439   -0.0008946   -3.9901700  
C    2.4918845    0.7430929   -5.1201735  
C    3.3675127    0.3784074   -6.2545739  
N    4.3004233   -0.4595674   -5.8919908  
C    3.1668460    0.9132815   -7.5731825  
C    2.1379534    1.7730803   -7.7505530  
O    1.8345374    2.3480335   -8.9267369  
C    1.2364333    2.1603526   -6.6256342  
O    0.3199405    2.9480971   -6.8595587  
C    1.4629718    1.5981239   -5.2823162  
H    1.0577289    2.9047337   -8.7375126  
H    0.7877317    1.9036438   -4.4943194  
H    4.7441133   -1.3582263   -3.9701370  
C    5.1191018   -2.8672898   -8.8999903  
C    4.3764093   -1.9890349   -8.1867889  
C    4.5332346   -0.7179804   -8.8769526  
C    5.4274199   -1.0198384  -10.0153281  
N    5.7740855   -2.2781951  -10.0340719  
C    5.8312589   -0.0096984  -10.9542730  
C    5.3627800    1.2448822  -10.7648247  
O    5.6580792    2.2848520  -11.5631369  
C    4.4585309    1.5809255   -9.6257166  
O    4.0705839    2.7438404   -9.5146021  
C    4.0586866    0.5272107   -8.6761197  
H    3.7939943   -2.1801483   -7.3017220  
H    6.4857693   -0.2583995  -11.7768743  
H    5.1797394    3.0393888  -11.1745256  
H    5.2643291   -3.9194459   -8.7133087  
C    2.3971438    2.0127888    3.1728260  
C    1.9431056    1.6308205    1.9564670  
C    0.8496017    0.7127664    2.2356185  
C    0.7794028    0.6545384    3.7115134  
N    1.6840587    1.4146091    4.2663826  
C   -0.1885723   -0.1578550    4.3957118  
C   -1.0476298   -0.8789867    3.6398520  
O   -2.0015663   -1.6796266    4.1448486  
C   -1.0022026   -0.8410666    2.1483229  
O   -1.8147390   -1.5232959    1.5241687  
C    0.0000000    0.0000000    1.4700000  
H    2.3054237    1.9346118    0.9892483  
H   -0.2170646   -0.1815267    5.4753125  
H   -2.4487139   -2.0549881    3.3649027  
H    3.2048689    2.6911772    3.3971983  
