60

C   -3.3040222    0.0260821   -1.5420461  
C   -2.5844514    0.0209719   -0.3695876  
C   -1.2039617    0.0095477   -0.7283601  
C   -1.1422038    0.0084534   -2.1454382  
N   -2.4348053    0.0166962   -2.6077486  
C    0.0655129   -0.0013994   -2.8497918  
C    1.2321389   -0.0100031   -2.1101387  
O    2.4392062   -0.0194570   -2.7472495  
C    1.1910842   -0.0094442   -0.6955253  
O    2.4370783   -0.0190933   -0.1032838  
C    0.0000000    0.0000000    0.0000000  
H   -3.0030586    0.0238794    0.6222555  
H   -2.7053174    0.0285623   -3.5745283  
H    0.1193428   -0.0024310   -3.9297466  
H    3.1132037   -0.0246221   -2.0551756  
H    2.3199585   -0.0179895    0.8516431  
C   -6.7368683    0.0542468    1.2348599  
C   -5.4908391    0.0442340    0.6950580  
C   -5.6535658    0.0445977   -0.7396389  
C   -7.1069579    0.0557522   -0.9932493  
N   -7.7074696    0.0607907    0.2445919  
C   -7.6721571    0.0597720   -2.2270394  
C   -6.7901660    0.0524099   -3.3822762  
O   -7.2021785    0.0551897   -4.5348989  
C   -5.2475743    0.0403079   -3.1371835  
O   -4.4950970    0.0337275   -4.1020646  
C   -4.7575741    0.0372131   -1.7610503  
H   -4.5635470    0.0371935    1.2397535  
H   -8.7407573    0.0681098   -2.3911547  
H   -7.0277390    0.0571791    2.2727790  
C   -9.1587276    0.0743652    0.4781841  
C   -9.8363358    0.0817782    1.6549878  
C  -11.2432631    0.0943455    1.3305897  
C  -11.3303985    0.0936122   -0.1422298  
N  -10.0324878    0.0816480   -0.5984912  
C  -12.4920817    0.1031412   -0.8437317  
C  -13.7398460    0.1151307   -0.0984286  
O  -14.8382609    0.1243458   -0.6385217  
C  -13.6712869    0.1163733    1.4620533  
O  -14.7152396    0.1267283    2.1002658  
C  -12.3596581    0.1051580    2.1049812  
H   -9.4003395    0.0789667    2.6381016  
H  -12.5339439    0.1022785   -1.9240816  
H  -12.3208584    0.1058925    3.1858227  
H   -9.7617122    0.0767047   -1.5647743  
C    2.3971438    2.0127888    3.1728260  
C    1.9431056    1.6308205    1.9564670  
C    0.8496017    0.7127664    2.2356185  
C    0.7794028    0.6545384    3.7115134  
N    1.6840587    1.4146091    4.2663826  
C   -0.1885723   -0.1578550    4.3957118  
C   -1.0476298   -0.8789867    3.6398520  
O   -2.0015663   -1.6796266    4.1448486  
C   -1.0022026   -0.8410666    2.1483229  
O   -1.8147390   -1.5232959    1.5241687  
C    0.0000000    0.0000000    1.4700000  
H    2.3054237    1.9346118    0.9892483  
H   -0.2170646   -0.1815267    5.4753125  
H   -2.4487139   -2.0549881    3.3649027  
H    3.2048689    2.6911772    3.3971983  
