60

C    0.2788584    1.0892571   -0.7919011  
C    0.1691227    0.7283993   -2.1148548  
C   -0.1968338   -0.6499936   -2.1414703  
C   -0.2969760   -1.0801360   -0.7935553  
N    0.0000000    0.0000000    0.0000000  
C   -0.6407726   -2.3886364   -0.4408246  
C   -0.8882761   -3.2790540   -1.4675065  
O   -1.2282433   -4.5691707   -1.1793471  
C   -0.7930956   -2.8689139   -2.8186328  
O   -1.0688958   -3.8720123   -3.7247626  
C   -0.4537180   -1.5782762   -3.1673486  
H    0.3337831    1.3783742   -2.9571216  
H   -0.7186418   -2.7227781    0.5845959  
H   -1.3551098   -5.0140418   -2.0274387  
H   -0.9823301   -3.5119908   -4.6127348  
H    0.5353768    2.0370749   -0.3505414  
C    2.2791674    0.9713418   -5.5953574  
C    1.7237879    0.3268239   -4.5428698  
C    0.5811685   -0.3823744   -5.0978094  
C    0.5962616   -0.0447872   -6.5373893  
N    1.5893976    0.7483754   -6.8349858  
C   -0.3886173   -0.5577328   -7.4495225  
C   -1.3448691   -1.3712698   -6.9464577  
O   -2.3256814   -1.9212720   -7.6823560  
C   -1.3866957   -1.7308209   -5.4983090  
O   -2.2858442   -2.4763995   -5.1098955  
C   -0.3652331   -1.1918188   -4.5828773  
H    2.0493462    0.3319462   -3.5166820  
H   -0.3536009   -0.2943646   -8.4965758  
H   -2.8466913   -2.4463370   -7.0483144  
C    5.0424531    2.2667592   -2.4043427  
C    4.0340182    1.6892792   -3.1069448  
C    4.1830433    2.1098389   -4.4801733  
C    5.3694861    2.9859288   -4.5203018  
N    5.8440022    3.0403708   -3.2300454  
C    5.8441721    3.5866093   -5.6408196  
C    5.1393837    3.3549618   -6.8906784  
O    5.4883353    3.8508982   -7.9539661  
C    3.8802568    2.4308209   -6.8714824  
O    3.2785390    2.2286848   -7.9175883  
C    3.4653149    1.8396235   -5.6017732  
H    3.2725410    1.0426494   -2.7086534  
H    6.7163143    4.2255294   -5.6485922  
H    5.2673762    2.1924450   -1.3527835  
H    6.6497832    3.5602127   -2.9341949  
C    0.8175213    0.6860729    2.3021913  
C    0.0000000    0.0000000    1.4700000  
C   -0.8887526   -0.7456559    2.3478473  
C   -0.4549825   -0.3816753    3.7138435  
N    0.5448156    0.4573574    3.6934124  
C   -1.0945674   -0.9182058    4.8835240  
C   -2.1210866   -1.7789155    4.6970523  
O   -2.8083856   -2.3554314    5.6976972  
C   -2.5824069   -2.1655116    3.3310774  
O   -3.5227682   -2.9541547    3.2362962  
C   -1.9100805   -1.6015804    2.1470656  
H   -0.7567140   -0.6349833    5.8697035  
H   -3.4728268   -2.9124471    5.2533954  
H   -2.2742832   -1.9066565    1.1752040  
H    1.6189533    1.3585343    2.0405121  
