64

C    5.7158607   -0.0000960   -0.7739111  
C    4.7577216    0.0005129   -1.7610467  
C    5.4466891    0.0033021   -3.0100125  
C    6.8350415    0.0040105   -2.7194883  
N    6.9633983    0.0038532   -1.3526884  
C    7.8161411    0.0063093   -3.7155941  
C    7.3879072    0.0076154   -5.0289073  
O    8.3036911    0.0095193   -6.0410081  
C    6.0070627    0.0073131   -5.3388861  
O    5.7412876    0.0091682   -6.6926594  
C    5.0386296    0.0053189   -4.3567148  
H    8.8758773    0.0070045   -3.5007421  
H    7.7997538    0.0104684   -6.8652120  
H    4.7870502    0.0087968   -6.8152749  
H    3.9885439    0.0053185   -4.6246652  
H    5.6080642   -0.0015893    0.2972267  
C    8.2851924   -2.1367617    2.3432945  
C    7.5500189   -1.6657728    1.2802059  
C    8.3988041   -0.7873600    0.5436217  
C    9.6504624   -0.7618093    1.2104233  
N    9.5465631   -1.5904868    2.2999719  
C   10.7313814    0.0025997    0.7608873  
C   10.5454642    0.7546844   -0.3827827  
O   11.5679923    1.5190563   -0.8656759  
C    9.3038963    0.7426193   -1.0618857  
O    9.2765064    1.5442220   -2.1843950  
C    8.2370247   -0.0110427   -0.6188252  
H    6.5273825   -1.9227547    1.0630245  
H   10.2817559   -1.7805811    2.9567341  
H   11.6878623    0.0265044    1.2646470  
H   11.2311371    1.9563932   -1.6584750  
H    8.4035500    1.4789621   -2.5835079  
H    8.0091420   -2.8180310    3.1298232  
C    3.3041270    0.0001177   -1.5420435  
C    2.5845370   -0.0004780   -0.3695856  
C    1.2040004   -0.0000007   -0.7283590  
C    1.1422370    0.0006038   -2.1454373  
N    2.4348634    0.0026110   -2.6077469  
C   -0.0655187    0.0008799   -2.8497918  
C   -1.2321769    0.0002326   -2.1101398  
O   -2.4392822    0.0001149   -2.7472517  
C   -1.1911211   -0.0000007   -0.6955263  
O   -2.4371526   -0.0002319   -0.1032858  
C    0.0000000    0.0000000    0.0000000  
H    3.0031534   -0.0000661    0.6222578  
H    2.7054623   -0.0071098   -3.5745266  
H   -0.1193555    0.0014846   -3.9297472  
H   -3.1132992   -0.0000646   -2.0551783  
H   -2.3200279   -0.0004070    0.8516411  
C    2.3971438    2.0127888    3.1728260  
C    1.9431056    1.6308205    1.9564670  
C    0.8496017    0.7127664    2.2356185  
C    0.7794028    0.6545384    3.7115134  
N    1.6840587    1.4146091    4.2663826  
C   -0.1885723   -0.1578550    4.3957118  
C   -1.0476298   -0.8789867    3.6398520  
O   -2.0015663   -1.6796266    4.1448486  
C   -1.0022026   -0.8410666    2.1483229  
O   -1.8147390   -1.5232959    1.5241687  
C    0.0000000    0.0000000    1.4700000  
H    2.3054237    1.9346118    0.9892483  
H   -0.2170646   -0.1815267    5.4753125  
H   -2.4487139   -2.0549881    3.3649027  
H    3.2048689    2.6911772    3.3971983  
