62

C    3.3003550    0.0005273   -1.4738982  
C    2.5232819    0.0003493   -2.6090742  
C    1.1623207   -0.0001321   -2.1820100  
C    1.1711890    0.0000582   -0.7636142  
N    2.4852302   -0.0014919   -0.3662355  
C    0.0000000    0.0000000    0.0000000  
C   -1.2020381    0.0000519   -0.6806484  
O   -2.3759243    0.0003491    0.0157736  
C   -1.2314654   -0.0005114   -2.0955513  
O   -2.5054383   -0.0008038   -2.6250183  
C   -0.0764510   -0.0007275   -2.8495196  
H    2.8036268    0.0088181    0.5858668  
H   -3.0835632    0.0000344   -0.6418824  
H   -2.4360036   -0.0011532   -3.5845925  
H   -0.1304087   -0.0013425   -3.9319085  
H    4.3715553    0.0004892   -1.3667126  
C    4.1171240   -0.7271068   -4.4445138  
C    4.3278183   -0.5117044   -5.7686305  
C    3.3122725    0.4143180   -6.2113318  
C    2.4867575    0.7229871   -5.0280991  
N    3.0267444   -0.0008956   -3.9901695  
C    1.4208268    1.5629149   -5.0321548  
C    1.0625892    2.2056480   -6.2855883  
O    0.1193413    2.9784589   -6.3921134  
C    1.9228117    1.8931113   -7.5513461  
O    1.6305912    2.4280908   -8.6123196  
C    3.0482302    0.9707954   -7.4224273  
H    0.8286152    1.7757882   -4.1530190  
H    3.6389553    0.7598499   -8.3034889  
H    4.6665433   -1.3554379   -3.7624376  
C    5.8252212   -2.4155468   -6.5032422  
C    5.3911360   -1.1128172   -6.5865048  
C    6.1663167   -0.4798057   -7.6028663  
C    7.0645670   -1.4540826   -8.1086898  
N    6.8322063   -2.6174448   -7.4178826  
C    7.9832115   -1.1798138   -9.1263627  
C    7.9950892    0.1012380   -9.6430280  
O    8.8717778    0.4231090  -10.6384331  
C    7.1069170    1.0871952   -9.1512415  
O    7.2417386    2.3140035   -9.7677716  
C    6.2005724    0.8174021   -8.1471113  
H    7.3126974   -3.4863958   -7.5663210  
H    8.6705803   -1.9179107   -9.5161571  
H    8.7156583    1.3527575  -10.8497265  
H    6.6063027    2.9219446   -9.3776020  
H    5.5328829    1.5930600   -7.7907074  
H    5.4971826   -3.2162868   -5.8628008  
C    2.3971438    2.0127888    3.1728260  
C    1.9431056    1.6308205    1.9564670  
C    0.8496017    0.7127664    2.2356185  
C    0.7794028    0.6545384    3.7115134  
N    1.6840587    1.4146091    4.2663826  
C   -0.1885723   -0.1578550    4.3957118  
C   -1.0476298   -0.8789867    3.6398520  
O   -2.0015663   -1.6796266    4.1448486  
C   -1.0022026   -0.8410666    2.1483229  
O   -1.8147390   -1.5232959    1.5241687  
C    0.0000000    0.0000000    1.4700000  
H    2.3054237    1.9346118    0.9892483  
H   -0.2170646   -0.1815267    5.4753125  
H   -2.4487139   -2.0549881    3.3649027  
H    3.2048689    2.6911772    3.3971983  
