58

C    7.5785600   -0.8386241   -4.8781990  
C    6.7034526    0.1935463   -4.8584154  
C    7.4847889    1.3553545   -5.2536559  
C    8.8477205    0.8283956   -5.4801900  
N    8.9087962   -0.4571144   -5.2617333  
C    9.9328988    1.6764523   -5.8904003  
C    9.6684409    2.9911087   -6.0666800  
O   10.5854390    3.8966707   -6.4476155  
C    8.3032328    3.5530920   -5.8463563  
O    8.1349090    4.7592413   -6.0255033  
C    7.2067844    2.6626906   -5.4257513  
H   10.9189013    1.2644872   -6.0484954  
H   10.0996913    4.7403043   -6.4861471  
H    6.2325320    3.1086446   -5.2767972  
H    7.3890872   -1.8744869   -4.6456881  
C    4.6171595   -2.0114327   -1.7322444  
C    3.3328193   -1.6298289   -1.9231036  
C    3.3780282   -0.7112571   -3.0503489  
C    4.8069992   -0.6523616   -3.4260571  
N    5.5382134   -1.4125184   -2.6569815  
C    5.2745454    0.1606803   -4.5148406  
C    4.3562407    0.8817945   -5.1975154  
O    4.6514314    1.6829997   -6.2352884  
C    2.9068165    0.8432089   -4.8427747  
O    2.1270270    1.5254609   -5.5073660  
C    2.4521483    0.0014840   -3.7217481  
H    2.4622564   -1.9341723   -1.3676121  
H    3.7953895    2.0581840   -6.5102098  
H    5.0049135   -2.6900162   -0.9891798  
C    0.0000000    0.0000000    0.0000000  
C    1.0662923   -0.0000101   -0.8334270  
C    0.4961873    0.0000065   -2.1718887  
C   -0.9663854   -0.0000848   -1.9540250  
N   -1.2632773   -0.0000083   -0.6828660  
C   -1.8985359   -0.0000514   -3.0477261  
C   -1.3925770    0.0004566   -4.3020547  
O   -2.1456378    0.0005414   -5.4151314  
C    0.0786240    0.0009326   -4.5545000  
O    0.4683767    0.0012591   -5.7221100  
C    1.0143171    0.0008444   -3.4159031  
H    2.1107200    0.0000633   -0.5721865  
H   -2.9622181   -0.0003268   -2.8593381  
H   -1.5042265    0.0009697   -6.1484419  
C    1.0672568    0.0000697    2.3021913  
C    0.0000000    0.0000000    1.4700000  
C   -1.1601224    0.0000736    2.3478473  
C   -0.5938729    0.0000769    3.7138435  
N    0.7113367    0.0001554    3.6934124  
C   -1.4286986    0.0001879    4.8835240  
C   -2.7683114    0.0006799    4.6970523  
O   -3.6653903    0.0008304    5.6976972  
C   -3.3702025    0.0010610    3.3310774  
O   -4.5974910    0.0013779    3.2362962  
C   -2.4926826    0.0008943    2.1470656  
H   -0.9878360   -0.0000190    5.8697035  
H   -4.5324246    0.0012261    5.2533954  
H   -2.9677772    0.0012974    1.1752040  
H    2.1134392    0.0000545    2.0405121  
