58

C    1.9999919   -2.1070891   -5.1447771  
C    1.9105666   -1.6426499   -6.4177158  
C    0.7784253   -0.7475274   -6.4606980  
C    0.2115583   -0.7283877   -5.0986831  
N    0.9973789   -1.5733447   -4.3494012  
C   -0.8712826    0.0001710   -4.7267111  
C   -1.5219798    0.8200163   -5.7351666  
O   -2.5037638    1.5119150   -5.4992068  
C   -0.9387700    0.8148043   -7.1841818  
O   -1.4783591    1.5008665   -8.0417493  
C    0.2330299   -0.0112904   -7.4640108  
H    2.5631034   -1.8981145   -7.2335269  
H    2.7138550   -2.7945388   -4.7208629  
H    0.8643845   -1.7702170   -3.3744133  
C    1.8643943   -3.2120292  -10.0311791  
C    1.3226903   -2.5060745   -9.0053816  
C    1.2315121   -1.1326194   -9.4414356  
C    1.7683237   -1.0960221  -10.8152213  
N    2.1349336   -2.3881829  -11.1132261  
C    1.8546043    0.0234838  -11.5774321  
C    1.3878008    1.2759823  -11.0065769  
O    1.4234479    2.3386409  -11.6130303  
C    0.8156786    1.2606325   -9.5532191  
O    0.4199355    2.3090927   -9.0619166  
C    0.7736685   -0.0084049   -8.8309794  
H    1.0215333   -2.9022238   -8.0519758  
H    2.2515854    0.0286066  -12.5830621  
H    2.0889270   -4.2647819  -10.0876298  
H    2.5352825   -2.6871053  -11.9835208  
C    1.0965514    0.0001359   -0.8010305  
C    0.0000000    0.0000000    0.0000000  
C   -1.1546563    0.0001470   -0.8669513  
C   -0.6372014    0.0003519   -2.2486282  
N    0.7342871    0.0007337   -2.1395014  
C   -1.4147739    0.0001352   -3.3608717  
C   -2.8576049   -0.0001048   -3.1854462  
O   -3.6427779   -0.0002494   -4.1244907  
C   -3.4275840   -0.0000725   -1.7311666  
O   -4.6406831    0.0000333   -1.5710060  
C   -2.4891867   -0.0001091   -0.6116744  
H   -2.8919122   -0.0002918    0.3920866  
H    2.1388272    0.0000663   -0.5261648  
H    1.3735872   -0.0006099   -2.9130262  
C    0.0000000    0.0000000    1.4700000  
C    1.0662921    0.0000102    2.3034270  
C    0.4961870   -0.0000064    3.6418889  
C   -0.9663858    0.0000850    3.4240247  
N   -1.2632773    0.0000084    2.1528658  
C   -1.8985362    0.0000517    4.5177257  
C   -1.3925775   -0.0004564    5.7720543  
O   -2.1456383   -0.0005410    6.8851312  
C    0.0786232   -0.0009323    6.0245000  
O    0.4683759   -0.0012588    7.1921102  
C    1.0143166   -0.0008442    4.8859032  
H    2.1107198   -0.0000632    2.0421868  
H   -2.9622183    0.0003270    4.3293377  
H   -1.5042274   -0.0009692    7.6184419  
H    2.0724152   -0.0013148    5.1109744  
