58

C    3.2798082    0.0005856   -1.4499651  
C    2.5571141    0.0005564   -2.5996557  
C    1.1637430    0.0001547   -2.2210361  
C    1.1336957   -0.0000201   -0.7459470  
N    2.4483511   -0.0001429   -0.3402721  
C    0.0000000    0.0000000    0.0000000  
C   -1.2757373   -0.0000187   -0.6964409  
O   -2.3524598   -0.0000640   -0.1142310  
C   -1.2676502   -0.0000875   -2.2584078  
O   -2.3355770   -0.0004103   -2.8557291  
C    0.0181554    0.0001757   -2.9516296  
H    2.9547346    0.0006074   -3.5989107  
H    0.0150783    0.0003316   -4.0331629  
H    2.7563625    0.0012824    0.6148059  
C    6.4690078    0.0019755   -4.4192243  
C    7.5790602    0.0025231   -3.6450395  
C    7.0826139    0.0021761   -2.2775451  
C    5.6103552    0.0015082   -2.4155205  
N    5.2447502    0.0013071   -3.6686456  
C    4.7390845    0.0009614   -1.2727285  
C    5.3125314    0.0006874   -0.0477823  
O    4.6211391    0.0001824    1.1046138  
C    6.7952867    0.0009744    0.1242535  
O    7.2479824    0.0008235    1.2689314  
C    7.6676532    0.0015791   -1.0635602  
H    8.6077289    0.0030018   -3.9627114  
H    5.3014935    0.0000717    1.8019448  
H    8.7364289    0.0016562   -0.8963845  
C    9.6434342    0.0042566   -7.4042724  
C    8.9446494    0.0034938   -8.5632710  
C    7.5472149    0.0025216   -8.1587021  
C    7.5871481    0.0027409   -6.6805309  
N    8.8132381    0.0038373   -6.2325430  
C    6.3890374    0.0020110   -5.8870477  
C    5.2048623    0.0014923   -6.5405487  
O    4.0091095    0.0007813   -5.9271843  
C    5.1316394    0.0016297   -8.0314536  
O    4.0195396    0.0010082   -8.5591412  
C    6.3747459    0.0023394   -8.8230416  
H    9.3299091    0.0036705   -9.5685819  
H    3.3584830    0.0005760   -6.6523306  
H    6.2788902    0.0025327   -9.9005583  
H   10.7139795    0.0050976   -7.2742489  
C    0.8175213    0.6860729    2.3021913  
C    0.0000000    0.0000000    1.4700000  
C   -0.8887526   -0.7456559    2.3478473  
C   -0.4549825   -0.3816753    3.7138435  
N    0.5448156    0.4573574    3.6934124  
C   -1.0945674   -0.9182058    4.8835240  
C   -2.1210866   -1.7789155    4.6970523  
O   -2.8083856   -2.3554314    5.6976972  
C   -2.5824069   -2.1655116    3.3310774  
O   -3.5227682   -2.9541547    3.2362962  
C   -1.9100805   -1.6015804    2.1470656  
H   -0.7567140   -0.6349833    5.8697035  
H   -3.4728268   -2.9124471    5.2533954  
H   -2.2742832   -1.9066565    1.1752040  
H    1.6189533    1.3585343    2.0405121  
