58

C    2.6001989   -2.1411819   -5.8266046  
C    2.0730547   -1.7332817   -7.0044479  
C    0.9991591   -0.8222834   -6.6393046  
C    1.0189899   -0.7962635   -5.1609560  
N    1.9554493   -1.5673975   -4.6788913  
C    0.0950446    0.0004351   -4.4015596  
C   -0.8074263    0.7379266   -5.0878438  
O   -1.7282257    1.5268491   -4.5083867  
C   -0.8524304    0.7331200   -6.5798599  
O   -1.7006930    1.4286191   -7.1383864  
C    0.1059497   -0.0924309   -7.3360990  
H    2.3756473   -2.0156475   -7.9983207  
H   -2.2213252    1.9193581   -5.2513152  
H    0.0406009   -0.0682536   -8.4156246  
C    4.4558217   -3.7180056   -6.5403374  
C    3.7172821   -3.0714993   -5.6085811  
C    4.2690973   -3.4966820   -4.3313891  
C    5.3634386   -4.4247865   -4.6886335  
N    5.4777124   -4.5584179   -5.9821070  
C    6.1693846   -5.0711747   -3.6897750  
C    5.8948280   -4.8022993   -2.3929873  
O    6.5661572   -5.3346867   -1.3576511  
C    4.7972066   -3.8699099   -2.0005097  
O    4.6033806   -3.6718145   -0.8011725  
C    3.9845781   -3.2192905   -3.0437036  
H    6.9624951   -5.7449799   -3.9793797  
H    6.1425869   -4.9558000   -0.5663328  
H    3.1990702   -2.5505499   -2.7181355  
H    4.3609560   -3.6699323   -7.6134929  
C    3.3321173    0.0004713   -1.3379338  
C    2.6974181    0.0000116   -2.5332314  
C    1.2800438   -0.0002119   -2.2052841  
C    1.2395034    0.0000643   -0.7271299  
N    2.4394062    0.0005460   -0.2131038  
C    0.0000000    0.0000000    0.0000000  
C   -1.1468702    0.0000634   -0.7169543  
O   -2.3742203    0.0000074   -0.1695487  
C   -1.1388770    0.0001607   -2.2096355  
O   -2.2206234    0.0000905   -2.7970411  
C    0.1454522    0.0001815   -2.9324241  
H    3.1367984   -0.0000653   -3.5160950  
H   -2.9844346    0.0001026   -0.9290167  
H    4.3940038    0.0007618   -1.1498640  
C    2.3971438    2.0127888    3.1728260  
C    1.9431056    1.6308205    1.9564670  
C    0.8496017    0.7127664    2.2356185  
C    0.7794028    0.6545384    3.7115134  
N    1.6840587    1.4146091    4.2663826  
C   -0.1885723   -0.1578550    4.3957118  
C   -1.0476298   -0.8789867    3.6398520  
O   -2.0015663   -1.6796266    4.1448486  
C   -1.0022026   -0.8410666    2.1483229  
O   -1.8147390   -1.5232959    1.5241687  
C    0.0000000    0.0000000    1.4700000  
H    2.3054237    1.9346118    0.9892483  
H   -0.2170646   -0.1815267    5.4753125  
H   -2.4487139   -2.0549881    3.3649027  
H    3.2048689    2.6911772    3.3971983  
