58

C    3.2573677   -0.0002923   -1.5109371  
C    2.5379474   -0.0001713   -0.3591956  
C    1.1435046    0.0000329   -0.7338495  
C    1.1092617   -0.0000086   -2.2088470  
N    2.4227573    0.0001904   -2.6182602  
C   -0.0265523   -0.0002527   -2.9515661  
C   -1.3003027   -0.0002644   -2.2514983  
O   -2.3786775   -0.0004135   -2.8306429  
C   -1.2877720    0.0000309   -0.6895608  
O   -2.3539953    0.0003304   -0.0892038  
C    0.0000000    0.0000000    0.0000000  
H    2.9384088   -0.0000370    0.6389247  
H    4.3270401   -0.0004772   -1.6439429  
H    2.7280503   -0.0013411   -3.5742105  
C    0.7846897   -0.6863335   -5.2559754  
C   -0.0307340   -0.0004652   -4.4215598  
C   -0.9222766    0.7447106   -5.2969827  
C   -0.4922494    0.3807050   -6.6641549  
N    0.5079366   -0.4579276   -6.6464477  
C   -1.1353723    0.9168121   -7.8320881  
C   -2.1616992    1.7771408   -7.6428207  
O   -2.8520713    2.3532389   -8.6415891  
C   -2.6192854    2.1637509   -6.2755942  
O   -3.5596869    2.9520343   -6.1782516  
C   -1.9433695    1.6002582   -5.0934191  
H   -3.5154673    2.9100549   -8.1954790  
H   -2.3049274    1.9053299   -4.1205691  
H    1.5871301   -1.3584386   -4.9964804  
C   -0.2887086   -0.6919847   -9.6024144  
C   -0.6792830    0.5313878   -9.1753417  
C   -0.5509514    1.3938315  -10.3399111  
C   -0.0568655    0.5023710  -11.4112476  
N    0.0986901   -0.7215594  -10.9848842  
C    0.2023436    0.9819197  -12.7408830  
C   -0.0222140    2.2923808  -12.9890776  
O    0.1767869    2.8748722  -14.1837081  
C   -0.5210788    3.2173228  -11.9289936  
O   -0.7030842    4.3979908  -12.2258408  
C   -0.7793835    2.7013330  -10.5729119  
H    0.5632240    0.3081807  -13.5042641  
H   -0.0690311    3.8078713  -14.0486571  
H   -1.1402544    3.4035170   -9.8333579  
H   -0.2400588   -1.6086854   -9.0364936  
C    0.0000000    0.0000000    1.4700000  
C    1.0662921    0.0000102    2.3034270  
C    0.4961870   -0.0000064    3.6418889  
C   -0.9663858    0.0000850    3.4240247  
N   -1.2632773    0.0000084    2.1528658  
C   -1.8985362    0.0000517    4.5177257  
C   -1.3925775   -0.0004564    5.7720543  
O   -2.1456383   -0.0005410    6.8851312  
C    0.0786232   -0.0009323    6.0245000  
O    0.4683759   -0.0012588    7.1921102  
C    1.0143166   -0.0008442    4.8859032  
H    2.1107198   -0.0000632    2.0421868  
H   -2.9622183    0.0003270    4.3293377  
H   -1.5042274   -0.0009692    7.6184419  
H    2.0724152   -0.0013148    5.1109744  
