58

C    3.2573669   -0.0002920   -1.5109381  
C    2.5379467   -0.0001711   -0.3591959  
C    1.1435042    0.0000331   -0.7338497  
C    1.1092607   -0.0000081   -2.2088471  
N    2.4227560    0.0001907   -2.6182608  
C   -0.0265533   -0.0002524   -2.9515661  
C   -1.3003036   -0.0002640   -2.2514977  
O   -2.3786787   -0.0004131   -2.8306425  
C   -1.2877726    0.0000311   -0.6895602  
O   -2.3539960    0.0003306   -0.0892029  
C    0.0000000    0.0000000    0.0000000  
H    2.9384089   -0.0000370    0.6389239  
H    4.3270393   -0.0004766   -1.6439442  
H    2.7280493   -0.0013408   -3.5742113  
C    2.5185217   -2.1418786   -5.7664421  
C    2.0285777   -1.7344768   -6.9604094  
C    0.9435060   -0.8236413   -6.6295056  
C    0.9168303   -0.7971604   -5.1512730  
N    1.8378567   -1.5679055   -4.6397538  
C   -0.0307354   -0.0004647   -4.4215603  
C   -0.9113601    0.7365842   -5.1361180  
O   -1.8501209    1.5254490   -4.5861544  
C   -0.9094202    0.7313055   -6.6288102  
O   -1.7398707    1.4264151   -7.2139561  
C    0.0724709   -0.0942327   -7.3542757  
H   -2.3197103    1.9176026   -5.3443459  
H    0.0410964   -0.0704048   -8.4353301  
H    3.3327626   -2.8241129   -5.5805892  
C    3.3121065   -5.6096092   -8.4846803  
C    3.6036506   -5.3256968   -9.7754066  
C    3.3262752   -3.9047797   -9.9187852  
C    2.8632608   -3.4785445   -8.5806804  
N    2.8529257   -4.4735857   -7.7358280  
C    2.4843050   -2.1203328   -8.3036624  
C    2.5646317   -1.2283893   -9.3172299  
O    2.2429062    0.0712028   -9.2006387  
C    3.0284716   -1.6277063  -10.6786841  
O    3.0765734   -0.7631197  -11.5535541  
C    3.4115911   -3.0270047  -10.9377374  
H    3.9626869   -5.9975098  -10.5362192  
H    2.4028902    0.4465715  -10.0853176  
H    3.7423460   -3.2758137  -11.9372001  
H    3.3855549   -6.5602660   -7.9808643  
C    2.5528530    2.1414826    2.8079335  
C    2.0663498    1.7338582    4.0032312  
C    0.9804344    0.8229586    3.6752840  
C    0.9495562    0.7966882    2.1971295  
N    1.8690446    1.5676019    1.6831036  
C    0.0000000    0.0000000    1.4700000  
C   -0.8785127   -0.7372425    2.1869543  
O   -1.8187535   -1.5261249    1.6395491  
C   -0.8723269   -0.7321790    3.6796354  
O   -1.7010379   -1.4274584    4.2670412  
C    0.1115397    0.0933559    4.4024240  
H    2.4028853    2.0163452    4.9860947  
H   -2.2861435   -1.9184361    2.3990168  
H    0.0832434    0.0693689    5.4835595  
H    3.3664920    2.8238276    2.6198634  
