60

C    0.0000000    0.0000000    0.0000000  
C    1.0521665   -0.0011901   -0.8862342  
C    0.4917217   -0.0011956   -2.1979130  
C   -0.9187428    0.0003148   -2.0478683  
N   -1.1833173   -0.0009411   -0.7007911  
C   -1.7951703    0.0010349   -3.1372088  
C   -1.2375840    0.0005224   -4.4010424  
O   -2.0474220    0.0015359   -5.4997576  
C    0.1673578   -0.0013566   -4.5711965  
O    0.5673521   -0.0020688   -5.8915549  
C    1.0325768   -0.0023412   -3.4969890  
H    2.0953059   -0.0030648   -0.6200563  
H   -2.0989774    0.0102371   -0.2891826  
H   -1.4634888    0.0006496   -6.2693593  
H    1.5290706   -0.0033152   -5.9180048  
C    4.5245063   -2.0170289   -1.5964878  
C    3.2545758   -1.6337813   -1.8647753  
C    3.3688922   -0.7174411   -2.9889427  
C    4.8179316   -0.6615021   -3.2783206  
N    5.5003980   -1.4213292   -2.4653676  
C    5.3513386    0.1487209   -4.3385575  
C    4.4768685    0.8699633   -5.0764229  
O    4.8351495    1.6687173   -6.0960636  
C    3.0087047    0.8343262   -4.8092390  
O    2.2713501    1.5165248   -5.5206702  
C    2.4861699   -0.0045381   -3.7159922  
H    2.3517363   -1.9356975   -1.3619797  
H    6.4146760    0.1707454   -4.5276056  
H    3.9977792    2.0447143   -6.4225463  
H    4.8658291   -2.6947948   -0.8302594  
C   -3.2578657    0.0024038   -2.9908504  
C   -3.9809873    0.0031287   -1.8468775  
C   -5.3695598    0.0043913   -2.2808879  
C   -5.2983967    0.0043641   -3.7578846  
N   -4.0631144    0.0031209   -4.1798622  
C   -6.4794710    0.0054029   -4.5765110  
C   -7.6771921    0.0060337   -3.9481805  
O   -8.8597161    0.0070290   -4.5866776  
C   -7.7819058    0.0057081   -2.4591555  
O   -8.9049090    0.0064464   -1.9550880  
C   -6.5558062    0.0046821   -1.6414742  
H   -3.6170581    0.0027518   -0.8336493  
H   -6.3979230    0.0055641   -5.6536640  
H   -9.5255221    0.0072467   -3.8754427  
H   -6.6744111    0.0043601   -0.5662243  
C    3.3321173   -0.0004715    2.8079335  
C    2.6974184   -0.0000116    4.0032312  
C    1.2800439    0.0002118    3.6752840  
C    1.2395035   -0.0000644    2.1971295  
N    2.4394063   -0.0005460    1.6831036  
C    0.0000000    0.0000000    1.4700000  
C   -1.1468701   -0.0000635    2.1869543  
O   -2.3742202   -0.0000073    1.6395491  
C   -1.1388768   -0.0001607    3.6796354  
O   -2.2206231   -0.0000905    4.2670412  
C    0.1454524   -0.0001816    4.4024240  
H    3.1367986    0.0000651    4.9860947  
H   -2.9844344   -0.0001026    2.3990168  
H    0.1083576   -0.0003682    5.4835595  
H    4.3940039   -0.0007619    2.6198634  
