58

C    3.2573672   -0.0002920   -1.5109380  
C    2.5379470   -0.0001710   -0.3591959  
C    1.1435044    0.0000331   -0.7338498  
C    1.1092609   -0.0000083   -2.2088475  
N    2.4227564    0.0001909   -2.6182609  
C   -0.0265532   -0.0002524   -2.9515660  
C   -1.3003037   -0.0002640   -2.2514978  
O   -2.3786783   -0.0004133   -2.8306423  
C   -1.2877723    0.0000311   -0.6895608  
O   -2.3539957    0.0003306   -0.0892035  
C    0.0000000    0.0000000    0.0000000  
H    2.9384091   -0.0000368    0.6389235  
H    2.7280494   -0.0013407   -3.5742112  
C    4.7161333   -0.0005436   -1.6923256  
C    5.6747642   -0.0008963   -0.7370214  
C    6.9326506   -0.0010019   -1.4679262  
C    6.5359796   -0.0007818   -2.8924391  
N    5.2379010   -0.0004320   -3.0302096  
C    7.5063018   -0.0007608   -3.9524208  
C    8.8134766   -0.0005623   -3.6051041  
O    9.8251250   -0.0005269   -4.4897556  
C    9.2455284   -0.0004054   -2.1762964  
O   10.4523080   -0.0003518   -1.9335970  
C    8.2310914   -0.0004741   -1.1072587  
H    5.5443950   -0.0009741    0.3316600  
H    7.1881028   -0.0008044   -4.9847283  
H   10.6319776   -0.0003444   -3.9437319  
H    8.5850047   -0.0002404   -0.0850187  
C   -0.0307352   -0.0004647   -4.4215603  
C    1.0331815   -0.0004859   -5.2580170  
C    0.4592709   -0.0007211   -6.5948515  
C   -1.0026761   -0.0009311   -6.3728274  
N   -1.2959500   -0.0007014   -5.1008292  
C   -1.9379342   -0.0011514   -7.4638720  
C   -1.4355461   -0.0007726   -8.7196356  
O   -2.1917704   -0.0009261   -9.8305658  
C    0.0349304   -0.0001822   -8.9762653  
O    0.4213597    0.0000156  -10.1449796  
C    0.9738592   -0.0000098   -7.8403354  
H    2.0783484   -0.0002676   -4.9997494  
H   -3.0010760   -0.0015087   -7.2724587  
H   -1.5524484   -0.0005380  -10.5656984  
H    2.0313131    0.0005368   -8.0684157  
C    0.0000000    0.0000000    1.4700000  
C    1.0662921    0.0000102    2.3034270  
C    0.4961870   -0.0000064    3.6418889  
C   -0.9663858    0.0000850    3.4240247  
N   -1.2632773    0.0000084    2.1528658  
C   -1.8985362    0.0000517    4.5177257  
C   -1.3925775   -0.0004564    5.7720543  
O   -2.1456383   -0.0005410    6.8851312  
C    0.0786232   -0.0009323    6.0245000  
O    0.4683759   -0.0012588    7.1921102  
C    1.0143166   -0.0008442    4.8859032  
H    2.1107198   -0.0000632    2.0421868  
H   -2.9622183    0.0003270    4.3293377  
H   -1.5042274   -0.0009692    7.6184419  
H    2.0724152   -0.0013148    5.1109744  
