58

C    2.2088374   -2.1426207   -5.8191631  
C    1.6816909   -1.7351240   -6.9971456  
C    0.6077900   -0.8240080   -6.6323116  
C    0.6276206   -0.7974854   -5.1539725  
N    1.5640846   -1.5684500   -4.6716456  
C   -0.2963293   -0.0005341   -4.3948471  
C   -1.1988047    0.7367189   -5.0813820  
O   -2.1196089    1.5258328   -4.5021932  
C   -1.2438086    0.7314045   -6.5733964  
O   -2.0920751    1.4267088   -7.1321594  
C   -0.2854235   -0.0943978   -7.3293548  
H    1.9842853   -2.0178259   -7.9909224  
H   -2.6127107    1.9180866   -5.2452547  
H    3.0283489   -2.8250548   -5.6589865  
C    0.0670449   -3.1053669  -10.5965061  
C    0.0379285   -2.5480502   -9.3635699  
C   -0.2272298   -1.1366283   -9.5961187  
C   -0.3327808   -1.0144728  -11.0659899  
N   -0.1612475   -2.1652792  -11.6577749  
C   -0.5940794    0.2443364  -11.7080250  
C   -0.7435382    1.3316160  -10.9175697  
O   -0.9908026    2.5684647  -11.3813648  
C   -0.6429808    1.2405753   -9.4310441  
O   -0.7897335    2.2710877   -8.7739826  
C   -0.3742253   -0.0620426   -8.7963141  
H    0.1788794   -3.0346573   -8.4136109  
H   -0.6659265    0.3045234  -12.7841872  
H   -1.0452445    3.1259010  -10.5842121  
H    0.2367288   -4.1386476  -10.8544052  
C    3.1301146   -0.0010313   -1.7028256  
C    2.5367765   -0.0002766   -0.4864669  
C    1.1089901    0.0001027   -0.7656184  
C    1.0177865   -0.0004150   -2.2415133  
N    2.1993571   -0.0011612   -2.7963824  
C   -0.2459219   -0.0002879   -2.9257116  
C   -1.3675326   -0.0000606   -2.1698520  
O   -2.6129318    0.0000865   -2.6748483  
C   -1.3083588    0.0000910   -0.6783229  
O   -2.3693264    0.0004206   -0.0541685  
C    0.0000000    0.0000000    0.0000000  
H    3.0096016   -0.0001007    0.4807518  
H   -3.1967444    0.0002093   -1.8949026  
H    4.1849275   -0.0015114   -1.9271979  
C    2.3971438    2.0127888    3.1728260  
C    1.9431056    1.6308205    1.9564670  
C    0.8496017    0.7127664    2.2356185  
C    0.7794028    0.6545384    3.7115134  
N    1.6840587    1.4146091    4.2663826  
C   -0.1885723   -0.1578550    4.3957118  
C   -1.0476298   -0.8789867    3.6398520  
O   -2.0015663   -1.6796266    4.1448486  
C   -1.0022026   -0.8410666    2.1483229  
O   -1.8147390   -1.5232959    1.5241687  
C    0.0000000    0.0000000    1.4700000  
H    2.3054237    1.9346118    0.9892483  
H   -0.2170646   -0.1815267    5.4753125  
H   -2.4487139   -2.0549881    3.3649027  
H    3.2048689    2.6911772    3.3971983  
