58

C    1.0965512    0.0001357   -0.8010303  
C    0.0000000    0.0000000    0.0000000  
C   -1.1546567    0.0001469   -0.8669506  
C   -0.6372019    0.0003519   -2.2486281  
N    0.7342867    0.0007337   -2.1395011  
C   -1.4147747    0.0001350   -3.3608708  
C   -2.8576058   -0.0001049   -3.1854449  
O   -3.6427791   -0.0002494   -4.1244897  
C   -3.4275844   -0.0000726   -1.7311658  
O   -4.6406826    0.0000332   -1.5710050  
C   -2.4891869   -0.0001092   -0.6116739  
H   -1.0150457    0.0001614   -4.3654239  
H   -2.8919120   -0.0002920    0.3920866  
H    2.1388267    0.0000663   -0.5261646  
C    4.4892970   -2.1441338   -2.6751664  
C    4.8760701   -1.7381812   -3.9069083  
C    3.8307835   -0.8270018   -4.3469397  
C    2.8653298   -0.7987569   -3.2272586  
N    3.2460490   -1.5688474   -2.2444043  
C    1.6707634   -0.0012345   -3.2725973  
C    1.4508813    0.7349193   -4.3857299  
O    0.3779847    1.5243966   -4.5636592  
C    2.4065716    0.7278581   -5.5323626  
O    2.1425161    1.4222295   -6.5138633  
C    3.6247981   -0.0985001   -5.4617875  
H    5.7614096   -2.0219348   -4.4498022  
H    0.5018298    1.9156224   -5.4472639  
H    4.9961449   -2.8261075   -2.0110952  
C    5.2037394   -1.1013206   -7.1765520  
C    4.5311094   -0.0678772   -6.6187497  
C    4.8987856    1.0925953   -7.4153789  
C    5.8256536    0.5635504   -8.4389079  
N    6.0081873   -0.7219327   -8.3039842  
C    6.4218744    1.4098251   -9.4356157  
C    6.1061909    2.7247705   -9.4111779  
O    6.5888542    3.6288083  -10.2805408  
C    5.1737084    3.2888400   -8.3911466  
O    4.9314891    4.4951371   -8.4285358  
C    4.5750800    2.4002418   -7.3792367  
H    7.0959819    0.9963538  -10.1715031  
H    6.1849564    4.4731223  -10.0100727  
H    3.9045289    2.8476802   -6.6578557  
H    5.1988705   -2.1367879   -6.8752925  
C    2.3971438    2.0127888    3.1728260  
C    1.9431056    1.6308205    1.9564670  
C    0.8496017    0.7127664    2.2356185  
C    0.7794028    0.6545384    3.7115134  
N    1.6840587    1.4146091    4.2663826  
C   -0.1885723   -0.1578550    4.3957118  
C   -1.0476298   -0.8789867    3.6398520  
O   -2.0015663   -1.6796266    4.1448486  
C   -1.0022026   -0.8410666    2.1483229  
O   -1.8147390   -1.5232959    1.5241687  
C    0.0000000    0.0000000    1.4700000  
H    2.3054237    1.9346118    0.9892483  
H   -0.2170646   -0.1815267    5.4753125  
H   -2.4487139   -2.0549881    3.3649027  
H    3.2048689    2.6911772    3.3971983  
