64

C    3.3041267    0.0001175   -1.5420439  
C    2.5845370   -0.0004782   -0.3695860  
C    1.2040003   -0.0000009   -0.7283592  
C    1.1422366    0.0006035   -2.1454375  
N    2.4348631    0.0026107   -2.6077472  
C   -0.0655191    0.0008795   -2.8497916  
C   -1.2321778    0.0002322   -2.1101394  
O   -2.4392824    0.0001145   -2.7472511  
C   -1.1911212   -0.0000009   -0.6955261  
O   -2.4371528   -0.0002321   -0.1032854  
C    0.0000000    0.0000000    0.0000000  
H    3.0031537   -0.0000662    0.6222575  
H   -0.1193561    0.0014840   -3.9297468  
H   -3.1132997   -0.0000649   -2.0551772  
H   -2.3200277   -0.0004071    0.8516418  
H    4.3686617    0.0004070   -1.7024307  
C    5.6718678   -2.1292829   -4.7374678  
C    5.4024558   -1.6450690   -5.9966031  
C    4.2795461   -0.7737664   -5.8761641  
C    3.9039350   -0.7655396   -4.5084013  
N    4.7686513   -1.6005167   -3.8453050  
C    2.8310651   -0.0116223   -4.0232761  
C    2.1246898    0.7480616   -4.9354667  
O    1.0681509    1.5033226   -4.5155605  
C    2.4839098    0.7526865   -6.3043187  
O    1.6833222    1.5594237   -7.0863539  
C    3.5420376    0.0089614   -6.7836564  
H    5.9474631   -1.8905999   -6.8919658  
H    4.7540920   -1.7863154   -2.8587714  
H    0.7213527    1.9477941   -5.3000615  
H    1.9931383    1.5056033   -7.9955959  
H    6.4359560   -2.8111065   -4.4054367  
C    4.8223248   -3.1724442   -9.5762189  
C    4.9449674   -2.3838401  -10.6967229  
C    4.5993140   -1.0549562  -10.3104695  
C    4.2720558   -1.0943223   -8.9308760  
N    4.4160254   -2.3952714   -8.5168451  
C    3.8830527    0.0407581   -8.2132013  
C    3.8236200    1.2374326   -8.9006717  
O    3.4500562    2.3766839   -8.2483138  
C    4.1459932    1.2968711  -10.2773919  
O    4.0381512    2.5609459  -10.8194525  
C    4.5295716    0.1774363  -10.9860942  
H    5.2454159   -2.7246765  -11.6727117  
H    4.2625881   -2.7270754   -7.5817817  
H    3.4743482    3.0866608   -8.9029944  
H    4.2729791    2.5133651  -11.7512222  
H    4.7703220    0.2537935  -12.0399862  
H    4.9911428   -4.2280613   -9.4492086  
C    0.0000000    0.0000000    1.4700000  
C    1.0662921    0.0000102    2.3034270  
C    0.4961870   -0.0000064    3.6418889  
C   -0.9663858    0.0000850    3.4240247  
N   -1.2632773    0.0000084    2.1528658  
C   -1.8985362    0.0000517    4.5177257  
C   -1.3925775   -0.0004564    5.7720543  
O   -2.1456383   -0.0005410    6.8851312  
C    0.0786232   -0.0009323    6.0245000  
O    0.4683759   -0.0012588    7.1921102  
C    1.0143166   -0.0008442    4.8859032  
H    2.1107198   -0.0000632    2.0421868  
H   -2.9622183    0.0003270    4.3293377  
H   -1.5042274   -0.0009692    7.6184419  
H    2.0724152   -0.0013148    5.1109744  
