60

C    0.0000000    0.0000000    0.0000000  
C    1.0541691   -0.0001722   -0.8560385  
C    0.5103148   -0.0000454   -2.1935953  
C   -0.9576360    0.0002459   -2.0455733  
N   -1.2018453   -0.0001391   -0.6915972  
C   -1.8348299    0.0008316   -3.0810614  
C   -1.2972830    0.0009736   -4.4314610  
O   -2.0050651    0.0014265   -5.4301325  
C    0.2542642    0.0004184   -4.6117570  
O    0.7184692    0.0002257   -5.7439117  
C    1.0974567    0.0000874   -3.4189124  
H    2.0940754   -0.0005483   -0.5817975  
H   -2.1128192    0.0014911   -0.2706798  
C    4.1988043   -2.1397334   -1.2302355  
C    5.3249612   -1.7327112   -1.8608567  
C    4.8655820   -0.8226614   -2.8987773  
C    3.3949153   -0.7961729   -2.7470485  
N    2.9982283   -1.5662364   -1.7705080  
C    2.5562225   -0.0001552   -3.6002994  
C    3.1593408    0.7362379   -4.5611887  
O    2.5001484    1.5244282   -5.4273654  
C    4.6413777    0.7309333   -4.7392319  
O    5.1220804    1.4254262   -5.6346790  
C    5.4799941   -0.0939018   -3.8513724  
H    6.3418224   -2.0150804   -1.6479322  
H    3.1961637    1.9162249   -5.9852278  
H    6.5493769   -0.0701167   -4.0128768  
H    4.1125269   -2.8213703   -0.3990311  
C   -3.2941060    0.0012872   -2.9038252  
C   -3.9928916    0.0012410   -1.7448265  
C   -5.3903261    0.0018074   -2.1493958  
C   -5.3503920    0.0022629   -3.6275664  
N   -4.1243024    0.0018800   -4.0755544  
C   -6.5485025    0.0028436   -4.4210509  
C   -7.7326781    0.0025750   -3.7675500  
O   -8.9284309    0.0030575   -4.3809148  
C   -7.8059015    0.0017431   -2.2766448  
O   -8.9180015    0.0016635   -1.7489582  
C   -6.5627957    0.0012023   -1.4850568  
H   -3.6076320    0.0007784   -0.7395152  
H   -6.4897356    0.0033745   -5.4996865  
H   -9.5790581    0.0026673   -3.6557688  
H   -6.6586513    0.0004892   -0.4075407  
C    1.1243417   -0.0099156    2.2619005  
C    0.7474090   -0.0234034    3.5848544  
C   -0.6787367   -0.0234952    3.6114698  
C   -1.1201739   -0.0099357    2.2635546  
N    0.0000000    0.0000000    1.4700000  
C   -2.4730812   -0.0065396    1.9108239  
C   -3.3971947   -0.0173298    2.9375057  
O   -4.7313508   -0.0149487    2.6493466  
C   -2.9763630   -0.0305536    4.2886322  
O   -4.0166453   -0.0397858    5.1947621  
C   -1.6418541   -0.0336380    4.6373480  
H    1.4178735   -0.0310004    4.4271209  
H   -2.8160170    0.0039190    0.8854031  
H   -5.1938803   -0.0234410    3.4974381  
H   -3.6464643   -0.0484781    6.0827341  
H   -1.3497443   -0.0436789    5.6809233  
H    2.1062470   -0.0051382    1.8205408  
