60

C    3.3003553    0.0005277   -1.4738972  
C    2.5232826    0.0003499   -2.6090734  
C    1.1623211   -0.0001317   -2.1820095  
C    1.1711890    0.0000584   -0.7636139  
N    2.4852302   -0.0014919   -0.3662346  
C    0.0000000    0.0000000    0.0000000  
C   -1.2020381    0.0000521   -0.6806487  
O   -2.3759247    0.0003495    0.0157730  
C   -1.2314647   -0.0005110   -2.0955514  
O   -2.5054374   -0.0008035   -2.6250194  
C   -0.0764503   -0.0007270   -2.8495198  
H    2.8036263    0.0088182    0.5858675  
H   -3.0835633    0.0000349   -0.6418833  
H   -2.4360028   -0.0011526   -3.5845934  
H   -0.1304074   -0.0013418   -3.9319087  
H    4.3715555    0.0004894   -1.3667115  
C    5.8650080   -2.0107117   -4.7661418  
C    5.0212882   -1.6285493   -3.7793960  
C    4.0882060   -0.7127451   -4.4174869  
C    4.5276509   -0.6558962   -5.8282455  
N    5.5687246   -1.4147709   -6.0386380  
C    3.8513830    0.1541356   -6.8037440  
C    2.7843685    0.8743253   -6.3888445  
O    2.0599319    1.6727811   -7.1911545  
C    2.3162665    0.8377519   -4.9719100  
O    1.3381236    1.5190136   -4.6647624  
C    3.0267455   -0.0008949   -3.9901687  
H    5.0308654   -1.9308546   -2.7461506  
H    1.3721631    2.0479798   -6.6120577  
H    6.7017030   -2.6878025   -4.6993397  
C    5.3465622   -3.0125332   -9.4532697  
C    5.5864661   -2.2770635  -10.5693367  
C    5.2247496   -0.9136695  -10.2608677  
C    4.7510780   -0.9151305   -8.8635761  
N    4.8496869   -2.2176251   -8.4315187  
C    4.3180758    0.1850328   -8.1973523  
C    4.3183826    1.4553090   -8.9037045  
O    3.9471620    2.5028262   -8.3906700  
C    4.8156082    1.4801672  -10.3842286  
O    4.8201270    2.5437701  -10.9891999  
C    5.2584597    0.2292323  -10.9948819  
H    5.9725683   -2.6474095  -11.5022796  
H    5.6014357    0.2550203  -12.0202728  
H    5.4907425   -4.0684076   -9.2913090  
H    4.6011041   -2.5406089   -7.5144934  
C    0.0000000    0.0000000    1.4700000  
C    1.0662921    0.0000102    2.3034270  
C    0.4961870   -0.0000064    3.6418889  
C   -0.9663858    0.0000850    3.4240247  
N   -1.2632773    0.0000084    2.1528658  
C   -1.8985362    0.0000517    4.5177257  
C   -1.3925775   -0.0004564    5.7720543  
O   -2.1456383   -0.0005410    6.8851312  
C    0.0786232   -0.0009323    6.0245000  
O    0.4683759   -0.0012588    7.1921102  
C    1.0143166   -0.0008442    4.8859032  
H    2.1107198   -0.0000632    2.0421868  
H   -2.9622183    0.0003270    4.3293377  
H   -1.5042274   -0.0009692    7.6184419  
H    2.0724152   -0.0013148    5.1109744  
