58

C   -3.9687257    2.7672500   -1.3068085  
C   -2.8482502    2.1159987   -1.7123719  
C   -3.2295286    1.2720669   -2.8201812  
C   -4.6743335    1.4865944   -3.0282840  
N   -5.0618044    2.4035750   -2.0785980  
C   -5.4133068    0.8697074   -3.9848786  
C   -4.7408280   -0.0682912   -4.8683195  
O   -5.3190421   -0.6742644   -5.7609363  
C   -3.2111577   -0.3110330   -4.6658591  
O   -2.6342544   -1.0987397   -5.4033969  
C   -2.5226238    0.4130913   -3.6002997  
H   -1.8667032    2.2153157   -1.2842196  
H   -6.4720810    1.0413238   -4.1207266  
H   -5.9945149    2.7560133   -1.9650838  
C    0.0000000    0.0000000    0.0000000  
C   -1.0402957    0.1704629   -0.8560389  
C   -0.5036049    0.0824820   -2.1935954  
C    0.9450184   -0.1549421   -2.0455737  
N    1.1860831   -0.1940122   -0.6915975  
C    1.8105964   -0.2972244   -3.0810616  
C    1.2800867   -0.2105279   -4.4314612  
O    1.9784993   -0.3253122   -5.4301331  
C   -0.2509921    0.0406609   -4.6117574  
O   -0.7090696    0.1158396   -5.7439121  
C   -1.0830566    0.1771994   -3.4189125  
H   -2.0664827    0.3388234   -0.5817975  
H    2.8697198   -0.4709348   -2.9507076  
H    2.0848282   -0.3427820   -0.2706801  
C   -1.2734501    4.6245543    1.7181465  
C   -1.7164638    3.8642587    0.6899105  
C   -3.1368224    4.1620731    0.5879881  
C   -3.3887018    5.1484752    1.6604394  
N   -2.3001086    5.4235294    2.3262466  
C   -4.6941395    5.7021194    1.8936722  
C   -5.7020504    5.2894120    1.0917228  
O   -6.9698552    5.7227476    1.1962773  
C   -5.4795363    4.2954483    0.0005381  
O   -6.4430212    3.9652130   -0.6907374  
C   -4.1313058    3.7421413   -0.2186655  
H   -1.1494104    3.1852668    0.0763174  
H   -4.8495519    6.4211667    2.6847019  
H   -7.4517389    5.2515941    0.4927468  
H   -0.2717083    4.6902565    2.1120632  
C    3.3321173   -0.0004715    2.8079335  
C    2.6974184   -0.0000116    4.0032312  
C    1.2800439    0.0002118    3.6752840  
C    1.2395035   -0.0000644    2.1971295  
N    2.4394063   -0.0005460    1.6831036  
C    0.0000000    0.0000000    1.4700000  
C   -1.1468701   -0.0000635    2.1869543  
O   -2.3742202   -0.0000073    1.6395491  
C   -1.1388768   -0.0001607    3.6796354  
O   -2.2206231   -0.0000905    4.2670412  
C    0.1454524   -0.0001816    4.4024240  
H    3.1367986    0.0000651    4.9860947  
H   -2.9844344   -0.0001026    2.3990168  
H    0.1083576   -0.0003682    5.4835595  
H    4.3940039   -0.0007619    2.6198634  
