60

C   -3.3002205   -0.0299019   -1.4738972  
C   -2.5231801   -0.0228079   -2.6090738  
C   -1.1622769   -0.0102133   -2.1820096  
C   -1.1711424   -0.0104823   -0.7636139  
N   -2.4851454   -0.0206275   -0.3662349  
C    0.0000000    0.0000000    0.0000000  
C    1.2019904    0.0106464   -0.6806491  
O    2.3758334    0.0207970    0.0157732  
C    1.2314107    0.0114715   -2.0955517  
O    2.5053305    0.0231027   -2.6250194  
C    0.0764403    0.0014074   -2.8495195  
H   -2.8034370   -0.0337709    0.5858677  
H    3.0834411    0.0274098   -0.6418835  
H    2.4358956    0.0228335   -3.5845934  
H    0.1303898    0.0025024   -3.9319089  
H   -4.3713785   -0.0393977   -1.3667116  
C   -3.0266341   -0.0260441   -3.9901686  
C   -4.3138277   -0.0375801   -4.4079945  
C   -4.2366310   -0.0353511   -5.8607632  
C   -2.7879630   -0.0214595   -6.1569930  
N   -2.0736861   -0.0160336   -5.0643967  
C   -2.2868059   -0.0154109   -7.5038007  
C   -3.1917273   -0.0232886   -8.5089829  
O   -2.8654564   -0.0189650   -9.8126576  
C   -4.6603411   -0.0377195   -8.2422880  
O   -5.4263915   -0.0441662   -9.2057948  
C   -5.1494512   -0.0436466   -6.8520862  
H   -5.2055717   -0.0465907   -3.8048470  
H   -1.2229836   -0.0050333   -7.6911079  
H   -3.7191916   -0.0268494  -10.2819418  
C   -7.9763458    1.9394355   -4.0341975  
C   -6.8315508    1.5691256   -4.6537901  
C   -7.2515364    0.6477007   -5.6983417  
C   -8.7221477    0.5749661   -5.5619792  
N   -9.1527867    1.3301234   -4.5881837  
C   -9.5267204   -0.2446952   -6.4256375  
C   -8.8910857   -0.9589171   -7.3822937  
O   -9.5163733   -1.7650603   -8.2570445  
C   -7.4082503   -0.9063515   -7.5453823  
O   -6.8969175   -1.5829348   -8.4375672  
C   -6.6050017   -0.0580547   -6.6469899  
H   -5.8262626    1.8826073   -4.4297349  
H  -10.5994524   -0.2789650   -6.3032414  
H   -8.8028056   -2.1330367   -8.8089198  
H   -8.0924598    2.6160935   -3.2025578  
C    0.0000000    0.0000000    1.4700000  
C    1.0662921    0.0000102    2.3034270  
C    0.4961870   -0.0000064    3.6418889  
C   -0.9663858    0.0000850    3.4240247  
N   -1.2632773    0.0000084    2.1528658  
C   -1.8985362    0.0000517    4.5177257  
C   -1.3925775   -0.0004564    5.7720543  
O   -2.1456383   -0.0005410    6.8851312  
C    0.0786232   -0.0009323    6.0245000  
O    0.4683759   -0.0012588    7.1921102  
C    1.0143166   -0.0008442    4.8859032  
H    2.1107198   -0.0000632    2.0421868  
H   -2.9622183    0.0003270    4.3293377  
H   -1.5042274   -0.0009692    7.6184419  
H    2.0724152   -0.0013148    5.1109744  
