60

C    0.0000000    0.0000000    0.0000000  
C    0.8621497    0.6031213   -0.8862343  
C    0.4032859    0.2813405   -2.1979132  
C   -0.7524054   -0.5272325   -2.0478683  
N   -0.9683057   -0.6801648   -0.7007911  
C   -1.4703979   -1.0298385   -3.1372088  
C   -1.0135774   -0.7101231   -4.4010420  
O   -1.6772179   -1.1742570   -5.4997579  
C    0.1378032    0.0949773   -4.5711965  
O    0.4657094    0.3240488   -5.8915550  
C    0.8467704    0.5909314   -3.4969891  
H    1.7173002    1.2004981   -0.6200565  
H   -1.7244247   -1.1967334   -0.2891825  
H   -2.3518927   -1.6467489   -3.0295510  
H   -1.1986111   -0.8397205   -6.2693595  
H    1.2538358    0.8751930   -5.9180047  
C    4.7655181    0.7793126   -1.4710666  
C    3.5001386    0.4582432   -1.8449712  
C    3.1604362    1.3128293   -2.9581290  
C    4.3401017    2.1641756   -3.2038716  
N    5.2777827    1.7913287   -2.2686556  
C    4.4181769    3.1078593   -4.1760189  
C    3.2631954    3.2978709   -5.0376728  
O    3.2351615    4.1224991   -5.9418318  
C    2.0029598    2.4074446   -4.7952825  
O    1.0244141    2.5585815   -5.5142169  
C    2.0381675    1.4237045   -3.7159924  
H    2.8758788   -0.2915423   -1.3924951  
H    5.2930645    3.7216578   -4.3395231  
H    5.3668374    0.3619060   -0.6798167  
C    9.3606548    0.2142189   -1.4276324  
C    8.0252339    0.2681930   -1.6405089  
C    7.7390021    1.6755655   -1.8726156  
C    9.0519402    2.3464451   -1.7599286  
N   10.0063500    1.4948923   -1.4992566  
C    9.1977079    3.7662569   -1.9271791  
C    8.0826025    4.4832162   -2.1952177  
O    8.0717033    5.8149971   -2.3748900  
C    6.7433102    3.8351339   -2.3154016  
O    5.7714099    4.5495435   -2.5608584  
C    6.6198204    2.3771365   -2.1395629  
H    7.3213501   -0.5464380   -1.6401703  
H   10.1693209    4.2300884   -1.8392152  
H    7.1384102    6.0341561   -2.5483460  
H    9.9652653   -0.6539400   -1.2185388  
C    3.1301144    0.0010313    3.1728260  
C    2.5367765    0.0002768    1.9564670  
C    1.1089900   -0.0001027    2.2356185  
C    1.0177864    0.0004150    3.7115134  
N    2.1993570    0.0011613    4.2663826  
C   -0.2459220    0.0002880    4.3957118  
C   -1.3675327    0.0000606    3.6398520  
O   -2.6129319   -0.0000866    4.1448486  
C   -1.3083589   -0.0000910    2.1483229  
O   -2.3693264   -0.0004206    1.5241687  
C    0.0000000    0.0000000    1.4700000  
H    3.0096015    0.0001008    0.9892483  
H   -0.2829642    0.0004689    5.4753125  
H   -3.1967446   -0.0002093    3.3649027  
H    4.1849273    0.0015113    3.3971983  
