58

C   -0.0202922   -0.6967075   -5.1400949  
C   -1.0641734    0.0073898   -4.6315339  
C   -1.6428387    0.7514421   -5.7253202  
C   -0.8448102    0.4207138   -6.9213806  
N    0.1229397   -0.4613331   -6.4990735  
C   -1.0739329    0.9222831   -8.1613948  
C   -2.1802191    1.8499248   -8.3291652  
O   -2.4675345    2.3561930   -9.4059405  
C   -3.0385144    2.2145173   -7.0760864  
O   -3.9723188    2.9946741   -7.2050166  
C   -2.6944049    1.6092961   -5.7918944  
H   -0.4766432    0.6666084   -9.0255627  
H   -3.2937356    1.8667792   -4.9292076  
H    0.6565474   -1.3675747   -4.6363936  
C    1.7964058   -4.5184185   -6.6504276  
C    2.6802357   -4.3590753   -7.6690196  
C    2.5712175   -2.9886516   -8.1104830  
C    1.5440823   -2.3581311   -7.2594679  
N    1.1136867   -3.3386994   -6.3956767  
C    1.1497553   -1.0636057   -7.3615219  
C    1.7788050   -0.2361521   -8.3774701  
O    1.4924366    0.9415744   -8.5485090  
C    2.8689085   -0.8831774   -9.2900711  
O    3.4052797   -0.1964626  -10.1491336  
C    3.2096048   -2.2887063   -9.0844831  
H    3.3338234   -5.1153018   -8.0659550  
H    3.9655255   -2.7290954   -9.7203811  
H    1.5862205   -5.3984758   -6.0645859  
H    0.4131323   -3.2156861   -5.6877656  
C    1.1319248    0.0015675   -0.8009270  
C    0.7969916    0.0034959   -2.1169404  
C   -0.6453336    0.0035703   -2.1842672  
C   -1.1266831    0.0015415   -0.7896027  
N    0.0000000    0.0000000    0.0000000  
C   -2.4346129    0.0013924   -0.4276297  
C   -3.4350110    0.0031352   -1.4820184  
O   -4.6384610    0.0030897   -1.2583919  
C   -2.9478958    0.0050460   -2.9661075  
O   -3.7809377    0.0062160   -3.8623775  
C   -1.5113821    0.0053068   -3.2312125  
H    1.4821240    0.0045436   -2.9459192  
H   -2.7664565    0.0000185    0.6013447  
H    2.1104318    0.0009428   -0.3488058  
C    2.5528530    2.1414826    2.8079335  
C    2.0663498    1.7338582    4.0032312  
C    0.9804344    0.8229586    3.6752840  
C    0.9495562    0.7966882    2.1971295  
N    1.8690446    1.5676019    1.6831036  
C    0.0000000    0.0000000    1.4700000  
C   -0.8785127   -0.7372425    2.1869543  
O   -1.8187535   -1.5261249    1.6395491  
C   -0.8723269   -0.7321790    3.6796354  
O   -1.7010379   -1.4274584    4.2670412  
C    0.1115397    0.0933559    4.4024240  
H    2.4028853    2.0163452    4.9860947  
H   -2.2861435   -1.9184361    2.3990168  
H    0.0832434    0.0693689    5.4835595  
H    3.3664920    2.8238276    2.6198634  
