58

C    4.3630981   -2.0949035   -1.3110652  
C    3.1522514   -1.6320804   -1.7156885  
C    3.3924172   -0.7354492   -2.8216759  
C    4.8529064   -0.7137074   -3.0297343  
N    5.3832064   -1.5581151   -2.0817639  
C    5.4827045    0.0162382   -3.9848458  
C    4.6677381    0.8352842   -4.8666222  
O    5.1406424    1.5283999   -5.7578314  
C    3.1189441    0.8277109   -4.6641777  
O    2.4225428    1.5135515   -5.4003215  
C    2.5562217   -0.0001543   -3.6003001  
H    2.1995747   -1.8892845   -1.2880584  
H    6.5552966    0.0179182   -4.1206905  
H    4.5960549   -2.7827974   -0.5145579  
C    7.3520637   -3.0930102   -1.6278217  
C    8.7054315   -3.0298521   -1.5357248  
C    9.0802818   -1.6567366   -1.7783699  
C    7.8253602   -0.9198170   -2.0210908  
N    6.8148664   -1.8475899   -1.9160712  
C    7.7533041    0.4086130   -2.2890200  
C    8.9945843    1.1628980   -2.3420813  
O    9.0348547    2.3636789   -2.5761832  
C   10.3353688    0.4028039   -2.0883954  
O   11.3868094    1.0272529   -2.1307959  
C   10.2855030   -1.0301239   -1.8089605  
H    9.3657959   -3.8514412   -1.3223599  
H    6.8224282    0.9299420   -2.4639355  
H   11.2182348   -1.5489728   -1.6342319  
H    6.7019554   -3.9446365   -1.5095809  
C    0.0000000    0.0000000    0.0000000  
C    1.0541688   -0.0001719   -0.8560391  
C    0.5103141   -0.0000449   -2.1935955  
C   -0.9576367    0.0002461   -2.0455733  
N   -1.2018459   -0.0001392   -0.6915970  
C   -1.8348306    0.0008319   -3.0810611  
C   -1.2972842    0.0009739   -4.4314605  
O   -2.0050664    0.0014267   -5.4301321  
C    0.2542628    0.0004190   -4.6117571  
O    0.7184677    0.0002263   -5.7439119  
C    1.0974556    0.0000880   -3.4189127  
H    2.0940752   -0.0005479   -0.5817978  
H   -2.9081050    0.0011669   -2.9507065  
H   -2.1128195    0.0014911   -0.2706793  
C    3.1301144    0.0010313    3.1728260  
C    2.5367765    0.0002768    1.9564670  
C    1.1089900   -0.0001027    2.2356185  
C    1.0177864    0.0004150    3.7115134  
N    2.1993570    0.0011613    4.2663826  
C   -0.2459220    0.0002880    4.3957118  
C   -1.3675327    0.0000606    3.6398520  
O   -2.6129319   -0.0000866    4.1448486  
C   -1.3083589   -0.0000910    2.1483229  
O   -2.3693264   -0.0004206    1.5241687  
C    0.0000000    0.0000000    1.4700000  
H    3.0096015    0.0001008    0.9892483  
H   -0.2829642    0.0004689    5.4753125  
H   -3.1967446   -0.0002093    3.3649027  
H    4.1849273    0.0015113    3.3971983  
