58

C    1.0965519    0.0001359   -0.8010306  
C    0.0000000    0.0000000    0.0000000  
C   -1.1546563    0.0001470   -0.8669511  
C   -0.6372013    0.0003523   -2.2486282  
N    0.7342872    0.0007341   -2.1395009  
C   -1.4147734    0.0001358   -3.3608715  
C   -2.8576047   -0.0001043   -3.1854462  
O   -3.6427777   -0.0002487   -4.1244906  
C   -3.4275841   -0.0000724   -1.7311667  
O   -4.6406823    0.0000333   -1.5710060  
C   -2.4891864   -0.0001091   -0.6116749  
H   -1.0150445    0.0001622   -4.3654245  
H   -2.8919117   -0.0002919    0.3920858  
H    2.1388270    0.0000662   -0.5261642  
C    4.6035261   -2.0133271   -3.0543719  
C    3.4786152   -1.6302938   -2.4067307  
C    2.8134675   -0.7139707   -3.3202022  
C    3.6995837   -0.6578057   -4.5026686  
N    4.7504690   -1.4174964   -4.3526668  
C    3.3892458    0.1524703   -5.6481948  
C    2.2454698    0.8735475   -5.6141508  
O    1.8317922    1.6723273   -6.6125811  
C    1.3302972    0.8376807   -4.4354510  
O    0.3062889    1.5197371   -4.4732203  
C    1.6707645   -0.0012339   -3.2725972  
H    3.1417505   -1.9323407   -1.4298139  
H    0.9902138    2.0481781   -6.2969307  
H    5.3691409   -2.6910132   -2.7115176  
C    4.2952826    0.1826680   -6.8053838  
C    5.4614985   -0.4843727   -6.9684045  
C    5.9375832   -0.0910740   -8.2856590  
C    4.9082083    0.8427955   -8.7904950  
N    3.9430778    1.0072326   -7.9270881  
C    5.0118819    1.4633742  -10.0824774  
C    6.0948723    1.1648982  -10.8357244  
O    6.3201115    1.6710069  -12.0601273  
C    7.1510319    0.2264981  -10.3539644  
O    8.1093684    0.0006613  -11.0927538  
C    7.0218277   -0.3973182   -9.0250236  
H    5.9396763   -1.1598081   -6.2797763  
H    4.2446928    2.1417722  -10.4261436  
H    7.1648241    1.2748577  -12.3406251  
H    7.8083069   -1.0712303   -8.7127374  
C    0.0000000    0.0000000    1.4700000  
C    1.0662921    0.0000102    2.3034270  
C    0.4961870   -0.0000064    3.6418889  
C   -0.9663858    0.0000850    3.4240247  
N   -1.2632773    0.0000084    2.1528658  
C   -1.8985362    0.0000517    4.5177257  
C   -1.3925775   -0.0004564    5.7720543  
O   -2.1456383   -0.0005410    6.8851312  
C    0.0786232   -0.0009323    6.0245000  
O    0.4683759   -0.0012588    7.1921102  
C    1.0143166   -0.0008442    4.8859032  
H    2.1107198   -0.0000632    2.0421868  
H   -2.9622183    0.0003270    4.3293377  
H   -1.5042274   -0.0009692    7.6184419  
H    2.0724152   -0.0013148    5.1109744  
