58

C   -1.0965395   -0.0050990   -0.8010311  
C    0.0000000    0.0000000    0.0000000  
C    1.1546455    0.0050791   -0.8669506  
C    0.6371975    0.0025319   -2.2486278  
N   -0.7342757   -0.0040574   -2.1395013  
C    1.4147611    0.0062678   -3.3608708  
C    2.8575760    0.0130382   -3.1854450  
O    3.6427410    0.0167364   -4.1244892  
C    3.4275490    0.0155860   -1.7311656  
O    4.6406359    0.0209708   -1.5710040  
C    2.4891608    0.0113753   -0.6116737  
H    1.0150363    0.0044323   -4.3654240  
H    2.8918810    0.0133809    0.3920873  
H   -2.1388044   -0.0097469   -0.5261651  
C   -1.6707518   -0.0063280   -3.2725976  
C   -3.0235979   -0.0114807   -3.2357233  
C   -3.4368361   -0.0114926   -4.6306192  
C   -2.1706841   -0.0057487   -5.3944319  
N   -1.1320355   -0.0027828   -4.6037428  
C   -2.1489282   -0.0040833   -6.8313070  
C   -3.3380031   -0.0083678   -7.4758356  
O   -3.4666342   -0.0074346   -8.8135555  
C   -4.6328347   -0.0145809   -6.7331827  
O   -5.6770931   -0.0181275   -7.3848972  
C   -4.6287204   -0.0161351   -5.2594442  
H   -3.6622239   -0.0149467   -2.3689930  
H   -4.4281979   -0.0113267   -8.9701850  
H   -5.5876908   -0.0207991   -4.7588613  
C    1.6389087   -2.0970519   -6.0862479  
C    2.3644628   -1.6284399   -7.1341261  
C    1.5051303   -0.7358585   -7.8755320  
C    0.2101868   -0.7227570   -7.1686089  
N    0.3570168   -1.5684286   -6.0933554  
C   -0.8698916    0.0019484   -7.5558266  
C   -0.7489748    0.8237221   -8.7485556  
O   -1.6649457    1.5124763   -9.1785748  
C    0.6131350    0.8248869   -9.5130564  
O    0.7267238    1.5126218  -10.5187299  
C    1.7052594    0.0025393   -8.9984101  
H    3.3851029   -1.8795445   -7.3618406  
H    2.6451733    0.0090717   -9.5334272  
H    1.9327564   -2.7842660   -5.3095368  
H   -0.3564346   -1.7689756   -5.4167351  
C    0.0000000    0.0000000    1.4700000  
C    1.0662921    0.0000102    2.3034270  
C    0.4961870   -0.0000064    3.6418889  
C   -0.9663858    0.0000850    3.4240247  
N   -1.2632773    0.0000084    2.1528658  
C   -1.8985362    0.0000517    4.5177257  
C   -1.3925775   -0.0004564    5.7720543  
O   -2.1456383   -0.0005410    6.8851312  
C    0.0786232   -0.0009323    6.0245000  
O    0.4683759   -0.0012588    7.1921102  
C    1.0143166   -0.0008442    4.8859032  
H    2.1107198   -0.0000632    2.0421868  
H   -2.9622183    0.0003270    4.3293377  
H   -1.5042274   -0.0009692    7.6184419  
H    2.0724152   -0.0013148    5.1109744  
