58

C    1.7704312   -2.0997831   -5.2515186  
C    1.5928584   -1.6333171   -6.5144327  
C    0.4607457   -0.7379010   -6.4771951  
C   -0.0100422   -0.7207978   -5.0790331  
N    0.8257128   -1.5670939   -4.3875231  
C   -1.0641734    0.0073898   -4.6315339  
C   -1.7831602    0.8289563   -5.5910245  
O   -2.7459476    1.5206786   -5.2862920  
C   -1.3021141    0.8259149   -7.0770897  
O   -1.8998120    1.5134382   -7.8939924  
C   -0.1528624    0.0000282   -7.4390076  
H    2.1870130   -1.8876243   -7.3740380  
H    2.5118288   -2.7880443   -4.8793392  
H    0.7607706   -1.7654785   -3.4059561  
C    1.2950663   -3.1969810  -10.1183845  
C    0.8262162   -2.4925380   -9.0563049  
C    0.7053651   -1.1183780   -9.4828196  
C    1.1453686   -1.0797196  -10.8905457  
N    1.4899710   -2.3714819  -11.2153373  
C    1.1787907    0.0409707  -11.6551636  
C    0.7531960    1.2926601  -11.0512777  
O    0.7469194    2.3562675  -11.6570834  
C    0.2835066    1.2751307   -9.5616837  
O   -0.0767941    2.3228934   -9.0424173  
C    0.2914225    0.0049632   -8.8402517  
H    0.5919559   -2.8901314   -8.0848858  
H    1.5048907    0.0476014  -12.6859529  
H    1.5148048   -4.2496883  -10.1919546  
H    1.8287466   -2.6691103  -12.1118278  
C    1.1319248    0.0015675   -0.8009270  
C    0.7969916    0.0034959   -2.1169404  
C   -0.6453336    0.0035703   -2.1842672  
C   -1.1266831    0.0015415   -0.7896027  
N    0.0000000    0.0000000    0.0000000  
C   -2.4346129    0.0013924   -0.4276297  
C   -3.4350110    0.0031352   -1.4820184  
O   -4.6384610    0.0030897   -1.2583919  
C   -2.9478958    0.0050460   -2.9661075  
O   -3.7809377    0.0062160   -3.8623775  
C   -1.5113821    0.0053068   -3.2312125  
H    1.4821240    0.0045436   -2.9459192  
H   -2.7664565    0.0000185    0.6013447  
H    2.1104318    0.0009428   -0.3488058  
C    0.8175213    0.6860729    2.3021913  
C    0.0000000    0.0000000    1.4700000  
C   -0.8887526   -0.7456559    2.3478473  
C   -0.4549825   -0.3816753    3.7138435  
N    0.5448156    0.4573574    3.6934124  
C   -1.0945674   -0.9182058    4.8835240  
C   -2.1210866   -1.7789155    4.6970523  
O   -2.8083856   -2.3554314    5.6976972  
C   -2.5824069   -2.1655116    3.3310774  
O   -3.5227682   -2.9541547    3.2362962  
C   -1.9100805   -1.6015804    2.1470656  
H   -0.7567140   -0.6349833    5.8697035  
H   -3.4728268   -2.9124471    5.2533954  
H   -2.2742832   -1.9066565    1.1752040  
H    1.6189533    1.3585343    2.0405121  
