58

C    3.2573667   -0.0002917   -1.5109387  
C    2.5379466   -0.0001708   -0.3591965  
C    1.1435039    0.0000333   -0.7338496  
C    1.1092602   -0.0000079   -2.2088478  
N    2.4227556    0.0001913   -2.6182614  
C   -0.0265539   -0.0002519   -2.9515658  
C   -1.3003042   -0.0002636   -2.2514974  
O   -2.3786792   -0.0004127   -2.8306423  
C   -1.2877729    0.0000313   -0.6895599  
O   -2.3539955    0.0003308   -0.0892027  
C    0.0000000    0.0000000    0.0000000  
H    2.9384091   -0.0000368    0.6389234  
H   -0.0296299   -0.0004080   -4.0327229  
H    4.3270391   -0.0004762   -1.6439451  
C    5.7040760   -2.1117448   -4.6322123  
C    5.5266106   -1.6490474   -5.8965271  
C    4.3947065   -0.7532596   -5.8619888  
C    3.9239241   -0.7318311   -4.4638842  
N    4.7594826   -1.5762332   -3.7698261  
C    2.8699633   -0.0020522   -4.0185829  
C    2.1511670    0.8167852   -4.9805456  
O    1.1885412    1.5096475   -4.6779003  
C    2.6322106    0.8091512   -6.4665954  
O    2.0346721    1.4943476   -7.2855669  
C    3.7812694   -0.0180907   -6.8260217  
H    6.1207052   -1.9060837   -6.7553617  
H    6.4453131   -2.7990531   -4.2579595  
H    4.6944954   -1.7716423   -2.7876661  
C    5.1830100   -3.2982191   -9.3286963  
C    5.4385711   -2.6727729  -10.5013362  
C    5.1041683   -1.2771594  -10.2627224  
C    4.6509542   -1.2377986   -8.8557278  
N    4.6950578   -2.4195551   -8.3030117  
C    4.2255542   -0.0174839   -8.2272752  
C    4.2520898    1.1122264   -8.9705012  
O    3.8830320    2.3206483   -8.5127308  
C    4.7046464    1.1049878  -10.3929284  
O    4.7027035    2.1704895  -11.0093079  
C    5.1361282   -0.1594791  -11.0149188  
H    5.8084270   -3.1050691  -11.4153396  
H    4.0114524    2.9218991   -9.2684805  
H    5.4569076   -0.1224705  -12.0473729  
H    5.3025587   -4.3439600   -9.0939475  
C    0.0000000    0.0000000    1.4700000  
C    1.0662921    0.0000102    2.3034270  
C    0.4961870   -0.0000064    3.6418889  
C   -0.9663858    0.0000850    3.4240247  
N   -1.2632773    0.0000084    2.1528658  
C   -1.8985362    0.0000517    4.5177257  
C   -1.3925775   -0.0004564    5.7720543  
O   -2.1456383   -0.0005410    6.8851312  
C    0.0786232   -0.0009323    6.0245000  
O    0.4683759   -0.0012588    7.1921102  
C    1.0143166   -0.0008442    4.8859032  
H    2.1107198   -0.0000632    2.0421868  
H   -2.9622183    0.0003270    4.3293377  
H   -1.5042274   -0.0009692    7.6184419  
H    2.0724152   -0.0013148    5.1109744  
