58

C   -2.4827765    2.1086144   -1.5109393  
C   -1.9344689    1.6428641   -0.3591968  
C   -0.8716707    0.7401291   -0.7338500  
C   -0.8455409    0.7179951   -2.2088474  
N   -1.8468970    1.5680281   -2.6182616  
C    0.0204048   -0.0169962   -2.9515657  
C    0.9913432   -0.8414463   -2.2514966  
O    1.8134438   -1.5393313   -2.8306413  
C    0.9816000   -0.8335600   -0.6895596  
O    1.7941464   -1.5239205   -0.0892022  
C    0.0000000    0.0000000    0.0000000  
H   -2.2398128    1.9019692    0.6389226  
H    0.0228505   -0.0188682   -4.0327224  
H   -3.2980274    2.8011208   -1.6439460  
C   -2.9944360    5.2917968   -4.6950698  
C   -2.6271210    4.3716307   -3.7663887  
C   -2.5171246    3.1044899   -4.4498285  
C   -2.8528451    3.3637221   -5.8629388  
N   -3.1328596    4.7082299   -5.9452810  
C   -2.8638898    2.4183452   -6.8365122  
C   -2.5225473    1.0544606   -6.4679475  
O   -2.5040150    0.1319163   -7.2722293  
C   -2.1639332    0.7570748   -4.9770546  
O   -1.8751889   -0.3874979   -4.6548100  
C   -2.1863339    1.8592015   -4.0185833  
H   -2.4532652    4.5591049   -2.7217637  
H   -3.1129550    2.6295687   -7.8671732  
H   -3.3951886    5.1915314   -6.7847154  
C   -3.1382919    7.4266829   -3.3312773  
C   -3.4326289    8.7407953   -3.5060613  
C   -3.7496909    8.9189618   -4.9034028  
C   -3.6150066    7.5914033   -5.5328786  
N   -3.2418554    6.7309589   -4.5262591  
C   -3.8311157    7.3388562   -6.8486373  
C   -4.2222650    8.4486645   -7.7017853  
O   -4.4396184    8.3234105   -8.8998555  
C   -4.3706654    9.8633447   -7.0564475  
O   -4.6991837   10.8054338   -7.7648288  
C   -4.1111102   10.0110272   -5.6265263  
H   -3.4279712    9.4988587   -2.7432160  
H   -3.7269285    6.3575565   -7.2903448  
H   -4.2162648   10.9937863   -5.1873802  
H   -2.8542271    6.9080011   -2.4300748  
C    2.3971438    2.0127888    3.1728260  
C    1.9431056    1.6308205    1.9564670  
C    0.8496017    0.7127664    2.2356185  
C    0.7794028    0.6545384    3.7115134  
N    1.6840587    1.4146091    4.2663826  
C   -0.1885723   -0.1578550    4.3957118  
C   -1.0476298   -0.8789867    3.6398520  
O   -2.0015663   -1.6796266    4.1448486  
C   -1.0022026   -0.8410666    2.1483229  
O   -1.8147390   -1.5232959    1.5241687  
C    0.0000000    0.0000000    1.4700000  
H    2.3054237    1.9346118    0.9892483  
H   -0.2170646   -0.1815267    5.4753125  
H   -2.4487139   -2.0549881    3.3649027  
H    3.2048689    2.6911772    3.3971983  
