62

C   -3.3003308   -0.0121629   -1.4739010  
C   -2.5232623   -0.0092455   -2.6090765  
C   -1.1623112   -0.0039658   -2.1820107  
C   -1.1711803   -0.0041874   -0.7636147  
N   -2.4852194   -0.0072698   -0.3662376  
C    0.0000000    0.0000000    0.0000000  
C    1.2020323    0.0041857   -0.6806468  
O    2.3759119    0.0080268    0.0157763  
C    1.2314571    0.0048526   -2.0955500  
O    2.5054229    0.0096365   -2.6250155  
C    0.0764511    0.0009967   -2.8495191  
H   -2.8919764   -0.0096338   -3.6205321  
H   -2.8035780   -0.0187023    0.5858645  
H    3.0835459    0.0108362   -0.6418796  
H    2.4359887    0.0097408   -3.5845903  
H    0.1304072    0.0018018   -3.9319082  
C   -6.4260389   -0.0257183   -4.5098949  
C   -7.5521987   -0.0295144   -3.7593424  
C   -7.0847699   -0.0267801   -2.3816621  
C   -5.6099337   -0.0213189   -2.4884927  
N   -5.2179277   -0.0205921   -3.7336114  
C   -4.7630180   -0.0172677   -1.3275436  
C   -5.3622243   -0.0182221   -0.1149905  
O   -4.6953486   -0.0148023    1.0517597  
C   -6.8482756   -0.0233185    0.0256712  
O   -7.3250620   -0.0240403    1.1605255  
C   -7.6953354   -0.0274557   -1.1803130  
H   -5.3902864   -0.0165612    1.7345560  
H   -8.7673997   -0.0309758   -1.0357616  
H   -6.3446258   -0.0261375   -5.5852301  
C   -9.4338208   -0.7561438   -5.2883931  
C   -8.9472575   -0.0350493   -4.2226791  
C  -10.0463611    0.6897639   -3.6738470  
C  -11.1874414    0.3681824   -4.4525946  
N  -10.7800173   -0.5105469   -5.4254551  
C  -12.4533749    0.9033820   -4.1961558  
C  -12.5695731    1.7789353   -3.1340438  
O  -13.7827874    2.3304613   -2.8391830  
C  -11.4426325    2.1124061   -2.3456148  
O  -11.7207658    2.9978540   -1.3248465  
C  -10.1933990    1.5850078   -2.5981878  
H  -11.3748728   -0.9223794   -6.1215306  
H  -13.3269804    0.6624109   -4.7860277  
H  -13.6435202    2.9034280   -2.0739517  
H  -10.9069565    3.1701505   -0.8414916  
H   -9.3486879    1.8591890   -1.9770871  
H   -8.9268140   -1.4251145   -5.9624715  
C    0.8175213    0.6860729    2.3021913  
C    0.0000000    0.0000000    1.4700000  
C   -0.8887526   -0.7456559    2.3478473  
C   -0.4549825   -0.3816753    3.7138435  
N    0.5448156    0.4573574    3.6934124  
C   -1.0945674   -0.9182058    4.8835240  
C   -2.1210866   -1.7789155    4.6970523  
O   -2.8083856   -2.3554314    5.6976972  
C   -2.5824069   -2.1655116    3.3310774  
O   -3.5227682   -2.9541547    3.2362962  
C   -1.9100805   -1.6015804    2.1470656  
H   -0.7567140   -0.6349833    5.8697035  
H   -3.4728268   -2.9124471    5.2533954  
H   -2.2742832   -1.9066565    1.1752040  
H    1.6189533    1.3585343    2.0405121  
