62

C    3.3041272    0.0001177   -1.5420434  
C    2.5845370   -0.0004780   -0.3695851  
C    1.2040004   -0.0000009   -0.7283586  
C    1.1422373    0.0006035   -2.1454377  
N    2.4348637    0.0026107   -2.6077466  
C   -0.0655184    0.0008795   -2.8497920  
C   -1.2321773    0.0002321   -2.1101396  
O   -2.4392818    0.0001142   -2.7472517  
C   -1.1911213   -0.0000008   -0.6955263  
O   -2.4371528   -0.0002322   -0.1032857  
C    0.0000000    0.0000000    0.0000000  
H    3.0031534   -0.0000660    0.6222583  
H   -0.1193551    0.0014839   -3.9297468  
H   -3.1132995   -0.0000650   -2.0551788  
H   -2.3200282   -0.0004072    0.8516412  
H    4.3686622    0.0004073   -1.7024294  
C    5.6928652   -2.1325520   -4.8023231  
C    4.8437654   -1.6629839   -3.8271294  
C    3.9187210   -0.7861193   -4.4674434  
C    4.2553071   -0.7600055   -5.8451058  
N    5.3381028   -1.5868707   -6.0138198  
C    3.5511949    0.0032252   -6.7813181  
C    2.4877422    0.7535302   -6.3184054  
O    1.7657453    1.5166936   -7.1897919  
C    2.1367186    0.7408777   -4.9474784  
O    1.0544921    1.5406693   -4.6434021  
C    2.8310660   -0.0116222   -4.0232754  
H    4.8866013   -1.9198940   -2.7825456  
H    5.7930173   -1.7762038   -6.8885700  
H    1.0801159    1.9528830   -6.6673787  
H    0.8837164    1.4751238   -3.6988685  
H    6.5243667   -2.8124293   -4.7293100  
C    4.8083631   -3.2098344   -9.4427597  
C    4.9711089   -2.5589578  -10.6181115  
C    4.6379318   -1.1727382  -10.3284771  
C    4.2869243   -1.1660805   -8.8920465  
N    4.3850616   -2.3573652   -8.3674514  
C    3.8932280    0.0362953   -8.2105903  
C    3.8524309    1.1800993   -8.9312723  
O    3.5027608    2.3745699   -8.4243093  
C    4.2012819    1.2058378  -10.3824107  
O    4.1420072    2.2826703  -10.9758244  
C    4.6020434   -0.0407184  -11.0587325  
H    5.2792871   -2.9688824  -11.5647188  
H    3.5690638    2.9916677   -9.1752737  
H    4.8470587    0.0201109  -12.1106356  
H    4.9571680   -4.2581159   -9.2379753  
C    2.5528530    2.1414826    2.8079335  
C    2.0663498    1.7338582    4.0032312  
C    0.9804344    0.8229586    3.6752840  
C    0.9495562    0.7966882    2.1971295  
N    1.8690446    1.5676019    1.6831036  
C    0.0000000    0.0000000    1.4700000  
C   -0.8785127   -0.7372425    2.1869543  
O   -1.8187535   -1.5261249    1.6395491  
C   -0.8723269   -0.7321790    3.6796354  
O   -1.7010379   -1.4274584    4.2670412  
C    0.1115397    0.0933559    4.4024240  
H    2.4028853    2.0163452    4.9860947  
H   -2.2861435   -1.9184361    2.3990168  
H    0.0832434    0.0693689    5.4835595  
H    3.3664920    2.8238276    2.6198634  
