62

C    3.3003567    0.0005272   -1.4738957  
C    2.5232846    0.0003491   -2.6090726  
C    1.1623230   -0.0001323   -2.1820094  
C    1.1711899    0.0000580   -0.7636134  
N    2.4852310   -0.0014922   -0.3662337  
C    0.0000000    0.0000000    0.0000000  
C   -1.2020371    0.0000517   -0.6806503  
O   -2.3759245    0.0003494    0.0157716  
C   -1.2314628   -0.0005116   -2.0955523  
O   -2.5054357   -0.0008042   -2.6250211  
C   -0.0764485   -0.0007278   -2.8495199  
H    2.8036265    0.0088179    0.5858688  
H   -3.0835627    0.0000348   -0.6418851  
H   -2.4360002   -0.0011535   -3.5845952  
H   -0.1304048   -0.0013427   -3.9319090  
H    4.3715568    0.0004891   -1.3667094  
C    5.9080493   -2.1212801   -4.5066860  
C    5.7372550   -1.6233291   -5.7776467  
C    4.6108351   -0.7493055   -5.7345029  
C    4.1315455   -0.7536537   -4.3995168  
N    4.9405926   -1.5984042   -3.6808671  
C    3.0267482   -0.0008959   -3.9901674  
C    2.3944545    0.7705355   -4.9458218  
O    1.3109418    1.5252422   -4.6002321  
C    2.8575206    0.7878042   -6.2830161  
O    2.1214491    1.6052977   -7.1156306  
C    3.9472040    0.0452315   -6.6876180  
H    4.8499668   -1.7941743   -2.7003354  
H    1.0265095    1.9789010   -5.4043196  
H    2.4998764    1.5596259   -7.9989825  
H    4.2786944    0.0784961   -7.7188729  
H    6.6425573   -2.8091606   -4.1242236  
C    6.5719999   -1.9487844   -6.9430568  
C    7.6416439   -2.7761409   -6.9971061  
C    8.0828398   -2.7287650   -8.3826031  
C    7.1410407   -1.7988671   -9.0420636  
N    6.2532013   -1.3383910   -8.2032008  
C    7.2407631   -1.4790243  -10.4395045  
C    8.2363324   -2.0613656  -11.1459447  
O    8.4472552   -1.8537404  -12.4568393  
C    9.2028264   -3.0038265  -10.5089069  
O   10.0840471   -3.4970510  -11.2127538  
C    9.0795581   -3.3159073   -9.0738687  
H    8.0774993   -3.3478952   -6.1957304  
H    6.5386945   -0.7962707  -10.8954171  
H    9.2226733   -2.4024496  -12.6731669  
H    9.7994530   -4.0032669   -8.6501732  
C    0.0000000    0.0000000    1.4700000  
C    1.0662921    0.0000102    2.3034270  
C    0.4961870   -0.0000064    3.6418889  
C   -0.9663858    0.0000850    3.4240247  
N   -1.2632773    0.0000084    2.1528658  
C   -1.8985362    0.0000517    4.5177257  
C   -1.3925775   -0.0004564    5.7720543  
O   -2.1456383   -0.0005410    6.8851312  
C    0.0786232   -0.0009323    6.0245000  
O    0.4683759   -0.0012588    7.1921102  
C    1.0143166   -0.0008442    4.8859032  
H    2.1107198   -0.0000632    2.0421868  
H   -2.9622183    0.0003270    4.3293377  
H   -1.5042274   -0.0009692    7.6184419  
H    2.0724152   -0.0013148    5.1109744  
