64

C    4.3172181   -2.1276217   -1.4346664  
C    5.3517546   -1.6299846   -2.1926633  
C    4.7753703   -0.7549588   -3.1605016  
C    3.3738274   -0.7584003   -2.9423468  
N    3.1294631   -1.6035969   -1.8885224  
C    2.4861704   -0.0045255   -3.7159919  
C    3.0231749    0.7671113   -4.7281088  
O    2.2016884    1.5228926   -5.5135825  
C    4.4189003    0.7834865   -4.9615571  
O    4.7982356    1.6013206   -6.0058726  
C    5.2951627    0.0398120   -4.1989043  
H    2.2250239   -1.7989300   -1.4988869  
H    2.7718802    1.9765073   -6.1479163  
H    5.7549254    1.5549953   -6.0964452  
H    6.3593041    0.0724103   -4.4014329  
H    4.3324687   -2.8160058   -0.6071078  
C    7.4057369   -5.4336943   -1.2589461  
C    8.6914253   -4.9443412   -1.2612994  
C    8.6059504   -3.5507030   -1.5529626  
C    7.2311943   -3.2439830   -1.7199790  
N    6.5302931   -4.4100699   -1.5366852  
C    6.7742989   -1.9565961   -2.0177545  
C    7.7224613   -0.9606380   -2.1490248  
O    7.3312124    0.3144660   -2.4389343  
C    9.0988170   -1.2470358   -1.9864198  
O    9.9180292   -0.1489043   -2.1487201  
C    9.5502932   -2.5168981   -1.6929166  
H    9.5814971   -5.5211387   -1.0767182  
H    5.5314804   -4.5003348   -1.5836616  
H    8.1380851    0.8436245   -2.4859760  
H   10.8299302   -0.4284422   -2.0226219  
H   10.6107813   -2.7060161   -1.5742590  
H    7.0440332   -6.4321980   -1.0825375  
C    0.0000000    0.0000000    0.0000000  
C    1.0521669   -0.0011848   -0.8862341  
C    0.4917221   -0.0011931   -2.1979130  
C   -0.9187427    0.0003100   -2.0478683  
N   -1.1833170   -0.0009472   -0.7007915  
C   -1.7951698    0.0010259   -3.1372090  
C   -1.2375835    0.0005161   -4.4010425  
O   -2.0474208    0.0015256   -5.4997580  
C    0.1673584   -0.0013557   -4.5711962  
O    0.5673529   -0.0020659   -5.8915551  
C    1.0325773   -0.0023359   -3.4969890  
H    2.0953059   -0.0030542   -0.6200560  
H   -2.0989777    0.0102265   -0.2891825  
H   -2.8710930    0.0020274   -3.0295514  
H   -1.4634881    0.0006427   -6.2693593  
H    1.5290715   -0.0033076   -5.9180042  
C    0.0000000    0.0000000    1.4700000  
C    1.0662921    0.0000102    2.3034270  
C    0.4961870   -0.0000064    3.6418889  
C   -0.9663858    0.0000850    3.4240247  
N   -1.2632773    0.0000084    2.1528658  
C   -1.8985362    0.0000517    4.5177257  
C   -1.3925775   -0.0004564    5.7720543  
O   -2.1456383   -0.0005410    6.8851312  
C    0.0786232   -0.0009323    6.0245000  
O    0.4683759   -0.0012588    7.1921102  
C    1.0143166   -0.0008442    4.8859032  
H    2.1107198   -0.0000632    2.0421868  
H   -2.9622183    0.0003270    4.3293377  
H   -1.5042274   -0.0009692    7.6184419  
H    2.0724152   -0.0013148    5.1109744  
