62

C   -3.3003507   -0.0046233   -1.4738999  
C   -2.5232777   -0.0034810   -2.6090754  
C   -1.1623179   -0.0013105   -2.1820103  
C   -1.1711875   -0.0015117   -0.7636142  
N   -2.4852294   -0.0015923   -0.3662368  
C    0.0000000    0.0000000    0.0000000  
C    1.2020372    0.0014398   -0.6806473  
O    2.3759236    0.0025991    0.0157760  
C    1.2314650    0.0020395   -2.0955499  
O    2.5054370    0.0039130   -2.6250164  
C    0.0764527    0.0008222   -2.8495192  
H   -2.8919920   -0.0030269   -3.6205312  
H   -2.8036133   -0.0122975    0.5858650  
H    3.0835619    0.0037920   -0.6418800  
H    2.4360041    0.0041759   -3.5845909  
H    0.1304093    0.0015041   -3.9319081  
C   -4.7630454   -0.0063865   -1.3275424  
C   -5.6984925   -0.0085222   -2.3055572  
C   -6.9735426   -0.0095091   -1.6050234  
C   -6.6111439   -0.0077949   -0.1714096  
N   -5.3167438   -0.0058802   -0.0025540  
C   -7.6066031   -0.0080893    0.8650009  
C   -8.9050738   -0.0096198    0.4864412  
O   -9.9376437   -0.0100753    1.3465810  
C   -9.3027411   -0.0110001   -0.9523152  
O  -10.5033536   -0.0124856   -1.2238806  
C   -8.2629618   -0.0107105   -1.9967212  
H   -5.5425360   -0.0092382   -3.3708048  
H   -7.3132489   -0.0070155    1.9046411  
H  -10.7311708   -0.0112039    0.7813678  
C   -6.7670492   -2.1355271   -5.6349980  
C   -6.9359650   -1.6727729   -4.3505554  
C   -8.0529776   -0.7859448   -4.3710245  
C   -8.5290781   -0.7470093   -5.7065919  
N   -7.7246827   -1.5761613   -6.4482607  
C   -9.6252433    0.0283883   -6.0964230  
C  -10.2523974    0.7779040   -5.1201642  
O  -11.3278589    1.5526390   -5.4460182  
C   -9.7919415    0.7525523   -3.7821974  
O  -10.5216738    1.5532459   -2.9279586  
C   -8.7104409   -0.0119559   -3.3969575  
H   -6.3281079   -1.9405084   -3.5033123  
H   -7.8273277   -1.7582458   -7.4302436  
H   -9.9929322    0.0625180   -7.1127112  
H  -11.6094760    1.9860322   -4.6298522  
H  -10.1455676    1.4786876   -2.0455817  
H   -6.0383530   -2.8192290   -6.0356392  
C    2.5528530    2.1414826    2.8079335  
C    2.0663498    1.7338582    4.0032312  
C    0.9804344    0.8229586    3.6752840  
C    0.9495562    0.7966882    2.1971295  
N    1.8690446    1.5676019    1.6831036  
C    0.0000000    0.0000000    1.4700000  
C   -0.8785127   -0.7372425    2.1869543  
O   -1.8187535   -1.5261249    1.6395491  
C   -0.8723269   -0.7321790    3.6796354  
O   -1.7010379   -1.4274584    4.2670412  
C    0.1115397    0.0933559    4.4024240  
H    2.4028853    2.0163452    4.9860947  
H   -2.2861435   -1.9184361    2.3990168  
H    0.0832434    0.0693689    5.4835595  
H    3.3664920    2.8238276    2.6198634  
