60

C    3.3003545    0.0005278   -1.4738994  
C    2.5232810    0.0003500   -2.6090750  
C    1.1623198   -0.0001317   -2.1820102  
C    1.1711882    0.0000584   -0.7636141  
N    2.4852299   -0.0014919   -0.3662360  
C    0.0000000    0.0000000    0.0000000  
C   -1.2020384    0.0000520   -0.6806479  
O   -2.3759251    0.0003495    0.0157749  
C   -1.2314659   -0.0005110   -2.0955508  
O   -2.5054390   -0.0008034   -2.6250179  
C   -0.0764518   -0.0007269   -2.8495192  
H    2.8919952   -0.0005616   -3.6205303  
H    2.8036266    0.0088181    0.5858654  
H   -3.0835638    0.0000348   -0.6418815  
H   -2.4360052   -0.0011524   -3.5845917  
H    4.3715548    0.0004896   -1.3667140  
C    2.1623910   -2.0122254   -6.1367518  
C    1.7689756   -1.6301523   -4.8994875  
C    0.6617230   -0.7136662   -5.1243082  
C    0.5180513   -0.6563659   -6.5949062  
N    1.3949574   -1.4155852   -7.1937485  
C   -0.4838563    0.1543916   -7.2304692  
C   -1.3051623    0.8748445   -6.4331366  
O   -2.2841110    1.6739683   -6.8904132  
C   -1.1854796    0.8378292   -4.9457004  
O   -1.9668285    1.5193652   -4.2822073  
C   -0.1496419   -0.0015607   -4.3176961  
H    2.1794005   -1.9329281   -3.9513552  
H   -2.6923642    2.0491960   -6.0893597  
H    2.9588345   -2.6896999   -6.4007216  
C   -0.5957701    0.1857209   -8.6958683  
C    0.1550850   -0.4806109   -9.6035008  
C   -0.3821849   -0.0863178  -10.8967038  
C   -1.4826031    0.8472916  -10.5741558  
N   -1.6125102    1.0107315   -9.2855910  
C   -2.2777172    1.4686535  -11.5972824  
C   -1.9864924    1.1711750  -12.8841515  
O   -2.6462805    1.6780930  -13.9394974  
C   -0.8818714    0.2330620  -13.2418065  
O   -0.6729059    0.0081487  -14.4338502  
C   -0.0806688   -0.3915717  -12.1741777  
H    0.9726354   -1.1561815   -9.4183208  
H   -3.0758703    2.1468393  -11.3328492  
H   -2.2119980    1.2825488  -14.7167336  
H    0.7105526   -1.0652438  -12.4747843  
C    2.3971438    2.0127888    3.1728260  
C    1.9431056    1.6308205    1.9564670  
C    0.8496017    0.7127664    2.2356185  
C    0.7794028    0.6545384    3.7115134  
N    1.6840587    1.4146091    4.2663826  
C   -0.1885723   -0.1578550    4.3957118  
C   -1.0476298   -0.8789867    3.6398520  
O   -2.0015663   -1.6796266    4.1448486  
C   -1.0022026   -0.8410666    2.1483229  
O   -1.8147390   -1.5232959    1.5241687  
C    0.0000000    0.0000000    1.4700000  
H    2.3054237    1.9346118    0.9892483  
H   -0.2170646   -0.1815267    5.4753125  
H   -2.4487139   -2.0549881    3.3649027  
H    3.2048689    2.6911772    3.3971983  
