62

C   -3.3003534   -0.0019571   -1.4738997  
C   -2.5232800   -0.0014426   -2.6090754  
C   -1.1623191   -0.0003716   -2.1820105  
C   -1.1711883   -0.0005657   -0.7636148  
N   -2.4852303    0.0004155   -0.3662366  
C    0.0000000    0.0000000    0.0000000  
C    1.2020383    0.0004686   -0.6806474  
O    2.3759246    0.0006796    0.0157751  
C    1.2314657    0.0010445   -2.0955506  
O    2.5054393    0.0018888   -2.6250173  
C    0.0764524    0.0007603   -2.8495195  
H   -2.8919944   -0.0006907   -3.6205308  
H   -2.8036227   -0.0100325    0.5858653  
H    3.0835639    0.0013008   -0.6418809  
H    2.4360053    0.0022078   -3.5845915  
H    0.1304103    0.0013985   -3.9319085  
C   -6.5907937   -0.0032669   -4.4182898  
C   -5.3731470   -0.0027260   -3.8171153  
C   -5.6071039   -0.0027392   -2.3922996  
C   -7.0713629   -0.0033658   -2.2113705  
N   -7.6095186   -0.0032635   -3.4775771  
C   -7.6973056   -0.0039599   -1.0072526  
C   -6.8738973   -0.0037578    0.1904672  
O   -7.3427974   -0.0041896    1.3211458  
C   -5.3209686   -0.0028441    0.0224871  
O   -4.6174380   -0.0023600    1.0236391  
C   -4.7630494   -0.0025387   -1.3275417  
H   -4.4198578   -0.0021770   -4.3149638  
H   -8.7727842   -0.0045440   -0.8965487  
H   -8.5911142   -0.0051581   -3.6861757  
C   -6.0028186   -0.0025967   -6.8801533  
C   -6.9165194   -0.0035180   -5.8517483  
C   -8.2129464   -0.0030149   -6.4466235  
C   -8.0257196   -0.0020598   -7.8526364  
N   -6.6721284    0.0001222   -8.0815548  
C   -9.0915445   -0.0016637   -8.7575157  
C  -10.3696565   -0.0025493   -8.2334868  
O  -11.4466111   -0.0025637   -9.0720480  
C  -10.5768396   -0.0031333   -6.8335251  
O  -11.9072975   -0.0035696   -6.4685251  
C   -9.5258474   -0.0032512   -5.9402498  
H   -6.2364867   -0.0093450   -8.9860482  
H   -8.9555216   -0.0007923   -9.8302214  
H  -12.2313593   -0.0029469   -8.5086337  
H  -11.9591255   -0.0039775   -5.5078393  
H   -9.7155373   -0.0035215   -4.8732461  
H   -4.9266439   -0.0022182   -6.8517336  
C    0.8175213    0.6860729    2.3021913  
C    0.0000000    0.0000000    1.4700000  
C   -0.8887526   -0.7456559    2.3478473  
C   -0.4549825   -0.3816753    3.7138435  
N    0.5448156    0.4573574    3.6934124  
C   -1.0945674   -0.9182058    4.8835240  
C   -2.1210866   -1.7789155    4.6970523  
O   -2.8083856   -2.3554314    5.6976972  
C   -2.5824069   -2.1655116    3.3310774  
O   -3.5227682   -2.9541547    3.2362962  
C   -1.9100805   -1.6015804    2.1470656  
H   -0.7567140   -0.6349833    5.8697035  
H   -3.4728268   -2.9124471    5.2533954  
H   -2.2742832   -1.9066565    1.1752040  
H    1.6189533    1.3585343    2.0405121  
