58

C    1.0965507    0.0001360   -0.8010309  
C    0.0000000    0.0000000    0.0000000  
C   -1.1546572    0.0001472   -0.8669503  
C   -0.6372031    0.0003523   -2.2486274  
N    0.7342855    0.0007340   -2.1395013  
C   -1.4147764    0.0001358   -3.3608705  
C   -2.8576071   -0.0001044   -3.1854441  
O   -3.6427811   -0.0002486   -4.1244878  
C   -3.4275854   -0.0000723   -1.7311640  
O   -4.6406843    0.0000336   -1.5710024  
C   -2.4891876   -0.0001087   -0.6116728  
H   -2.8919122   -0.0002917    0.3920886  
H    2.1388265    0.0000661   -0.5261655  
H    1.3735848   -0.0006094   -2.9130268  
C    0.1963015   -0.6854849   -5.1975721  
C   -0.8712860    0.0001716   -4.7267101  
C   -1.3728473    0.7454188   -5.8710631  
C   -0.4646078    0.3816815   -6.9798373  
N    0.4571785   -0.4568678   -6.5910760  
C   -0.6266637    0.9179306   -8.3031894  
C   -1.6497838    1.7781387   -8.5095914  
O   -1.9186872    2.3543459   -9.6935323  
C   -2.5836238    2.1644782   -7.4110262  
O   -3.4927578    2.9526636   -7.6707558  
C   -2.3964323    1.6008435   -6.0622488  
H   -2.7005711    2.9110291   -9.5264578  
H   -3.0942865    1.9057194   -5.2939518  
H    0.8445063   -1.3575647   -4.6580233  
C    0.2968603    0.5327729   -9.3800634  
C    1.3528754   -0.3107660   -9.3104047  
C    1.9091048   -0.3271959  -10.6545916  
C    1.0418827    0.5873185  -11.4280085  
N    0.0950818    1.0945024  -10.6861721  
C    1.2635742    0.8472979  -12.8238421  
C    2.3045422    0.2223964  -13.4198427  
O    2.6278606    0.3723385  -14.7156143  
C    3.1980280   -0.7059428  -12.6661644  
O    4.1263829   -1.2401309  -13.2728114  
C    2.9498673   -0.9562780  -11.2351953  
H    1.7103018   -0.8546061   -8.4527567  
H    0.6139354    1.5200798  -13.3644370  
H    3.4090874   -0.1955264  -14.8435473  
H    3.6198804   -1.6352483  -10.7249875  
C    0.0000000    0.0000000    1.4700000  
C    1.0662921    0.0000102    2.3034270  
C    0.4961870   -0.0000064    3.6418889  
C   -0.9663858    0.0000850    3.4240247  
N   -1.2632773    0.0000084    2.1528658  
C   -1.8985362    0.0000517    4.5177257  
C   -1.3925775   -0.0004564    5.7720543  
O   -2.1456383   -0.0005410    6.8851312  
C    0.0786232   -0.0009323    6.0245000  
O    0.4683759   -0.0012588    7.1921102  
C    1.0143166   -0.0008442    4.8859032  
H    2.1107198   -0.0000632    2.0421868  
H   -2.9622183    0.0003270    4.3293377  
H   -1.5042274   -0.0009692    7.6184419  
H    2.0724152   -0.0013148    5.1109744  
