62

C    0.0000000    0.0000000    0.0000000  
C    1.0521664   -0.0011921   -0.8862344  
C    0.4917216   -0.0011967   -2.1979133  
C   -0.9187430    0.0003161   -2.0478681  
N   -1.1833168   -0.0009394   -0.7007912  
C   -1.7951703    0.0010378   -3.1372090  
C   -1.2375839    0.0005241   -4.4010423  
O   -2.0474218    0.0015389   -5.4997578  
C    0.1673581   -0.0013572   -4.5711965  
O    0.5673522   -0.0020702   -5.8915550  
C    1.0325771   -0.0023434   -3.4969894  
H    2.0953055   -0.0030685   -0.6200562  
H   -2.0989775    0.0102406   -0.2891824  
H   -1.4634887    0.0006520   -6.2693594  
H    1.5290703   -0.0033183   -5.9180043  
H    2.1042146   -0.0039647   -3.6584458  
C   -4.5382392    2.1273517   -0.3186953  
C   -3.4269627    1.6642271   -0.9843129  
C   -3.8900492    0.7769120   -2.0005917  
C   -5.3047959    0.7380749   -1.9061943  
N   -5.6653122    1.5677519   -0.8735855  
C   -6.0984767   -0.0377155   -2.7564929  
C   -5.4522261   -0.7877327   -3.7198273  
O   -6.1789733   -1.5628659   -4.5765769  
C   -4.0415011   -0.7624869   -3.8295262  
O   -3.5480044   -1.5636985   -4.8384183  
C   -3.2578654    0.0024088   -2.9908507  
H   -2.4078412    1.9320349   -0.7637137  
H   -7.1771659   -0.0717731   -2.6896192  
H   -5.5421648   -1.9965717   -5.1593627  
H   -2.5888302   -1.4891782   -4.8443296  
H   -4.6159757    2.8114668    0.5088931  
C   -7.0442502    1.8346196   -0.4397509  
C   -7.4611437    2.6457366    0.5601828  
C   -8.9117915    2.5359387    0.5520866  
C   -9.2079482    1.5914374   -0.5464544  
N   -8.1171318    1.1768969   -1.1314884  
C  -10.5528954    1.2131636   -0.8827772  
C  -11.5563451    1.7535696   -0.1545032  
O  -12.8581772    1.4895923   -0.3584405  
C  -11.2896547    2.7093940    0.9605916  
O  -12.2515364    3.1622890    1.5809871  
C   -9.9013840    3.0817515    1.2861348  
H   -6.8586600    3.2445317    1.2216462  
H  -10.7402035    0.5209820   -1.6906817  
H  -13.3265354    2.0192883    0.3117948  
H   -9.7503858    3.7769884    2.1010426  
C    1.0672568    0.0000697    2.3021913  
C    0.0000000    0.0000000    1.4700000  
C   -1.1601224    0.0000736    2.3478473  
C   -0.5938729    0.0000769    3.7138435  
N    0.7113367    0.0001554    3.6934124  
C   -1.4286986    0.0001879    4.8835240  
C   -2.7683114    0.0006799    4.6970523  
O   -3.6653903    0.0008304    5.6976972  
C   -3.3702025    0.0010610    3.3310774  
O   -4.5974910    0.0013779    3.2362962  
C   -2.4926826    0.0008943    2.1470656  
H   -0.9878360   -0.0000190    5.8697035  
H   -4.5324246    0.0012261    5.2533954  
H   -2.9677772    0.0012974    1.1752040  
H    2.1134392    0.0000545    2.0405121  
