60

C    1.1243397    0.0100937   -0.7919009  
C    0.7474045    0.0235218   -2.1148549  
C   -0.6787417    0.0233877   -2.1414696  
C   -1.1201757    0.0097582   -0.7935545  
N    0.0000000    0.0000000    0.0000000  
C   -2.4730825    0.0061478   -0.4408231  
C   -3.3971981    0.0167918   -1.4675049  
O   -4.7313537    0.0141995   -1.1793454  
C   -2.9763690    0.0300823   -2.8186313  
O   -4.0166530    0.0391497   -3.7247607  
C   -1.6418606    0.0333780   -3.1673476  
H   -2.8160158   -0.0043650    0.5845975  
H   -5.1938846    0.0226184   -2.0274359  
H   -3.6464738    0.0479005   -4.6127329  
H   -1.3497530    0.0434651   -4.2109229  
H    2.1062456    0.0054718   -0.3505416  
C    4.4934821   -2.1123067   -2.7414620  
C    4.8572484   -1.6933781   -3.9758655  
C    3.8033888   -0.7786837   -4.3872213  
C    2.8586651   -0.7628154   -3.2497550  
N    3.2579484   -1.5426072   -2.2820324  
C    1.6628904    0.0340401   -3.2649308  
C    1.4220460    0.7813811   -4.3662071  
O    0.3454885    1.5716640   -4.5162632  
C    2.3564972    0.7869632   -5.5302220  
O    2.0739375    1.4911325   -6.4995139  
C    3.5764129   -0.0389641   -5.4905469  
H    0.4527831    1.9720528   -5.3979261  
H    4.2275831   -0.0070812   -6.3537916  
H    5.0129474   -2.8005988   -2.0938643  
C    6.9082486   -5.5441222   -4.4743694  
C    7.9143845   -5.1575463   -5.3003989  
C    7.7437784   -3.7436934   -5.5386194  
C    6.5472119   -3.3353253   -4.7781887  
N    6.0875555   -4.4728650   -4.1556065  
C    6.0525417   -2.0720835   -4.7431706  
C    6.7447064   -1.0462485   -5.5054735  
O    6.3775149    0.1209717   -5.5381652  
C    8.0139426   -1.4563012   -6.3183095  
O    8.6048297   -0.6013213   -6.9641590  
C    8.4508935   -2.8496078   -6.2780359  
H    8.6876979   -5.7906211   -5.6976597  
H    9.3307079   -3.1252969   -6.8434085  
H    6.6971452   -6.5215162   -4.0718444  
H    5.2813826   -4.5175214   -3.5596708  
C    0.8175213    0.6860729    2.3021913  
C    0.0000000    0.0000000    1.4700000  
C   -0.8887526   -0.7456559    2.3478473  
C   -0.4549825   -0.3816753    3.7138435  
N    0.5448156    0.4573574    3.6934124  
C   -1.0945674   -0.9182058    4.8835240  
C   -2.1210866   -1.7789155    4.6970523  
O   -2.8083856   -2.3554314    5.6976972  
C   -2.5824069   -2.1655116    3.3310774  
O   -3.5227682   -2.9541547    3.2362962  
C   -1.9100805   -1.6015804    2.1470656  
H   -0.7567140   -0.6349833    5.8697035  
H   -3.4728268   -2.9124471    5.2533954  
H   -2.2742832   -1.9066565    1.1752040  
H    1.6189533    1.3585343    2.0405121  
