58

C   -1.4376645    2.9479257   -1.4499647  
C   -1.1209701    2.2983171   -2.5996552  
C   -0.5100653    1.0460076   -2.2210362  
C   -0.4967420    1.0190751   -0.7459469  
N   -1.0726836    2.2008573   -0.3402715  
C    0.0000000    0.0000000    0.0000000  
C    0.5590157   -1.1467374   -0.6964417  
O    1.0308522   -2.1145712   -0.1142320  
C    0.5555338   -1.1394373   -2.2584080  
O    1.0237653   -2.0992433   -2.8557298  
C   -0.0081141    0.0162431   -2.9516297  
H   -0.0069058    0.0134090   -4.0331632  
H   -1.9067820    3.9096574   -1.3200018  
H   -1.2089282    2.4771006    0.6148067  
C   -0.8082768    6.2381431   -4.6598579  
C   -0.7684355    5.2870787   -3.6978450  
C   -1.1907428    4.0636489   -4.3622061  
C   -1.4534776    4.4699317   -5.7595206  
N   -1.2309337    5.7434628   -5.9400249  
C   -1.8978907    3.5323188   -6.7537369  
C   -2.0715508    2.2471684   -6.3695952  
O   -2.4821131    1.2668866   -7.1921083  
C   -1.8143855    1.8060886   -4.9669278  
O   -1.9934856    0.6206333   -4.6879306  
C   -1.3591784    2.7868243   -3.9654949  
H   -0.4871170    5.4015857   -2.6649734  
H   -2.0824373    3.8569043   -7.7673918  
H   -2.5098773    0.4695056   -6.6330324  
C    0.5323809    8.5203799   -1.1984236  
C    0.6662632    9.7651752   -1.7123679  
C    0.2907722    9.6355166   -3.1119015  
C   -0.0503829    8.2060142   -3.2753624  
N    0.0892716    7.5473177   -2.1570575  
C   -0.4778548    7.6651832   -4.5362575  
C   -0.5611148    8.5139239   -5.5860391  
O   -0.9456069    8.1459490   -6.8200573  
C   -0.2239838    9.9619379   -5.4527717  
O   -0.3223607   10.6762173   -6.4504427  
C    0.2121040   10.4925756   -4.1488640  
H    0.9808766   10.6607895   -1.2044596  
H   -0.9050002    8.9645017   -7.3468163  
H    0.4470376   11.5470940   -4.0938208  
H    0.7160785    8.1964547   -0.1863460  
C    0.8175213    0.6860729    2.3021913  
C    0.0000000    0.0000000    1.4700000  
C   -0.8887526   -0.7456559    2.3478473  
C   -0.4549825   -0.3816753    3.7138435  
N    0.5448156    0.4573574    3.6934124  
C   -1.0945674   -0.9182058    4.8835240  
C   -2.1210866   -1.7789155    4.6970523  
O   -2.8083856   -2.3554314    5.6976972  
C   -2.5824069   -2.1655116    3.3310774  
O   -3.5227682   -2.9541547    3.2362962  
C   -1.9100805   -1.6015804    2.1470656  
H   -0.7567140   -0.6349833    5.8697035  
H   -3.4728268   -2.9124471    5.2533954  
H   -2.2742832   -1.9066565    1.1752040  
H    1.6189533    1.3585343    2.0405121  
