58

C   -3.2798046    0.0054509   -1.4499642  
C   -2.5571120    0.0041500   -2.5996549  
C   -1.1637428    0.0019872   -2.2210358  
C   -1.1336953    0.0021067   -0.7459469  
N   -2.4483475    0.0046491   -0.3402715  
C    0.0000000    0.0000000    0.0000000  
C    1.2757350   -0.0023293   -0.6964420  
O    2.3524552   -0.0042658   -0.1142322  
C    1.2676465   -0.0022457   -2.2584087  
O    2.3355726   -0.0038885   -2.8557301  
C   -0.0181574   -0.0001424   -2.9516298  
H   -2.9547328    0.0048308   -3.5989098  
H   -0.0150811   -0.0003039   -4.0331628  
H   -2.7563605    0.0037907    0.6148065  
C   -5.6664742    0.0100053   -2.2646990  
C   -4.7390790    0.0077610   -1.2727272  
C   -5.4604893    0.0083757   -0.0219662  
C   -6.8944734    0.0111529   -0.3690582  
N   -6.9515001    0.0124260   -1.7436984  
C   -7.9048511    0.0120817    0.5369443  
C   -7.5567461    0.0104478    1.9480984  
O   -8.3942722    0.0111707    2.8407629  
C   -6.0443560    0.0077530    2.3385774  
O   -5.7391025    0.0066672    3.5235166  
C   -5.0461736    0.0066844    1.2720494  
H   -8.9502693    0.0139963    0.2612495  
H   -4.0011807    0.0046121    1.5508139  
H   -5.5192793    0.0103115   -3.3325112  
C   -8.4493093   -0.6732098   -3.6738773  
C   -8.1892418    0.0129642   -2.5367281  
C   -9.4074205    0.7593825   -2.2621390  
C  -10.3237919    0.3956868   -3.3642158  
N   -9.7677060   -0.4438496   -4.1948400  
C  -11.6533956    0.9329630   -3.4568174  
C  -12.0496724    1.7941140   -2.4920798  
O  -13.2626651    2.3713371   -2.4533243  
C  -11.1481688    2.1804388   -1.3668229  
O  -11.5752103    2.9695139   -0.5240789  
C   -9.7888513    1.6157405   -1.2940521  
H  -12.3016590    0.6499339   -4.2732479  
H  -13.2466916    2.9285201   -1.6542971  
H   -9.1668454    1.9206415   -0.4631645  
H   -7.7970099   -1.3461647   -4.2073663  
C    0.0000000    0.0000000    1.4700000  
C    1.0662921    0.0000102    2.3034270  
C    0.4961870   -0.0000064    3.6418889  
C   -0.9663858    0.0000850    3.4240247  
N   -1.2632773    0.0000084    2.1528658  
C   -1.8985362    0.0000517    4.5177257  
C   -1.3925775   -0.0004564    5.7720543  
O   -2.1456383   -0.0005410    6.8851312  
C    0.0786232   -0.0009323    6.0245000  
O    0.4683759   -0.0012588    7.1921102  
C    1.0143166   -0.0008442    4.8859032  
H    2.1107198   -0.0000632    2.0421868  
H   -2.9622183    0.0003270    4.3293377  
H   -1.5042274   -0.0009692    7.6184419  
H    2.0724152   -0.0013148    5.1109744  
