58

C    3.2573672   -0.0002920   -1.5109380  
C    2.5379470   -0.0001710   -0.3591959  
C    1.1435044    0.0000331   -0.7338498  
C    1.1092609   -0.0000083   -2.2088475  
N    2.4227564    0.0001909   -2.6182609  
C   -0.0265532   -0.0002524   -2.9515660  
C   -1.3003037   -0.0002640   -2.2514978  
O   -2.3786783   -0.0004133   -2.8306423  
C   -1.2877723    0.0000311   -0.6895608  
O   -2.3539957    0.0003306   -0.0892035  
C    0.0000000    0.0000000    0.0000000  
H    2.9384091   -0.0000368    0.6389235  
H    2.7280494   -0.0013407   -3.5742112  
C    5.6463488    0.0002323   -0.7029957  
C    4.7161333   -0.0005436   -1.6923256  
C    5.4339829   -0.0013633   -2.9451332  
C    6.8689507   -0.0010281   -2.6021223  
N    6.9298903    0.0003445   -1.2276501  
C    7.8767475   -0.0019861   -3.5109952  
C    7.5246271   -0.0032187   -4.9211533  
O    8.3596101   -0.0040804   -5.8161967  
C    6.0111303   -0.0033416   -5.3073282  
O    5.7025051   -0.0040680   -6.4913938  
C    5.0159852   -0.0025215   -4.2379655  
H    8.9229469   -0.0018485   -3.2382757  
H    3.9702016   -0.0028179   -4.5137561  
H    5.5021933    0.0009485    0.3652306  
H    7.7763888   -0.0006784   -0.6886822  
C    2.5185219   -2.1418787   -5.7664425  
C    2.0285780   -1.7344767   -6.9604095  
C    0.9435062   -0.8236412   -6.6295057  
C    0.9168306   -0.7971605   -5.1512730  
N    1.8378570   -1.5679056   -4.6397541  
C   -0.0307352   -0.0004647   -4.4215603  
C   -0.9113600    0.7365841   -5.1361186  
O   -1.8501209    1.5254491   -4.5861544  
C   -0.9094203    0.7313056   -6.6288100  
O   -1.7398706    1.4264151   -7.2139564  
C    0.0724711   -0.0942327   -7.3542759  
H    2.3623450   -2.0170713   -7.9441857  
H   -2.3197101    1.9176026   -5.3443458  
H    0.0410968   -0.0704048   -8.4353302  
H    3.3327629   -2.8241129   -5.5805893  
C    0.0000000    0.0000000    1.4700000  
C    1.0662921    0.0000102    2.3034270  
C    0.4961870   -0.0000064    3.6418889  
C   -0.9663858    0.0000850    3.4240247  
N   -1.2632773    0.0000084    2.1528658  
C   -1.8985362    0.0000517    4.5177257  
C   -1.3925775   -0.0004564    5.7720543  
O   -2.1456383   -0.0005410    6.8851312  
C    0.0786232   -0.0009323    6.0245000  
O    0.4683759   -0.0012588    7.1921102  
C    1.0143166   -0.0008442    4.8859032  
H    2.1107198   -0.0000632    2.0421868  
H   -2.9622183    0.0003270    4.3293377  
H   -1.5042274   -0.0009692    7.6184419  
H    2.0724152   -0.0013148    5.1109744  
