60

C   -3.3003449   -0.0077015   -1.4739000  
C   -2.5232735   -0.0058344   -2.6090755  
C   -1.1623166   -0.0023945   -2.1820107  
C   -1.1711853   -0.0026041   -0.7636145  
N   -2.4852269   -0.0039102   -0.3662368  
C    0.0000000    0.0000000    0.0000000  
C    1.2020361    0.0025610   -0.6806476  
O    2.3759196    0.0048151    0.0157753  
C    1.2314622    0.0031881   -2.0955506  
O    2.5054326    0.0062499   -2.6250168  
C    0.0764512    0.0008935   -2.8495197  
H   -2.8919882   -0.0057242   -3.6205315  
H   -2.8036008   -0.0149124    0.5858650  
H    3.0835570    0.0066681   -0.6418808  
H    2.4359987    0.0064480   -3.5845911  
H    0.1304081    0.0016257   -3.9319086  
C   -5.6973496   -0.0135805   -2.3066404  
C   -4.7630373   -0.0108289   -1.3275420  
C   -5.5210171   -0.0117794   -0.0857830  
C   -6.9365998   -0.0151724   -0.5132159  
N   -7.0462184   -0.0163220   -1.8139740  
C   -8.0173487   -0.0170591    0.4339189  
C   -7.6984291   -0.0160104    1.7483097  
O   -8.6047846   -0.0175237    2.7405587  
C   -6.2793180   -0.0129715    2.2112098  
O   -6.0628168   -0.0120387    3.4229632  
C   -5.1885602   -0.0110351    1.2201657  
H   -8.0763675   -0.0162338    3.5590488  
H   -4.1742275   -0.0089649    1.5961384  
H   -5.5411306   -0.0139020   -3.3736774  
C   -9.9430647   -0.7076831   -1.0673392  
C   -9.4124150   -0.0201449   -0.0294180  
C  -10.5272096    0.7233621    0.5370883  
C  -11.6860871    0.3566634   -0.3050041  
N  -11.3498045   -0.4819820   -1.2471174  
C  -12.9988636    0.8905182   -0.0668789  
C  -13.1472586    1.7512658    0.9658008  
O  -14.3147390    2.3254443    1.3024735  
C  -11.9971330    2.1405704    1.8340241  
O  -12.2052363    2.9290885    2.7560618  
C  -10.6603788    1.5793562    1.5693530  
H  -13.8276875    0.6053419   -0.6982545  
H  -14.1036842    2.8831640    2.0729001  
H   -9.8534936    1.8863470    2.2212144  
H   -9.4407055   -1.3793192   -1.7452135  
C    2.5528530    2.1414826    2.8079335  
C    2.0663498    1.7338582    4.0032312  
C    0.9804344    0.8229586    3.6752840  
C    0.9495562    0.7966882    2.1971295  
N    1.8690446    1.5676019    1.6831036  
C    0.0000000    0.0000000    1.4700000  
C   -0.8785127   -0.7372425    2.1869543  
O   -1.8187535   -1.5261249    1.6395491  
C   -0.8723269   -0.7321790    3.6796354  
O   -1.7010379   -1.4274584    4.2670412  
C    0.1115397    0.0933559    4.4024240  
H    2.4028853    2.0163452    4.9860947  
H   -2.2861435   -1.9184361    2.3990168  
H    0.0832434    0.0693689    5.4835595  
H    3.3664920    2.8238276    2.6198634  
