58

C    3.2573669   -0.0002920   -1.5109381  
C    2.5379467   -0.0001711   -0.3591959  
C    1.1435042    0.0000331   -0.7338497  
C    1.1092607   -0.0000081   -2.2088471  
N    2.4227560    0.0001907   -2.6182608  
C   -0.0265533   -0.0002524   -2.9515661  
C   -1.3003036   -0.0002640   -2.2514977  
O   -2.3786787   -0.0004131   -2.8306425  
C   -1.2877726    0.0000311   -0.6895602  
O   -2.3539960    0.0003306   -0.0892029  
C    0.0000000    0.0000000    0.0000000  
H    2.9384089   -0.0000370    0.6389239  
H    4.3270393   -0.0004766   -1.6439442  
H    2.7280493   -0.0013408   -3.5742113  
C    2.5185217   -2.1418786   -5.7664421  
C    2.0285777   -1.7344768   -6.9604094  
C    0.9435060   -0.8236413   -6.6295056  
C    0.9168303   -0.7971604   -5.1512730  
N    1.8378567   -1.5679055   -4.6397538  
C   -0.0307354   -0.0004647   -4.4215603  
C   -0.9113601    0.7365842   -5.1361180  
O   -1.8501209    1.5254490   -4.5861544  
C   -0.9094202    0.7313055   -6.6288102  
O   -1.7398707    1.4264151   -7.2139561  
C    0.0724709   -0.0942327   -7.3542757  
H   -2.3197103    1.9176026   -5.3443459  
H    0.0410964   -0.0704048   -8.4353301  
H    3.3327626   -2.8241129   -5.5805892  
C    2.4843050   -2.1203328   -8.3036624  
C    3.4898935   -2.9644330   -8.6320905  
C    3.5053438   -2.9814101  -10.0867289  
C    2.4128271   -2.0665654  -10.4817607  
N    1.8107433   -1.5587316   -9.4408055  
C    2.0986996   -1.8069607  -11.8598082  
C    2.8424484   -2.4325370  -12.8004620  
O    2.6598606   -2.2830069  -14.1234674  
C    3.9519792   -3.3612241  -12.4335257  
O    4.5872937   -3.8960275  -13.3421408  
C    4.2546354   -3.6111637  -11.0130140  
H    4.1408473   -3.5083111   -7.9691186  
H    1.2947308   -1.1339244  -12.1197419  
H    3.3369522   -2.8513197  -14.5330038  
H    5.0661897   -4.2904050  -10.7888698  
C    0.8175213    0.6860729    2.3021913  
C    0.0000000    0.0000000    1.4700000  
C   -0.8887526   -0.7456559    2.3478473  
C   -0.4549825   -0.3816753    3.7138435  
N    0.5448156    0.4573574    3.6934124  
C   -1.0945674   -0.9182058    4.8835240  
C   -2.1210866   -1.7789155    4.6970523  
O   -2.8083856   -2.3554314    5.6976972  
C   -2.5824069   -2.1655116    3.3310774  
O   -3.5227682   -2.9541547    3.2362962  
C   -1.9100805   -1.6015804    2.1470656  
H   -0.7567140   -0.6349833    5.8697035  
H   -3.4728268   -2.9124471    5.2533954  
H   -2.2742832   -1.9066565    1.1752040  
H    1.6189533    1.3585343    2.0405121  
