62

C    3.3003545    0.0005278   -1.4738990  
C    2.5232811    0.0003501   -2.6090748  
C    1.1623201   -0.0001316   -2.1820103  
C    1.1711885    0.0000584   -0.7636139  
N    2.4852301   -0.0014918   -0.3662354  
C    0.0000000    0.0000000    0.0000000  
C   -1.2020382    0.0000521   -0.6806474  
O   -2.3759248    0.0003495    0.0157751  
C   -1.2314658   -0.0005109   -2.0955506  
O   -2.5054388   -0.0008033   -2.6250176  
C   -0.0764518   -0.0007268   -2.8495194  
H    2.8919955   -0.0005615   -3.6205301  
H    2.8036267    0.0088180    0.5858660  
H   -3.0835639    0.0000349   -0.6418815  
H   -2.4360047   -0.0011523   -3.5845918  
H    4.3715547    0.0004897   -1.3667132  
C   -0.1496417   -0.0015607   -4.3176960  
C    0.8605984   -0.0020136   -5.2251594  
C    0.2508224   -0.0027513   -6.5339785  
C   -1.2079382   -0.0026611   -6.3130517  
N   -1.3844308   -0.0023257   -4.9485959  
C   -2.1356004   -0.0028332   -7.3035804  
C   -1.6659559   -0.0033528   -8.6790693  
O   -2.4225834   -0.0036039   -9.6412618  
C   -0.1253098   -0.0037089   -8.9363920  
O    0.2819500   -0.0044537  -10.0902551  
C    0.7762279   -0.0031995   -7.7870091  
H    1.9128694   -0.0020322   -5.0030341  
H    1.8415248   -0.0032451   -7.9737351  
H   -2.2733179   -0.0006336   -4.4828447  
C   -4.6736882    2.1222250   -4.2982690  
C   -3.6120171    1.6597595   -5.0408638  
C   -4.1452643    0.7717607   -6.0215296  
C   -5.5497290    0.7318460   -5.8270762  
N   -5.8368094    1.5615673   -4.7717254  
C   -6.4010632   -0.0448345   -6.6187745  
C   -5.8241214   -0.7946501   -7.6252992  
O   -6.6091477   -1.5706233   -8.4281767  
C   -4.4247409   -0.7683346   -7.8347272  
O   -4.0033572   -1.5694793   -8.8758548  
C   -3.5842424   -0.0025605   -7.0539081  
H   -2.5800379    1.9284348   -4.8931289  
H   -6.7553723    1.7431895   -4.4094592  
H   -7.4722707   -0.0797149   -6.4755972  
H   -6.0149027   -2.0040143   -9.0545237  
H   -3.0470748   -1.4942099   -8.9497604  
H   -4.6931158    2.8065408   -3.4674296  
C    2.3971438    2.0127888    3.1728260  
C    1.9431056    1.6308205    1.9564670  
C    0.8496017    0.7127664    2.2356185  
C    0.7794028    0.6545384    3.7115134  
N    1.6840587    1.4146091    4.2663826  
C   -0.1885723   -0.1578550    4.3957118  
C   -1.0476298   -0.8789867    3.6398520  
O   -2.0015663   -1.6796266    4.1448486  
C   -1.0022026   -0.8410666    2.1483229  
O   -1.8147390   -1.5232959    1.5241687  
C    0.0000000    0.0000000    1.4700000  
H    2.3054237    1.9346118    0.9892483  
H   -0.2170646   -0.1815267    5.4753125  
H   -2.4487139   -2.0549881    3.3649027  
H    3.2048689    2.6911772    3.3971983  
