58

C   -0.9804205    0.5657140   -0.8009271  
C   -0.6915150    0.3962509   -2.1169404  
C    0.5567221   -0.3263881   -2.1842674  
C    0.9743268   -0.5657785   -0.7896026  
N    0.0000000    0.0000000    0.0000000  
C    2.1063612   -1.2208945   -0.4276293  
C    2.9712926   -1.7235812   -1.4820183  
O    4.0128524   -2.3264447   -1.2583917  
C    2.5487572   -1.4812000   -2.9661070  
O    3.2691357   -1.8995491   -3.8623773  
C    1.3053821   -0.7617630   -3.2312125  
H    2.3942461   -1.3859521    0.6013445  
H    1.0198532   -0.5982522   -4.2614851  
H   -1.8269655    1.0564661   -0.3488062  
C   -3.0369836    4.0731047   -3.0356157  
C   -2.2534970    3.1801584   -2.3872521  
C   -2.1362526    2.0525553   -3.2989892  
C   -2.9329369    2.4448686   -4.4813459  
N   -3.4632913    3.6283558   -4.3327800  
C   -3.0702191    1.5860756   -5.6253366  
C   -2.4399348    0.3899058   -5.5899299  
O   -2.4818256   -0.5103401   -6.5868471  
C   -1.6282325   -0.0345178   -4.4113014  
O   -1.0822475   -1.1371466   -4.4477816  
C   -1.5027158    0.8641672   -3.2500368  
H   -1.8098351    3.2749997   -1.4109095  
H   -3.6587898    1.8982437   -6.4756574  
H   -1.9404672   -1.2559946   -6.2704871  
C   -2.2753749    6.2594925    0.6957378  
C   -2.9821234    7.3908449    0.4415269  
C   -3.5645619    7.2374468   -0.8707499  
C   -3.1361557    5.9144899   -1.3637446  
N   -2.3569500    5.3730833   -0.3674482  
C   -3.4787388    5.3955895   -2.5700132  
C   -4.3257540    6.1934183   -3.4409723  
O   -4.6890079    5.8142021   -4.5466584  
C   -4.7910478    7.5975841   -2.9393486  
O   -5.5041450    8.2784674   -3.6640218  
C   -4.3568110    8.0485122   -1.6195171  
H   -3.0836841    8.2364222    1.0982589  
H   -4.6834916    9.0218617   -1.2795249  
H   -1.7016275    5.9988032    1.5702347  
H   -1.9171188    4.4719050   -0.4058336  
C    2.3971438    2.0127888    3.1728260  
C    1.9431056    1.6308205    1.9564670  
C    0.8496017    0.7127664    2.2356185  
C    0.7794028    0.6545384    3.7115134  
N    1.6840587    1.4146091    4.2663826  
C   -0.1885723   -0.1578550    4.3957118  
C   -1.0476298   -0.8789867    3.6398520  
O   -2.0015663   -1.6796266    4.1448486  
C   -1.0022026   -0.8410666    2.1483229  
O   -1.8147390   -1.5232959    1.5241687  
C    0.0000000    0.0000000    1.4700000  
H    2.3054237    1.9346118    0.9892483  
H   -0.2170646   -0.1815267    5.4753125  
H   -2.4487139   -2.0549881    3.3649027  
H    3.2048689    2.6911772    3.3971983  
