60

C    3.2798084    0.0005856   -1.4499652  
C    2.5571142    0.0005566   -2.5996557  
C    1.1637434    0.0001548   -2.2210362  
C    1.1336961   -0.0000200   -0.7459473  
N    2.4483514   -0.0001428   -0.3402724  
C    0.0000000    0.0000000    0.0000000  
C   -1.2757374   -0.0000187   -0.6964415  
O   -2.3524597   -0.0000640   -0.1142311  
C   -1.2676496   -0.0000874   -2.2584083  
O   -2.3355767   -0.0004101   -2.8557296  
C    0.0181557    0.0001759   -2.9516298  
H    2.9547349    0.0006074   -3.5989107  
H    2.7563629    0.0012824    0.6148060  
C    2.5092669   -2.0880364   -5.9399682  
C    1.9605213   -1.6268628   -4.7865938  
C    0.8894588   -0.7326236   -5.1580732  
C    0.8589563   -0.7104880   -6.6329865  
N    1.8659262   -1.5524065   -7.0453886  
C   -0.0149630    0.0176439   -7.3731172  
C   -0.9904844    0.8341824   -6.6701530  
O   -1.8197981    1.5255371   -7.2468408  
C   -0.9762349    0.8261497   -5.1082511  
O   -1.7925795    1.5098877   -4.5054701  
C    0.0139735    0.0003878   -4.4216240  
H    2.2707712   -1.8836547   -3.7893898  
H   -0.0204999    0.0196520   -8.4542629  
H    3.3296614   -2.7739652   -6.0754077  
H    2.0965136   -1.7491787   -8.0020273  
C    4.7390849    0.0009614   -1.2727288  
C    5.6949931    0.0015507   -2.2307570  
C    6.9549539    0.0016805   -1.5034340  
C    6.5623384    0.0012141   -0.0777983  
N    5.2646571    0.0007107    0.0636651  
C    7.5356724    0.0011404    0.9794183  
C    8.8418532    0.0011267    0.6283835  
O    9.8560148    0.0010681    1.5101530  
C    9.2698389    0.0012203   -0.8016476  
O   10.4759234    0.0013261   -1.0477796  
C    8.2523639    0.0013385   -1.8677943  
H    5.5615843    0.0017690   -3.2990631  
H    7.2204119    0.0010025    2.0126271  
H   10.6613102    0.0010475    0.9618357  
H    8.6033668    0.0012887   -2.8910377  
C    0.8576279    0.7185626    2.2703808  
C    0.0000000    0.0000000    1.4700000  
C   -0.8668858   -0.7285659    2.3373528  
C   -0.4876752   -0.4117774    3.6669281  
N    0.5635254    0.4678311    3.5902241  
C   -1.1297612   -0.9515493    4.7854808  
C   -2.1738724   -1.8268314    4.5576857  
O   -2.8357962   -2.3827064    5.6140350  
C   -2.5667212   -2.1555554    3.2384331  
O   -3.6226318   -3.0413663    3.1773122  
C   -1.9335634   -1.6236449    2.1344818  
H    1.0363952    0.8769718    4.3757045  
H   -0.8454472   -0.7142436    5.8013813  
H   -3.5178062   -2.9546422    5.2385129  
H   -3.8247440   -3.2102924    2.2519915  
H   -2.2566033   -1.8942483    1.1360343  
H    1.6567807    1.3889844    2.0042067  
