58

C   -3.2573635   -0.0043578   -1.5109391  
C   -2.5379445   -0.0034519   -0.3591969  
C   -1.1435025   -0.0016654   -0.7338503  
C   -1.1092584   -0.0015751   -2.2088480  
N   -2.4227520   -0.0036493   -2.6182620  
C    0.0265545    0.0002904   -2.9515659  
C    1.3003034    0.0021202   -2.2514974  
O    2.3786763    0.0038089   -2.8306416  
C    1.2877718    0.0018072   -0.6895602  
O    2.3539938    0.0030297   -0.0892027  
C    0.0000000    0.0000000    0.0000000  
H   -2.9384056   -0.0041578    0.6389226  
H    0.0296302    0.0004510   -4.0327235  
H   -2.7280470   -0.0025534   -3.5742126  
C   -6.4549966   -0.0082886    1.4492333  
C   -7.5628416   -0.0093246    0.6718933  
C   -7.0625066   -0.0087088   -0.6941831  
C   -5.5906468   -0.0071445   -0.5520193  
N   -5.2286089   -0.0069723    0.7021412  
C   -4.7161285   -0.0061885   -1.6923272  
C   -5.2860866   -0.0071579   -2.9189002  
O   -4.5914184   -0.0064339   -4.0693246  
C   -6.7683453   -0.0091141   -3.0951549  
O   -7.2177819   -0.0097878   -4.2411159  
C   -7.6440877   -0.0100207   -1.9098278  
H   -5.2697850   -0.0074820   -4.7685884  
H   -8.7123827   -0.0115542   -2.0800437  
H   -6.3993934   -0.0083328    2.5262115  
C   -9.4898113    0.6931861    2.1392962  
C   -8.9686194   -0.0108845    1.1016458  
C  -10.0554557   -0.7542999    0.5092309  
C  -11.2612028   -0.4232269    1.2924007  
N  -10.8505721    0.4583910    2.2655512  
C  -12.4984960   -0.9241791    1.0477430  
C  -12.6529070   -1.8514730   -0.0607777  
O  -13.7262508   -2.3571836   -0.3615944  
C  -11.3894106   -2.2164211   -0.9035091  
O  -11.5070647   -2.9962907   -1.8390414  
C  -10.1093280   -1.6118653   -0.5432978  
H  -13.3699124   -0.6682606    1.6342998  
H   -9.2393670   -1.8695912   -1.1319147  
H   -8.9942679    1.3636592    2.8225183  
H  -11.4478261    0.8696353    2.9592466  
C    0.0000000    0.0000000    1.4700000  
C    1.0662921    0.0000102    2.3034270  
C    0.4961870   -0.0000064    3.6418889  
C   -0.9663858    0.0000850    3.4240247  
N   -1.2632773    0.0000084    2.1528658  
C   -1.8985362    0.0000517    4.5177257  
C   -1.3925775   -0.0004564    5.7720543  
O   -2.1456383   -0.0005410    6.8851312  
C    0.0786232   -0.0009323    6.0245000  
O    0.4683759   -0.0012588    7.1921102  
C    1.0143166   -0.0008442    4.8859032  
H    2.1107198   -0.0000632    2.0421868  
H   -2.9622183    0.0003270    4.3293377  
H   -1.5042274   -0.0009692    7.6184419  
H    2.0724152   -0.0013148    5.1109744  
