58

C   -3.2798078   -0.0015997   -1.4499647  
C   -2.5571143   -0.0013472   -2.5996554  
C   -1.1637429   -0.0005146   -2.2210360  
C   -1.1336961   -0.0003305   -0.7459470  
N   -2.4483510   -0.0006140   -0.3402721  
C    0.0000000    0.0000000    0.0000000  
C    1.2757371    0.0004131   -0.6964418  
O    2.3524597    0.0007913   -0.1142320  
C    1.2676490    0.0004793   -2.2584085  
O    2.3355765    0.0011322   -2.8557300  
C   -0.0181559   -0.0001815   -2.9516298  
H   -2.9547349   -0.0015211   -3.5989103  
H   -0.0150791   -0.0003365   -4.0331631  
H   -2.7563620   -0.0021346    0.6148065  
C   -6.5739152   -0.0039047   -4.3537886  
C   -7.6280837   -0.0043055   -3.4977493  
C   -7.0842285   -0.0039640   -2.1601929  
C   -5.6162779   -0.0032976   -2.3082156  
N   -5.3720687   -0.0036925   -3.6621917  
C   -4.7390840   -0.0024266   -1.2727278  
C   -5.2766305   -0.0023514    0.0776719  
O   -4.5688481   -0.0016596    1.0763434  
C   -6.8281771   -0.0033018    0.2579686  
O   -7.2923821   -0.0035541    1.3901232  
C   -7.6713704   -0.0039178   -0.9348757  
H   -8.7446431   -0.0043691   -0.8014218  
H   -6.5739151   -0.0039633   -5.4316982  
H   -4.4610963   -0.0018473   -4.0831096  
C   -9.0494875   -0.0052109   -3.8725976  
C   -9.5834586   -0.0056924   -5.1161622  
C  -11.0230487   -0.0065227   -4.9062103  
C  -11.1853412   -0.0065375   -3.4364331  
N  -10.0319121   -0.0056897   -2.8252124  
C  -12.4805834   -0.0072146   -2.8139909  
C  -13.5644260   -0.0074592   -3.6230754  
O  -14.8327358   -0.0080898   -3.1787432  
C  -13.4333724   -0.0070808   -5.1100137  
O  -14.4629965   -0.0074581   -5.7846210  
C  -12.0938158   -0.0064307   -5.7244337  
H   -9.0645271   -0.0054169   -6.0594468  
H  -12.5696600   -0.0074158   -1.7374337  
H  -15.3782453   -0.0080880   -3.9859433  
H  -12.0416326   -0.0060570   -6.8049456  
C    0.0000000    0.0000000    1.4700000  
C    1.0662921    0.0000102    2.3034270  
C    0.4961870   -0.0000064    3.6418889  
C   -0.9663858    0.0000850    3.4240247  
N   -1.2632773    0.0000084    2.1528658  
C   -1.8985362    0.0000517    4.5177257  
C   -1.3925775   -0.0004564    5.7720543  
O   -2.1456383   -0.0005410    6.8851312  
C    0.0786232   -0.0009323    6.0245000  
O    0.4683759   -0.0012588    7.1921102  
C    1.0143166   -0.0008442    4.8859032  
H    2.1107198   -0.0000632    2.0421868  
H   -2.9622183    0.0003270    4.3293377  
H   -1.5042274   -0.0009692    7.6184419  
H    2.0724152   -0.0013148    5.1109744  
