62

C    4.7092239   -1.5246681   -0.3281847  
C    5.8235316   -0.8758443   -0.8075731  
C    5.3920994   -0.0501982   -1.8877468  
C    3.9926216   -0.2381879   -2.0220864  
N    3.6105675   -1.1410059   -1.0610598  
C    3.2304645    0.4216628   -2.9908495  
C    3.8930944    1.2872835   -3.8392603  
O    3.1971563    1.9577876   -4.8031625  
C    5.2890335    1.4878509   -3.7211775  
O    5.8020153    2.3803340   -4.6396906  
C    6.0415977    0.8370229   -2.7658781  
H    6.8244146   -0.9851276   -0.4264121  
H    2.6718357   -1.4617827   -0.9065734  
H    3.8408410    2.5001609   -5.2772582  
H    6.7493888    2.4585206   -4.4914511  
H    7.1092754    1.0106716   -2.6996324  
C    0.0000000    0.0000000    0.0000000  
C   -1.0433706   -0.1357700   -0.8862346  
C   -0.4876931   -0.0628162   -2.1979131  
C    0.9109687    0.1192728   -2.0478680  
N    1.1731286    0.1549546   -0.7007908  
C    1.7800343    0.2326352   -3.1372083  
C    1.2271251    0.1605681   -4.4010422  
O    2.0302057    0.2649723   -5.4997574  
C   -0.1661091   -0.0204368   -4.5711962  
O   -0.5627934   -0.0717932   -5.8915557  
C   -1.0240966   -0.1320779   -3.4969894  
H   -2.0778797   -0.2696866   -0.6200570  
H    2.0824545    0.2630540   -0.2891816  
H    1.4511251    0.1898467   -6.2693593  
H   -1.5164929   -0.1957352   -5.9180052  
H   -2.0868287   -0.2699569   -3.6584461  
C    7.7276540   -3.1555953    2.3581980  
C    6.9955041   -3.9811853    3.1417387  
C    5.6328618   -3.8565951    2.6475894  
C    5.7273351   -2.8884144    1.5339089  
N    6.9528536   -2.4740744    1.3595046  
C    4.5757107   -2.4903027    0.7720990  
C    3.3839483   -3.0349496    1.1073552  
O    2.2279410   -2.7541237    0.4821959  
C    3.2562433   -4.0150430    2.2259565  
O    2.1402016   -4.4703085    2.4757647  
C    4.4522908   -4.4073924    2.9924142  
H    7.3378587   -4.5985540    3.9545887  
H    1.5595191   -3.2922646    0.9434650  
H    4.3176856   -5.1201060    3.7950045  
H    8.7879527   -2.9640917    2.4036621  
C    3.3321173   -0.0004715    2.8079335  
C    2.6974184   -0.0000116    4.0032312  
C    1.2800439    0.0002118    3.6752840  
C    1.2395035   -0.0000644    2.1971295  
N    2.4394063   -0.0005460    1.6831036  
C    0.0000000    0.0000000    1.4700000  
C   -1.1468701   -0.0000635    2.1869543  
O   -2.3742202   -0.0000073    1.6395491  
C   -1.1388768   -0.0001607    3.6796354  
O   -2.2206231   -0.0000905    4.2670412  
C    0.1454524   -0.0001816    4.4024240  
H    3.1367986    0.0000651    4.9860947  
H   -2.9844344   -0.0001026    2.3990168  
H    0.1083576   -0.0003682    5.4835595  
H    4.3940039   -0.0007619    2.6198634  
