60

C    1.1243403    0.0100071   -0.7919005  
C    0.7474063    0.0234641   -2.1148547  
C   -0.6787396    0.0234399   -2.1414694  
C   -1.1201751    0.0098444   -0.7935542  
N    0.0000000    0.0000000    0.0000000  
C   -2.4730821    0.0063381   -0.4408232  
C   -3.3971966    0.0170530   -1.4675050  
O   -4.7313526    0.0145634   -1.1793451  
C   -2.9763665    0.0303112   -2.8186312  
O   -4.0166498    0.0394585   -3.7247610  
C   -1.6418581    0.0335043   -3.1673475  
H   -2.8160161   -0.0041484    0.5845973  
H   -5.1938834    0.0230181   -2.0274363  
H   -3.6464700    0.0481814   -4.6127333  
H   -1.3497493    0.0435688   -4.2109226  
H    2.1062462    0.0053096   -0.3505414  
C    4.4933197   -2.1126525   -2.7414616  
C    4.8571183   -1.6937521   -3.9758651  
C    3.8033290   -0.7789764   -4.3872210  
C    2.8586066   -0.7630355   -3.2497547  
N    3.2578298   -1.5428581   -2.2820322  
C    1.6628931    0.0339120   -3.2649305  
C    1.4221061    0.7812715   -4.3662068  
O    0.3456096    1.5716373   -4.5162629  
C    2.3565579    0.7867817   -5.5302219  
O    2.0740526    1.4909726   -6.4995136  
C    3.5764102   -0.0392394   -5.4905466  
H    5.7325101   -1.9711769   -4.5378265  
H    0.4529351    1.9720177   -5.3979256  
H    5.0127321   -2.8009846   -2.0938636  
C    5.7729444   -3.2396935   -7.4704029  
C    6.3957244   -2.5792234   -8.4741474  
C    5.9829362   -1.1923613   -8.3234198  
C    5.0872216   -1.1958671   -7.1468701  
N    4.9603672   -2.3931856   -6.6425629  
C    4.4612771    0.0040176   -6.6635941  
C    4.7187638    1.1551458   -7.3253636  
O    4.2028558    2.3483456   -6.9845502  
C    5.6185730    1.1912107   -8.5158265  
O    5.8078614    2.2743373   -9.0692051  
C    6.2486768   -0.0529761   -8.9921598  
H    7.0540117   -2.9832389   -9.2241507  
H    4.5674406    2.9719590   -7.6382597  
H    6.8939807    0.0154191   -9.8576860  
H    5.8211935   -4.2914638   -7.2371123  
C    2.5528530    2.1414826    2.8079335  
C    2.0663498    1.7338582    4.0032312  
C    0.9804344    0.8229586    3.6752840  
C    0.9495562    0.7966882    2.1971295  
N    1.8690446    1.5676019    1.6831036  
C    0.0000000    0.0000000    1.4700000  
C   -0.8785127   -0.7372425    2.1869543  
O   -1.8187535   -1.5261249    1.6395491  
C   -0.8723269   -0.7321790    3.6796354  
O   -1.7010379   -1.4274584    4.2670412  
C    0.1115397    0.0933559    4.4024240  
H    2.4028853    2.0163452    4.9860947  
H   -2.2861435   -1.9184361    2.3990168  
H    0.0832434    0.0693689    5.4835595  
H    3.3664920    2.8238276    2.6198634  
