58

C    1.1319246    0.0015691   -0.8009266  
C    0.7969911    0.0034968   -2.1169399  
C   -0.6453340    0.0035688   -2.1842668  
C   -1.1266840    0.0015398   -0.7896020  
N    0.0000000    0.0000000    0.0000000  
C   -2.4346129    0.0013886   -0.4276289  
C   -3.4350107    0.0031296   -1.4820179  
O   -4.6384616    0.0030823   -1.2583904  
C   -2.9478963    0.0050412   -2.9661065  
O   -3.7809384    0.0062097   -3.8623765  
C   -1.5113828    0.0053040   -3.2312120  
H   -2.7664562    0.0000141    0.6013455  
H   -1.1823540    0.0068368   -4.2614843  
H    2.1104315    0.0009458   -0.3488058  
C    4.6221969   -2.0851197   -2.8253993  
C    3.4630833   -1.6242666   -2.2886067  
C    2.8772276   -0.7284830   -3.2577199  
C    3.7966179   -0.7050915   -4.4113941  
N    4.8343012   -1.5478317   -4.0859839  
C    3.5979651    0.0246625   -5.5382040  
C    2.3987147    0.8417460   -5.6201041  
O    2.1298698    1.5345363   -6.5927631  
C    1.4112236    0.8324040   -4.4099055  
O    0.3983743    1.5165864   -4.4672752  
C    1.7334690    0.0049301   -3.2500363  
H    3.0641099   -1.8822425   -1.3237847  
H    4.2848306    0.0275718   -6.3731400  
H    5.3394122   -2.7718842   -2.4060589  
C    6.6058632   -3.0240997   -5.1449078  
C    5.9897467   -1.8353035   -4.9480781  
C    6.7209631   -0.8916690   -5.7795677  
C    7.7745194   -1.7031839   -6.4261334  
N    7.7119930   -2.9540074   -6.0580025  
C    8.7235301   -1.1293614   -7.3400223  
C    8.6242991    0.1948879   -7.5966377  
O    9.4426343    0.8616082   -8.4284139  
C    7.5717903    1.0405893   -6.9601052  
O    7.5407425    2.2389554   -7.2397046  
C    6.6100312    0.4285348   -6.0261176  
H    9.4831327   -1.7460145   -7.7979005  
H    9.1239971    1.7819692   -8.4047763  
H    5.8627788    1.0752598   -5.5861279  
H    6.3629817   -3.9787032   -4.7059153  
C    0.8175213    0.6860729    2.3021913  
C    0.0000000    0.0000000    1.4700000  
C   -0.8887526   -0.7456559    2.3478473  
C   -0.4549825   -0.3816753    3.7138435  
N    0.5448156    0.4573574    3.6934124  
C   -1.0945674   -0.9182058    4.8835240  
C   -2.1210866   -1.7789155    4.6970523  
O   -2.8083856   -2.3554314    5.6976972  
C   -2.5824069   -2.1655116    3.3310774  
O   -3.5227682   -2.9541547    3.2362962  
C   -1.9100805   -1.6015804    2.1470656  
H   -0.7567140   -0.6349833    5.8697035  
H   -3.4728268   -2.9124471    5.2533954  
H   -2.2742832   -1.9066565    1.1752040  
H    1.6189533    1.3585343    2.0405121  
