58

C    1.0965514    0.0001360   -0.8010308  
C    0.0000000    0.0000000    0.0000000  
C   -1.1546565    0.0001472   -0.8669509  
C   -0.6372020    0.0003523   -2.2486278  
N    0.7342866    0.0007341   -2.1395013  
C   -1.4147747    0.0001359   -3.3608714  
C   -2.8576056   -0.0001043   -3.1854457  
O   -3.6427786   -0.0002487   -4.1244898  
C   -3.4275844   -0.0000723   -1.7311657  
O   -4.6406831    0.0000333   -1.5710050  
C   -2.4891869   -0.0001088   -0.6116737  
H   -2.8919120   -0.0002918    0.3920871  
H    2.1388271    0.0000665   -0.5261656  
H    1.3735865   -0.0006094   -2.9130264  
C    1.9957403   -2.1407944   -5.0258951  
C    1.9855614   -1.7332329   -6.3163869  
C    0.8551735   -0.8225471   -6.4132069  
C    0.2799725   -0.7963187   -5.0512087  
N    0.9444043   -1.5670707   -4.2336137  
C   -0.8712836    0.0001718   -4.7267109  
C   -1.4226099    0.7372654   -5.7177040  
O   -2.4987615    1.5259564   -5.5567515  
C   -0.8649849    0.7322396   -7.1023299  
O   -1.4179272    1.4273765   -7.9545391  
C    0.3165509   -0.0930913   -7.4101073  
H    2.6616892   -2.0156322   -7.1051694  
H   -2.6523141    1.9181970   -6.4352279  
H    0.6899748   -0.0690831   -8.4250997  
C    5.4094873   -4.2913349   -6.6717997  
C    5.8609735   -4.9758978   -5.5951789  
C    4.9605259   -4.6092239   -4.5129384  
C    3.9994964   -3.6698176   -5.1298025  
N    4.2575979   -3.4796606   -6.3951935  
C    2.9316266   -3.0707050   -4.3776027  
C    2.8282796   -3.3956014   -3.0687497  
O    1.8807597   -2.9115511   -2.2478101  
C    3.7824493   -4.3408313   -2.4173963  
O    3.6284897   -4.5909814   -1.2220129  
C    4.8694598   -4.9421942   -3.2102998  
H    6.7012190   -5.6468944   -5.5420116  
H    2.0663905   -3.3235844   -1.3847213  
H    5.5395560   -5.6220929   -2.7014389  
H    5.8078624   -4.2917416   -7.6739331  
C    0.8175213    0.6860729    2.3021913  
C    0.0000000    0.0000000    1.4700000  
C   -0.8887526   -0.7456559    2.3478473  
C   -0.4549825   -0.3816753    3.7138435  
N    0.5448156    0.4573574    3.6934124  
C   -1.0945674   -0.9182058    4.8835240  
C   -2.1210866   -1.7789155    4.6970523  
O   -2.8083856   -2.3554314    5.6976972  
C   -2.5824069   -2.1655116    3.3310774  
O   -3.5227682   -2.9541547    3.2362962  
C   -1.9100805   -1.6015804    2.1470656  
H   -0.7567140   -0.6349833    5.8697035  
H   -3.4728268   -2.9124471    5.2533954  
H   -2.2742832   -1.9066565    1.1752040  
H    1.6189533    1.3585343    2.0405121  
