60

C   -1.1178032   -0.0487174   -0.8003807  
C    0.0000000    0.0000000    0.0000000  
C    1.1313866    0.0475856   -0.8673522  
C    0.6377658    0.0253564   -2.1969277  
N   -0.7315650   -0.0351970   -2.1202240  
C    1.4758554    0.0605014   -3.3154803  
C    2.8370351    0.1194616   -3.0876848  
O    3.7006302    0.1561155   -4.1440335  
C    3.3487744    0.1420901   -1.7684323  
O    4.7257669    0.2012464   -1.7073109  
C    2.5225792    0.1071713   -0.6644810  
H    1.1059018    0.0436821   -4.3313806  
H    4.5898871    0.1944773   -3.7685115  
H    4.9889141    0.2130323   -0.7819903  
H    2.9435814    0.1255624    0.3339667  
H   -2.1599672   -0.0934841   -0.5342069  
C   -1.6467605   -0.0605395   -3.2703000  
C   -2.9988600   -0.1176637   -3.2583483  
C   -3.3866698   -0.1178897   -4.6605265  
C   -2.1081509   -0.0553822   -5.4008412  
N   -1.0847501   -0.0216367   -4.5912111  
C   -2.0606665   -0.0368845   -6.8369782  
C   -3.2369342   -0.0793092   -7.5032589  
O   -3.3414552   -0.0683796   -8.8430339  
C   -4.5437085   -0.1431429   -6.7846303  
O   -5.5751889   -0.1792305   -7.4554269  
C   -4.5660126   -0.1609541   -5.3111621  
H   -3.6523510   -0.1551227   -2.4035834  
H   -4.2991948   -0.1071749   -9.0173392  
H   -5.5329378   -0.2077421   -4.8283622  
C    0.3779402   -0.6566164   -7.1648393  
C    1.4024805   -0.3863994   -8.0141772  
C    0.8955024    0.5314712   -9.0068106  
C   -0.5185127    0.7756205   -8.6636743  
N   -0.7699913    0.0259639   -7.5377688  
C   -1.3497323    1.5897107   -9.3622703  
C   -0.8161462    2.2707346  -10.5301858  
O   -1.4848594    3.0245434  -11.2250934  
C    0.6786152    2.0266601  -10.9121814  
O    1.1389010    2.5943199  -11.8935890  
C    1.4752832    1.1269478  -10.0817058  
H    2.3995345   -0.7847602   -7.9524802  
H   -2.3838071    1.7551614   -9.0935233  
H    2.5094368    0.9634601  -10.3528554  
H    0.3648664   -1.2971415   -6.2979791  
C    0.0000000    0.0000000    1.4700000  
C    1.0662921    0.0000102    2.3034270  
C    0.4961870   -0.0000064    3.6418889  
C   -0.9663858    0.0000850    3.4240247  
N   -1.2632773    0.0000084    2.1528658  
C   -1.8985362    0.0000517    4.5177257  
C   -1.3925775   -0.0004564    5.7720543  
O   -2.1456383   -0.0005410    6.8851312  
C    0.0786232   -0.0009323    6.0245000  
O    0.4683759   -0.0012588    7.1921102  
C    1.0143166   -0.0008442    4.8859032  
H    2.1107198   -0.0000632    2.0421868  
H   -2.9622183    0.0003270    4.3293377  
H   -1.5042274   -0.0009692    7.6184419  
H    2.0724152   -0.0013148    5.1109744  
