58

C    3.2573672   -0.0002920   -1.5109380  
C    2.5379470   -0.0001710   -0.3591959  
C    1.1435044    0.0000331   -0.7338498  
C    1.1092609   -0.0000083   -2.2088475  
N    2.4227564    0.0001909   -2.6182609  
C   -0.0265532   -0.0002524   -2.9515660  
C   -1.3003037   -0.0002640   -2.2514978  
O   -2.3786783   -0.0004133   -2.8306423  
C   -1.2877723    0.0000311   -0.6895608  
O   -2.3539957    0.0003306   -0.0892035  
C    0.0000000    0.0000000    0.0000000  
H    2.9384091   -0.0000368    0.6389235  
H    2.7280494   -0.0013407   -3.5742112  
C    6.4550016   -0.0009258    1.4492357  
C    7.5628473   -0.0014712    0.6718958  
C    7.0625122   -0.0013727   -0.6941807  
C    5.5906521   -0.0008360   -0.5520172  
N    5.2286137   -0.0004914    0.7021432  
C    4.7161333   -0.0005436   -1.6923256  
C    5.2860928   -0.0003876   -2.9188982  
O    4.5914251   -0.0001200   -4.0693226  
C    6.7683531   -0.0005474   -3.0951525  
O    7.2177901   -0.0005153   -4.2411136  
C    7.6440948   -0.0008911   -1.9098251  
H    8.5924167   -0.0017985    0.9866398  
H    5.2697922   -0.0000404   -4.7685868  
H    8.7123919   -0.0008825   -2.0800412  
H    6.3993986   -0.0008024    2.5262139  
C    2.5185219   -2.1418787   -5.7664425  
C    2.0285780   -1.7344767   -6.9604095  
C    0.9435062   -0.8236412   -6.6295057  
C    0.9168306   -0.7971605   -5.1512730  
N    1.8378570   -1.5679056   -4.6397541  
C   -0.0307352   -0.0004647   -4.4215603  
C   -0.9113600    0.7365841   -5.1361186  
O   -1.8501209    1.5254491   -4.5861544  
C   -0.9094203    0.7313056   -6.6288100  
O   -1.7398706    1.4264151   -7.2139564  
C    0.0724711   -0.0942327   -7.3542759  
H    2.3623450   -2.0170713   -7.9441857  
H   -2.3197101    1.9176026   -5.3443458  
H    0.0410968   -0.0704048   -8.4353302  
H    3.3327629   -2.8241129   -5.5805893  
C    0.0000000    0.0000000    1.4700000  
C    1.0662921    0.0000102    2.3034270  
C    0.4961870   -0.0000064    3.6418889  
C   -0.9663858    0.0000850    3.4240247  
N   -1.2632773    0.0000084    2.1528658  
C   -1.8985362    0.0000517    4.5177257  
C   -1.3925775   -0.0004564    5.7720543  
O   -2.1456383   -0.0005410    6.8851312  
C    0.0786232   -0.0009323    6.0245000  
O    0.4683759   -0.0012588    7.1921102  
C    1.0143166   -0.0008442    4.8859032  
H    2.1107198   -0.0000632    2.0421868  
H   -2.9622183    0.0003270    4.3293377  
H   -1.5042274   -0.0009692    7.6184419  
H    2.0724152   -0.0013148    5.1109744  
