58

C   -3.2573668   -0.0016218   -1.5109375  
C   -2.5379468   -0.0013202   -0.3591956  
C   -1.1435038   -0.0007050   -0.7338497  
C   -1.1092609   -0.0006434   -2.2088472  
N   -2.4227561   -0.0016144   -2.6182605  
C    0.0265523    0.0002680   -2.9515662  
C    1.3003029    0.0010281   -2.2514981  
O    2.3786772    0.0018109   -2.8306424  
C    1.2877717    0.0007255   -0.6895608  
O    2.3539959    0.0010525   -0.0892037  
C    0.0000000    0.0000000    0.0000000  
H   -2.9384082   -0.0016896    0.6389242  
H    0.0296279    0.0004260   -4.0327230  
H   -2.7280504   -0.0002621   -3.5742112  
C   -6.5597219   -0.0030331    1.3835039  
C   -7.6114508   -0.0035607    0.5244693  
C   -7.0637929   -0.0031632   -0.8115345  
C   -5.5962694   -0.0023843   -0.6593366  
N   -5.3559133   -0.0019432    0.6953288  
C   -4.7161329   -0.0022274   -1.6923248  
C   -5.2498356   -0.0026424   -3.0442482  
O   -4.5392148   -0.0024809   -4.0409022  
C   -6.8008633   -0.0032161   -3.2289581  
O   -7.2618459   -0.0032623   -4.3624288  
C   -7.6474464   -0.0036171   -2.0385170  
H   -8.7203347   -0.0042189   -2.1750239  
H   -6.5627881   -0.0031321    2.4614093  
H   -4.4461405   -0.0029395    1.1188362  
C   -9.6854773    2.1370223    3.7031195  
C  -10.9646805    1.7288987    3.5338479  
C  -10.9208990    0.8180458    2.4003006  
C   -9.4983219    0.7923461    1.9975598  
N   -8.7692837    1.5635272    2.7576732  
C   -9.0339154   -0.0041305    0.8952726  
C   -9.9489973   -0.7417160    0.2259989  
O   -9.6561559   -1.5304558   -0.8219390  
C  -11.3918503   -0.7372306    0.6085092  
O  -12.1690276   -1.4327991   -0.0452503  
C  -11.8434137    0.0880969    1.7429034  
H  -11.8309820    2.0110296    4.1074326  
H  -10.5088073   -1.9230959   -1.0826518  
H  -12.8967167    0.0636887    1.9882348  
H   -9.2985193    2.8195004    4.4430252  
C    0.0000000    0.0000000    1.4700000  
C    1.0662921    0.0000102    2.3034270  
C    0.4961870   -0.0000064    3.6418889  
C   -0.9663858    0.0000850    3.4240247  
N   -1.2632773    0.0000084    2.1528658  
C   -1.8985362    0.0000517    4.5177257  
C   -1.3925775   -0.0004564    5.7720543  
O   -2.1456383   -0.0005410    6.8851312  
C    0.0786232   -0.0009323    6.0245000  
O    0.4683759   -0.0012588    7.1921102  
C    1.0143166   -0.0008442    4.8859032  
H    2.1107198   -0.0000632    2.0421868  
H   -2.9622183    0.0003270    4.3293377  
H   -1.5042274   -0.0009692    7.6184419  
H    2.0724152   -0.0013148    5.1109744  
