60

C   -1.1160430    0.1367147   -0.7919006  
C   -0.7440838    0.0742130   -2.1148547  
C    0.6698844   -0.1117602   -2.1414702  
C    1.1093231   -0.1558529   -0.7935554  
N    0.0000000    0.0000000    0.0000000  
C    2.4511324   -0.3288224   -0.4408241  
C    3.3659559   -0.4599683   -1.4675061  
O    4.6890413   -0.6315000   -1.1793474  
C    2.9469908   -0.4182284   -2.8186328  
O    3.9771956   -0.5629708   -3.7247626  
C    1.6234638   -0.2473479   -3.1673483  
H   -1.4098189    0.1540686   -2.9571210  
H    2.7925060   -0.3631511    0.5845968  
H    5.1465185   -0.7002053   -2.0274390  
H    3.6090395   -0.5233399   -4.6127350  
H   -2.0889494    0.2694317   -0.3505409  
C    1.2288445   -0.2092078   -4.5828767  
C   -0.0070474   -0.0516108   -5.1230711  
C    0.1529330   -0.0867917   -6.5576456  
C    1.5936622   -0.2792115   -6.8107562  
N    2.1902611   -0.3452836   -5.5727767  
C    2.1528152   -0.3654413   -8.0442944  
C    1.2772431   -0.2615951   -9.1997699  
O    1.6846084   -0.3269184  -10.3521964  
C   -0.2519008   -0.0573537   -8.9552088  
O   -0.9988437    0.0317544   -9.9202978  
C   -0.7363940    0.0201797   -7.5793066  
H   -0.9258782    0.0750329   -4.5787134  
H    3.2121115   -0.5068219   -8.2080421  
H    3.1724876   -0.4746693   -5.4129719  
C   -2.1773202    0.2122386   -7.3607999  
C   -2.8357532    0.3107642   -6.1825222  
C   -4.2324936    0.4911673   -6.5473112  
C   -4.2363440    0.4770226   -8.0259486  
N   -3.0344708    0.3137552   -8.5084772  
C   -5.4469859    0.6289528   -8.7851256  
C   -6.6013599    0.7874077   -8.0983594  
O   -7.8043792    0.9400764   -8.6775636  
C   -6.6301749    0.8056056   -6.6060457  
O   -7.7167962    0.9540411   -6.0470810  
C   -5.3749913    0.6478294   -5.8500399  
H   -2.4244307    0.2663987   -5.1885798  
H   -5.4204092    0.6149608   -9.8649434  
H   -8.4278938    1.0292205   -7.9343035  
H   -5.4383814    0.6664749   -4.7702885  
C    0.8175213    0.6860729    2.3021913  
C    0.0000000    0.0000000    1.4700000  
C   -0.8887526   -0.7456559    2.3478473  
C   -0.4549825   -0.3816753    3.7138435  
N    0.5448156    0.4573574    3.6934124  
C   -1.0945674   -0.9182058    4.8835240  
C   -2.1210866   -1.7789155    4.6970523  
O   -2.8083856   -2.3554314    5.6976972  
C   -2.5824069   -2.1655116    3.3310774  
O   -3.5227682   -2.9541547    3.2362962  
C   -1.9100805   -1.6015804    2.1470656  
H   -0.7567140   -0.6349833    5.8697035  
H   -3.4728268   -2.9124471    5.2533954  
H   -2.2742832   -1.9066565    1.1752040  
H    1.6189533    1.3585343    2.0405121  
