58

C    3.2573671   -0.0002916   -1.5109383  
C    2.5379468   -0.0001707   -0.3591962  
C    1.1435044    0.0000332   -0.7338505  
C    1.1092610   -0.0000080   -2.2088480  
N    2.4227564    0.0001912   -2.6182614  
C   -0.0265531   -0.0002519   -2.9515665  
C   -1.3003034   -0.0002638   -2.2514983  
O   -2.3786783   -0.0004131   -2.8306430  
C   -1.2877727    0.0000312   -0.6895614  
O   -2.3539955    0.0003305   -0.0892044  
C    0.0000000    0.0000000    0.0000000  
H    2.9384088   -0.0000366    0.6389240  
H    4.3270398   -0.0004761   -1.6439444  
H    2.7280494   -0.0013402   -3.5742117  
C    2.4624173   -2.0918862   -5.9392956  
C    1.9141445   -1.6298144   -4.7860555  
C    0.8439987   -0.7345868   -5.1577961  
C    0.8135191   -0.7128498   -6.6327159  
N    1.8196257   -1.5559196   -7.0448718  
C   -0.0596539    0.0159613   -7.3730586  
C   -1.0343381    0.8337036   -6.6703333  
O   -1.8629430    1.5257398   -7.2472226  
C   -1.0200967    0.8261113   -5.1084287  
O   -1.8357401    1.5108614   -4.5058477  
C   -0.0307350   -0.0004643   -4.4215606  
H    2.2241310   -1.8866335   -3.7887767  
H   -0.0651886    0.0176600   -8.4542044  
H    3.2821088   -2.7786947   -6.0745348  
C    2.1571059   -1.8449154   -8.4461175  
C    3.1281184   -2.6608578   -8.9182944  
C    3.0185449   -2.5753355  -10.3664586  
C    1.8990229   -1.6381439  -10.6008219  
N    1.3901517   -1.2066179   -9.4788479  
C    1.4685375   -1.2830825  -11.9250956  
C    2.1267919   -1.8387055  -12.9678405  
O    1.8317398   -1.5969356  -14.2564571  
C    3.2608091   -2.7876775  -12.7638354  
O    3.8140674   -3.2553261  -13.7590393  
C    3.6835428   -3.1361214  -11.3956954  
H    3.8318857   -3.2481587   -8.3536127  
H    0.6473368   -0.5957666  -12.0669970  
H    2.4693725   -2.1330253  -14.7616154  
H    4.5092079   -3.8270847  -11.2904486  
C    2.5528530    2.1414826    2.8079335  
C    2.0663498    1.7338582    4.0032312  
C    0.9804344    0.8229586    3.6752840  
C    0.9495562    0.7966882    2.1971295  
N    1.8690446    1.5676019    1.6831036  
C    0.0000000    0.0000000    1.4700000  
C   -0.8785127   -0.7372425    2.1869543  
O   -1.8187535   -1.5261249    1.6395491  
C   -0.8723269   -0.7321790    3.6796354  
O   -1.7010379   -1.4274584    4.2670412  
C    0.1115397    0.0933559    4.4024240  
H    2.4028853    2.0163452    4.9860947  
H   -2.2861435   -1.9184361    2.3990168  
H    0.0832434    0.0693689    5.4835595  
H    3.3664920    2.8238276    2.6198634  
