62

C    0.0000000    0.0000000    0.0000000  
C    1.0521660   -0.0011902   -0.8862349  
C    0.4917205   -0.0011958   -2.1979136  
C   -0.9187438    0.0003152   -2.0478680  
N   -1.1833175   -0.0009410   -0.7007909  
C   -1.7951715    0.0010353   -3.1372088  
C   -1.2375854    0.0005225   -4.4010421  
O   -2.0474238    0.0015362   -5.4997578  
C    0.1673565   -0.0013567   -4.5711966  
O    0.5673498   -0.0020687   -5.8915554  
C    1.0325757   -0.0023413   -3.4969896  
H    2.0953050   -0.0030651   -0.6200570  
H   -2.0989779    0.0102376   -0.2891817  
H   -1.4634912    0.0006500   -6.2693589  
H    1.5290687   -0.0033153   -5.9180049  
H    2.1042132   -0.0039613   -3.6584467  
C   -4.5382428    2.1273451   -0.3186938  
C   -3.4269656    1.6642221   -0.9843118  
C   -3.8900514    0.7769064   -2.0005905  
C   -5.3047977    0.7380671   -1.9061927  
N   -5.6653153    1.5677436   -0.8735837  
C   -6.0984779   -0.0377243   -2.7564913  
C   -5.4522268   -0.7877405   -3.7198258  
O   -6.1789727   -1.5628746   -4.5765752  
C   -4.0415012   -0.7624921   -3.8295247  
O   -3.5480042   -1.5637036   -4.8384179  
C   -3.2578666    0.0024045   -2.9908496  
H   -2.4078447    1.9320313   -0.7637129  
H   -6.6071045    1.7500077   -0.5772823  
H   -7.1771665   -0.0717833   -2.6896169  
H   -5.5421637   -1.9965791   -5.1593612  
H   -2.5888299   -1.4891816   -4.8443289  
C   -1.5115062    4.3344228    2.0188483  
C   -2.1443596    3.5334015    1.1233395  
C   -3.5592676    3.6375238    1.3917222  
C   -3.6998615    4.5715863    2.5251025  
N   -2.4221098    4.9576390    2.8585760  
C   -4.8839670    4.9347628    3.0798104  
C   -6.1011605    4.3676779    2.5235823  
O   -7.2162802    4.6323468    2.9534184  
C   -5.9758827    3.3760901    1.3232222  
O   -6.9937075    2.8920432    0.8467856  
C   -4.6443911    3.0614860    0.8113566  
H   -1.6737028    2.9374494    0.3618035  
H   -4.9651087    5.6216302    3.9107976  
H   -0.4564938    4.5217253    2.1361355  
H   -2.1873843    5.5955842    3.5968015  
C    3.1301144    0.0010313    3.1728260  
C    2.5367765    0.0002768    1.9564670  
C    1.1089900   -0.0001027    2.2356185  
C    1.0177864    0.0004150    3.7115134  
N    2.1993570    0.0011613    4.2663826  
C   -0.2459220    0.0002880    4.3957118  
C   -1.3675327    0.0000606    3.6398520  
O   -2.6129319   -0.0000866    4.1448486  
C   -1.3083589   -0.0000910    2.1483229  
O   -2.3693264   -0.0004206    1.5241687  
C    0.0000000    0.0000000    1.4700000  
H    3.0096015    0.0001008    0.9892483  
H   -0.2829642    0.0004689    5.4753125  
H   -3.1967446   -0.0002093    3.3649027  
H    4.1849273    0.0015113    3.3971983  
