60

C    1.1243403    0.0100071   -0.7919005  
C    0.7474063    0.0234641   -2.1148547  
C   -0.6787396    0.0234399   -2.1414694  
C   -1.1201751    0.0098444   -0.7935542  
N    0.0000000    0.0000000    0.0000000  
C   -2.4730821    0.0063381   -0.4408232  
C   -3.3971966    0.0170530   -1.4675050  
O   -4.7313526    0.0145634   -1.1793451  
C   -2.9763665    0.0303112   -2.8186312  
O   -4.0166498    0.0394585   -3.7247610  
C   -1.6418581    0.0335043   -3.1673475  
H   -2.8160161   -0.0041484    0.5845973  
H   -5.1938834    0.0230181   -2.0274363  
H   -3.6464700    0.0481814   -4.6127333  
H   -1.3497493    0.0435688   -4.2109226  
H    2.1062462    0.0053096   -0.3505414  
C    4.4933197   -2.1126525   -2.7414616  
C    4.8571183   -1.6937521   -3.9758651  
C    3.8033290   -0.7789764   -4.3872210  
C    2.8586066   -0.7630355   -3.2497547  
N    3.2578298   -1.5428581   -2.2820322  
C    1.6628931    0.0339120   -3.2649305  
C    1.4221061    0.7812715   -4.3662068  
O    0.3456096    1.5716373   -4.5162629  
C    2.3565579    0.7867817   -5.5302219  
O    2.0740526    1.4909726   -6.4995136  
C    3.5764102   -0.0392394   -5.4905466  
H    5.7325101   -1.9711769   -4.5378265  
H    0.4529351    1.9720177   -5.3979256  
H    5.0127321   -2.8009846   -2.0938636  
C    5.1100574   -1.0528288   -7.2169786  
C    4.4612771    0.0040176   -6.6635941  
C    4.8079375    1.1672455   -7.4456188  
C    5.7183659    0.6980856   -8.5075977  
N    5.8612146   -0.6563997   -8.3130379  
C    6.2696494    1.4969268   -9.4560934  
C    5.9447933    2.9133567   -9.4290769  
O    6.3907224    3.7146024  -10.2399128  
C    4.9828723    3.4321727   -8.3131268  
O    4.7023576    4.6227533   -8.2801204  
C    4.4514463    2.4746135   -7.3464221  
H    6.9350532    1.1326356  -10.2264436  
H    3.7859412    2.8418541   -6.5770315  
H    5.1028000   -2.0878911   -6.9161744  
H    6.4228524   -1.2637708   -8.8811144  
C    2.3971438    2.0127888    3.1728260  
C    1.9431056    1.6308205    1.9564670  
C    0.8496017    0.7127664    2.2356185  
C    0.7794028    0.6545384    3.7115134  
N    1.6840587    1.4146091    4.2663826  
C   -0.1885723   -0.1578550    4.3957118  
C   -1.0476298   -0.8789867    3.6398520  
O   -2.0015663   -1.6796266    4.1448486  
C   -1.0022026   -0.8410666    2.1483229  
O   -1.8147390   -1.5232959    1.5241687  
C    0.0000000    0.0000000    1.4700000  
H    2.3054237    1.9346118    0.9892483  
H   -0.2170646   -0.1815267    5.4753125  
H   -2.4487139   -2.0549881    3.3649027  
H    3.2048689    2.6911772    3.3971983  
