58

C   -4.7390836   -0.0007821   -1.2727314  
C   -5.7159776   -0.0014981   -2.2159985  
C   -6.9782049   -0.0014788   -1.5148437  
C   -6.6542737   -0.0006580   -0.0754484  
N   -5.2807307   -0.0006651    0.0037318  
C   -7.5764455   -0.0000010    0.9201933  
C   -8.9818051   -0.0003356    0.5493841  
O   -9.8878550    0.0001392    1.3724116  
C   -9.3478539   -0.0014556   -0.9691060  
O  -10.5277180   -0.0020525   -1.2934220  
C   -8.2653741   -0.0018121   -1.9499672  
H   -5.5691172   -0.0021666   -3.2813833  
H   -7.3176385    0.0007260    1.9699210  
H   -4.7530492    0.0013655    0.8573100  
C   -3.2798074   -0.0004616   -1.4499673  
C   -2.5571125   -0.0004597   -2.5996572  
C   -1.1637415   -0.0001106   -2.2210371  
C   -1.1336953    0.0000629   -0.7459477  
N   -2.4483509    0.0002354   -0.3402738  
C    0.0000000    0.0000000    0.0000000  
C    1.2757374   -0.0000294   -0.6964407  
O    2.3524604   -0.0000248   -0.1142297  
C    1.2676514    0.0000396   -2.2584074  
O    2.3355787    0.0003221   -2.8557280  
C   -0.0181534   -0.0001750   -2.9516298  
H   -2.9547331   -0.0004956   -3.5989125  
H   -0.0150763   -0.0003310   -4.0331629  
H   -2.7563630   -0.0011782    0.6148043  
C   -6.7076120   -2.0163197   -5.6077779  
C   -6.8536516   -1.6337009   -4.3178727  
C   -7.9823091   -0.7157743   -4.3244104  
C   -8.4077984   -0.6583241   -5.7394166  
N   -7.6643362   -1.4187042   -6.4964346  
C   -9.5127290    0.1537256   -6.1692885  
C  -10.1632782    0.8752721   -5.2282830  
O  -11.2111939    1.6756627   -5.4876791  
C   -9.7580400    0.8381386   -3.7921198  
O  -10.3953388    1.5207121   -2.9901449  
C   -8.6213196   -0.0025882   -3.3762218  
H   -6.2678801   -1.9369881   -3.4670117  
H   -9.8017902    0.1768279   -7.2098754  
H  -11.4562210    2.0514440   -4.6228650  
H   -5.9781786   -2.6948412   -6.0207051  
C    2.5528530    2.1414826    2.8079335  
C    2.0663498    1.7338582    4.0032312  
C    0.9804344    0.8229586    3.6752840  
C    0.9495562    0.7966882    2.1971295  
N    1.8690446    1.5676019    1.6831036  
C    0.0000000    0.0000000    1.4700000  
C   -0.8785127   -0.7372425    2.1869543  
O   -1.8187535   -1.5261249    1.6395491  
C   -0.8723269   -0.7321790    3.6796354  
O   -1.7010379   -1.4274584    4.2670412  
C    0.1115397    0.0933559    4.4024240  
H    2.4028853    2.0163452    4.9860947  
H   -2.2861435   -1.9184361    2.3990168  
H    0.0832434    0.0693689    5.4835595  
H    3.3664920    2.8238276    2.6198634  
