58

C    1.1319248    0.0015696   -0.8009268  
C    0.7969912    0.0034971   -2.1169400  
C   -0.6453339    0.0035684   -2.1842669  
C   -1.1266833    0.0015392   -0.7896024  
N    0.0000000    0.0000000    0.0000000  
C   -2.4346126    0.0013873   -0.4276294  
C   -3.4350110    0.0031282   -1.4820179  
O   -4.6384612    0.0030804   -1.2583909  
C   -2.9478963    0.0050398   -2.9661070  
O   -3.7809381    0.0062078   -3.8623773  
C   -1.5113830    0.0053032   -3.2312123  
H   -2.7664562    0.0000130    0.6013450  
H   -1.1823533    0.0068362   -4.2614848  
H    2.1104315    0.0009468   -0.3488058  
C    4.5953966   -2.1014890   -2.7684681  
C    4.9007896   -1.6358374   -4.0070072  
C    3.8360934   -0.7408463   -4.3946268  
C    2.8785335   -0.7231045   -3.2723281  
N    3.3968165   -1.5686630   -2.3187544  
C    1.7334691    0.0049309   -3.2500364  
C    1.4233467    0.8256481   -4.4088217  
O    0.4162238    1.5171702   -4.4849913  
C    2.4231572    0.8219202   -5.6088924  
O    2.1725267    1.5087261   -6.5900873  
C    3.6246487   -0.0037263   -5.5162700  
H    4.3119091   -0.0005742   -6.3513669  
H    5.1449916   -2.7892376   -2.1465060  
H    2.9710736   -1.7664948   -1.4318201  
C    6.9169466   -5.4664925   -4.5056960  
C    7.9348067   -5.1464638   -5.3382348  
C    7.7793606   -3.7221373   -5.5904853  
C    6.5847862   -3.3336567   -4.8103196  
N    6.0749955   -4.3519871   -4.1722712  
C    6.0920755   -1.9838117   -4.7948222  
C    6.7625031   -1.0637971   -5.5251882  
O    6.4144979    0.2319581   -5.6023350  
C    7.9716027   -1.4247155   -6.3226688  
O    8.5318922   -0.5359401   -6.9640544  
C    8.4572778   -2.8161337   -6.3223440  
H    8.6970336   -5.7966241   -5.7324140  
H    7.0775771    0.6320032   -6.1934721  
H    9.3364275   -3.0367731   -6.9128053  
H    6.6819537   -6.4308825   -4.0841470  
C    2.3971438    2.0127888    3.1728260  
C    1.9431056    1.6308205    1.9564670  
C    0.8496017    0.7127664    2.2356185  
C    0.7794028    0.6545384    3.7115134  
N    1.6840587    1.4146091    4.2663826  
C   -0.1885723   -0.1578550    4.3957118  
C   -1.0476298   -0.8789867    3.6398520  
O   -2.0015663   -1.6796266    4.1448486  
C   -1.0022026   -0.8410666    2.1483229  
O   -1.8147390   -1.5232959    1.5241687  
C    0.0000000    0.0000000    1.4700000  
H    2.3054237    1.9346118    0.9892483  
H   -0.2170646   -0.1815267    5.4753125  
H   -2.4487139   -2.0549881    3.3649027  
H    3.2048689    2.6911772    3.3971983  
