58

C    1.1319245    0.0015678   -0.8009267  
C    0.7969910    0.0034958   -2.1169399  
C   -0.6453341    0.0035697   -2.1842670  
C   -1.1266835    0.0015411   -0.7896024  
N    0.0000000    0.0000000    0.0000000  
C   -2.4346131    0.0013918   -0.4276289  
C   -3.4350111    0.0031343   -1.4820175  
O   -4.6384613    0.0030887   -1.2583912  
C   -2.9478961    0.0050449   -2.9661070  
O   -3.7809384    0.0062147   -3.8623772  
C   -1.5113831    0.0053060   -3.2312120  
H   -2.7664565    0.0000180    0.6013454  
H   -1.1823539    0.0068384   -4.2614847  
H    2.1104313    0.0009432   -0.3488057  
C    4.6689256   -2.0036412   -3.0356157  
C    3.5435025   -1.6233429   -2.3872520  
C    2.8771267   -0.7061849   -3.2989891  
C    3.7631655   -0.6465941   -4.4813459  
N    4.8150682   -1.4051578   -4.3327803  
C    3.4517402    0.1654320   -5.6253365  
C    2.3069985    0.8849094   -5.5899294  
O    1.8922493    1.6850223   -6.5868466  
C    1.3918761    0.8455848   -4.4113009  
O    0.3669542    1.5263381   -4.4477807  
C    1.7334690    0.0049280   -3.2500365  
H    3.2070445   -1.9276896   -1.4109095  
H    1.0501682    2.0591464   -6.2704866  
H    5.4354486   -2.6809480   -2.6940436  
C    5.0323302   -0.8324931   -7.3414374  
C    4.3577341    0.1990345   -6.7824645  
C    4.7228882    1.3610373   -7.5780223  
C    5.6505998    0.8348827   -8.6022766  
N    5.8357623   -0.4503616   -8.4686675  
C    6.2448891    1.6833490   -9.5982734  
C    5.9265531    2.9976284   -9.5724639  
O    6.4071968    3.9035018  -10.4410347  
C    4.9931555    3.5587996   -8.5516713  
O    4.7484890    4.7646410   -8.5878118  
C    4.3965470    2.6679899   -7.5405131  
H    6.9196700    1.2719715  -10.3347169  
H    6.0016519    4.7467286  -10.1696416  
H    3.7252506    3.1133561   -6.8185432  
H    5.0296207   -1.8682662   -7.0412029  
C    0.0000000    0.0000000    1.4700000  
C    1.0662921    0.0000102    2.3034270  
C    0.4961870   -0.0000064    3.6418889  
C   -0.9663858    0.0000850    3.4240247  
N   -1.2632773    0.0000084    2.1528658  
C   -1.8985362    0.0000517    4.5177257  
C   -1.3925775   -0.0004564    5.7720543  
O   -2.1456383   -0.0005410    6.8851312  
C    0.0786232   -0.0009323    6.0245000  
O    0.4683759   -0.0012588    7.1921102  
C    1.0143166   -0.0008442    4.8859032  
H    2.1107198   -0.0000632    2.0421868  
H   -2.9622183    0.0003270    4.3293377  
H   -1.5042274   -0.0009692    7.6184419  
H    2.0724152   -0.0013148    5.1109744  
