60

C    3.3003547    0.0005275   -1.4738980  
C    2.5232816    0.0003495   -2.6090742  
C    1.1623206   -0.0001320   -2.1820096  
C    1.1711889    0.0000583   -0.7636136  
N    2.4852300   -0.0014920   -0.3662353  
C    0.0000000    0.0000000    0.0000000  
C   -1.2020382    0.0000519   -0.6806479  
O   -2.3759247    0.0003494    0.0157745  
C   -1.2314650   -0.0005113   -2.0955508  
O   -2.5054383   -0.0008037   -2.6250181  
C   -0.0764510   -0.0007273   -2.8495192  
H    2.8919962   -0.0005621   -3.6205295  
H    2.8036265    0.0088181    0.5858667  
H   -3.0835641    0.0000347   -0.6418820  
H   -2.4360047   -0.0011529   -3.5845921  
C    4.7630506    0.0004754   -1.3275394  
C    5.7197939    0.0016001   -2.2912393  
C    6.9965554    0.0009190   -1.6169147  
C    6.7031142   -0.0007357   -0.1709964  
N    5.3315513   -0.0005303   -0.0628077  
C    7.6461200   -0.0021758    0.8049349  
C    9.0433290   -0.0018644    0.4045106  
O    9.9665686   -0.0030125    1.2082067  
C    9.3772075    0.0001308   -1.1213748  
O   10.5499555    0.0007163   -1.4705512  
C    8.2742418    0.0012902   -2.0791415  
H    5.5504517    0.0029554   -3.3532822  
H    7.4095536   -0.0035069    1.8598966  
H    8.5138921    0.0024645   -3.1337934  
H    4.8220248   -0.0029950    0.8017291  
C   -0.1496409   -0.0015614   -4.3176961  
C    0.8738332   -0.0018840   -5.2031785  
C    0.2377946   -0.0027127   -6.5115952  
C   -1.2121170   -0.0029007   -6.2211811  
N   -1.4453505   -0.0021475   -4.9368173  
C   -2.1975656   -0.0036284   -7.2671145  
C   -1.7546863   -0.0037559   -8.5450784  
O   -2.5622321   -0.0044162   -9.6192807  
C   -0.2978794   -0.0032017   -8.8704614  
O    0.0332557   -0.0034791  -10.0560289  
C    0.6933431   -0.0025028   -7.7798645  
H    1.9299725   -0.0015051   -4.9942637  
H   -3.2505489   -0.0039569   -7.0260003  
H   -1.9581276   -0.0043076  -10.3836173  
H    1.7389231   -0.0020006   -8.0573383  
C    2.5528530    2.1414826    2.8079335  
C    2.0663498    1.7338582    4.0032312  
C    0.9804344    0.8229586    3.6752840  
C    0.9495562    0.7966882    2.1971295  
N    1.8690446    1.5676019    1.6831036  
C    0.0000000    0.0000000    1.4700000  
C   -0.8785127   -0.7372425    2.1869543  
O   -1.8187535   -1.5261249    1.6395491  
C   -0.8723269   -0.7321790    3.6796354  
O   -1.7010379   -1.4274584    4.2670412  
C    0.1115397    0.0933559    4.4024240  
H    2.4028853    2.0163452    4.9860947  
H   -2.2861435   -1.9184361    2.3990168  
H    0.0832434    0.0693689    5.4835595  
H    3.3664920    2.8238276    2.6198634  
