60

C    3.1301152   -0.0010311   -1.7028248  
C    2.5367767   -0.0002766   -0.4864663  
C    1.1089906    0.0001028   -0.7656180  
C    1.0177872   -0.0004148   -2.2415129  
N    2.1993581   -0.0011610   -2.7963816  
C   -0.2459210   -0.0002877   -2.9257117  
C   -1.3675316   -0.0000605   -2.1698524  
O   -2.6129307    0.0000866   -2.6748494  
C   -1.3083586    0.0000911   -0.6783233  
O   -2.3693263    0.0004206   -0.0541693  
C    0.0000000    0.0000000    0.0000000  
H    3.0096017   -0.0001007    0.4807526  
H   -3.1967436    0.0002093   -1.8949037  
C    4.5679462   -0.0016852   -2.0086697  
C    5.6049853   -0.0016930   -1.1391127  
C    6.7955423   -0.0024716   -1.9752190  
C    6.2781454   -0.0029781   -3.3604573  
N    4.9730343   -0.0024398   -3.3863775  
C    7.1539718   -0.0037578   -4.4997619  
C    8.4861205   -0.0036309   -4.2658482  
O    9.4181590   -0.0043052   -5.2340135  
C    9.0391359   -0.0027523   -2.8793659  
O   10.2622859   -0.0028089   -2.7410728  
C    8.1201341   -0.0020060   -1.7272550  
H    5.5667631   -0.0011377   -0.0631872  
H    6.7483991   -0.0043218   -5.5009712  
H   10.2688734   -0.0039788   -4.7592102  
H    8.5604259   -0.0012651   -0.7391394  
C    2.2088393   -2.1426203   -5.8191629  
C    1.6816931   -1.7351239   -6.9971451  
C    0.6077920   -0.8240078   -6.6323119  
C    0.6276223   -0.7974852   -5.1539723  
N    1.5640858   -1.5684496   -4.6716451  
C   -0.2963280   -0.0005339   -4.3948472  
C   -1.1988032    0.7367192   -5.0813824  
O   -2.1196076    1.5258332   -4.5021939  
C   -1.2438065    0.7314048   -6.5733968  
O   -2.0920731    1.4267091   -7.1321601  
C   -0.2854213   -0.0943976   -7.3293548  
H    1.9842874   -2.0178255   -7.9909217  
H   -2.6127091    1.9180867   -5.2452560  
H   -0.3507702   -0.0705874   -8.4088886  
H    3.0283512   -2.8250548   -5.6589855  
C    2.5285572    2.1210227    2.9438989  
C    1.9331703    1.6216660    4.0790748  
C    0.8903039    0.7472258    3.6520102  
C    0.8972198    0.7527806    2.2336141  
N    1.9028376    1.5986179    1.8362361  
C    0.0000000    0.0000000    1.4700000  
C   -0.9207814   -0.7726952    2.1506477  
O   -1.8198395   -1.5274828    1.4542253  
C   -0.9436862   -0.7911793    3.5655508  
O   -1.9197945   -1.6098497    4.0950179  
C   -0.0590329   -0.0485852    4.3195194  
H    2.2150357    1.8593692    5.0905303  
H    2.1533708    1.7953814    0.8841339  
H   -2.3621246   -1.9821033    2.1118817  
H   -1.8668290   -1.5649508    5.0545920  
H   -0.1007624   -0.0827977    5.4019087  
H    3.3491200    2.8096064    2.8367138  
