62

C    3.3003547    0.0005275   -1.4738980  
C    2.5232816    0.0003495   -2.6090742  
C    1.1623206   -0.0001320   -2.1820096  
C    1.1711889    0.0000583   -0.7636136  
N    2.4852300   -0.0014920   -0.3662353  
C    0.0000000    0.0000000    0.0000000  
C   -1.2020382    0.0000519   -0.6806479  
O   -2.3759247    0.0003494    0.0157745  
C   -1.2314650   -0.0005113   -2.0955508  
O   -2.5054383   -0.0008037   -2.6250181  
C   -0.0764510   -0.0007273   -2.8495192  
H    2.8919962   -0.0005621   -3.6205295  
H    2.8036265    0.0088181    0.5858667  
H   -3.0835641    0.0000347   -0.6418820  
H   -2.4360047   -0.0011529   -3.5845921  
C    6.4260944    0.0030630   -4.5098895  
C    7.5522601    0.0028889   -3.7593359  
C    7.0848225    0.0018026   -2.3816560  
C    5.6099767    0.0015409   -2.4884878  
N    5.2179721    0.0021960   -3.7336069  
C    4.7630506    0.0004754   -1.3275394  
C    5.3622562   -0.0006825   -0.1149857  
O    4.6953714   -0.0017512    1.0517637  
C    6.8483162   -0.0008251    0.0256774  
O    7.3251007   -0.0017842    1.1605328  
C    7.6953858    0.0003257   -1.1803061  
H    8.5739858    0.0033403   -4.0986751  
H    5.3903102   -0.0024423    1.7345606  
H    8.7674559    0.0000662   -1.0357539  
H    6.3446843    0.0037692   -5.5852243  
C    2.3338141   -2.1434184   -5.7798768  
C    1.7883286   -1.7365457   -6.9496967  
C    0.7199257   -0.8256236   -6.5685990  
C    0.7626769   -0.7985191   -5.0907552  
N    1.7067554   -1.5690026   -4.6227165  
C   -0.1496409   -0.0015614   -4.3176961  
C   -1.0628921    0.7351418   -4.9904330  
O   -1.9748529    1.5241932   -4.3973342  
C   -1.1310322    0.7292322   -6.4815671  
O   -1.9880859    1.4240534   -7.0273727  
C   -0.1842253   -0.0965645   -7.2519836  
H    2.0755614   -2.0195396   -7.9479388  
H   -2.4795466    1.9160029   -5.1328082  
H   -0.2663195   -0.0731952   -8.3303829  
H    3.1559296   -2.8255340   -5.6321685  
C    0.0000000    0.0000000    1.4700000  
C    1.0521667    0.0011902    2.3562342  
C    0.4917218    0.0011957    3.6679131  
C   -0.9187428   -0.0003148    3.5178682  
N   -1.1833171    0.0009411    2.1707914  
C   -1.7951701   -0.0010350    4.6072090  
C   -1.2375837   -0.0005224    5.8710424  
O   -2.0474215   -0.0015360    6.9697579  
C    0.1673580    0.0013566    6.0411963  
O    0.5673524    0.0020687    7.3615553  
C    1.0325770    0.0023412    4.9669890  
H    2.0953057    0.0030649    2.0900562  
H   -2.0989778   -0.0102372    1.7591824  
H   -2.8710934   -0.0020419    4.4995513  
H   -1.4634884   -0.0006497    7.7393593  
H    1.5290710    0.0033153    7.3880045  
H    2.1042148    0.0039609    5.1284455  
