64

C    5.9071319   -2.1224379   -4.5070230  
C    5.7365513   -1.6242143   -5.7779051  
C    4.6105079   -0.7497129   -5.7346236  
C    4.1312171   -0.7540644   -4.3996377  
N    4.9399006   -1.5992754   -3.6811211  
C    3.0267438   -0.0008951   -3.9901699  
C    2.3947817    0.7709583   -4.9457029  
O    1.3115943    1.5260768   -4.5999942  
C    2.8578549    0.7882373   -6.2828947  
O    2.1221350    1.6061780   -7.1153803  
C    3.9472180    0.0452596   -6.6876136  
H    6.3477797   -1.8626928   -6.6314395  
H    4.8491913   -1.7951604   -2.7006206  
H    1.0273564    1.9799843   -5.4040106  
H    2.5005414    1.5604824   -7.9987399  
H    4.2787220    0.0785434   -7.7188637  
C    7.9032564   -3.6543220   -4.7289622  
C    8.6432875   -4.4842150   -3.9189635  
C    8.0785279   -4.4020861   -2.6117138  
C    6.9870542   -3.4992468   -2.6858328  
N    6.9096792   -3.0622341   -3.9849286  
C    6.1956265   -3.1770198   -1.5792164  
C    6.5116054   -3.7773686   -0.3759226  
O    5.7712635   -3.4985049    0.7363467  
C    7.5970508   -4.6805697   -0.2818401  
O    7.7842808   -5.1945733    0.9846870  
C    8.3784104   -4.9987115   -1.3730728  
H    9.4871239   -5.0751514   -4.2315769  
H    5.3624717   -2.4895840   -1.6290974  
H    6.1554829   -4.0150299    1.4566535  
H    8.5359010   -5.7946783    0.9613347  
H    9.2034278   -5.6938981   -1.2704023  
H    8.0064419   -3.4368042   -5.7782472  
C    3.3003547    0.0005277   -1.4738986  
C    2.5232816    0.0003497   -2.6090746  
C    1.1623203   -0.0001319   -2.1820102  
C    1.1711884    0.0000584   -0.7636141  
N    2.4852301   -0.0014919   -0.3662359  
C    0.0000000    0.0000000    0.0000000  
C   -1.2020383    0.0000520   -0.6806479  
O   -2.3759248    0.0003493    0.0157745  
C   -1.2314655   -0.0005115   -2.0955511  
O   -2.5054388   -0.0008040   -2.6250184  
C   -0.0764513   -0.0007274   -2.8495195  
H    2.8036266    0.0088183    0.5858662  
H   -3.0835639    0.0000346   -0.6418822  
H   -2.4360043   -0.0011529   -3.5845924  
H   -0.1304091   -0.0013423   -3.9319089  
H    4.3715553    0.0004897   -1.3667133  
C    2.3971438    2.0127888    3.1728260  
C    1.9431056    1.6308205    1.9564670  
C    0.8496017    0.7127664    2.2356185  
C    0.7794028    0.6545384    3.7115134  
N    1.6840587    1.4146091    4.2663826  
C   -0.1885723   -0.1578550    4.3957118  
C   -1.0476298   -0.8789867    3.6398520  
O   -2.0015663   -1.6796266    4.1448486  
C   -1.0022026   -0.8410666    2.1483229  
O   -1.8147390   -1.5232959    1.5241687  
C    0.0000000    0.0000000    1.4700000  
H    2.3054237    1.9346118    0.9892483  
H   -0.2170646   -0.1815267    5.4753125  
H   -2.4487139   -2.0549881    3.3649027  
H    3.2048689    2.6911772    3.3971983  
