64

C    1.6071931   -2.0691457   -5.4061230  
C    0.7600335   -1.6164453   -4.4213127  
C   -0.1612455   -0.7224869   -5.0431512  
C    0.1755311   -0.6690404   -6.4199773  
N    1.2548206   -1.4967870   -6.6059514  
C   -0.5252826    0.1165519   -7.3400286  
C   -1.5855717    0.8615308   -6.8615196  
O   -2.3042733    1.6457779   -7.7167607  
C   -1.9367274    0.8217439   -5.4911458  
O   -3.0155710    1.6195945   -5.1704046  
C   -1.2456329    0.0471727   -4.5828766  
H    0.8017174   -1.8952903   -3.3823224  
H    1.7089804   -1.6697413   -7.4844764  
H   -0.2735270    0.1617574   -8.3906377  
H   -2.9880783    2.0738677   -7.1853335  
H   -3.1866799    1.5350662   -4.2274410  
C    3.4051104   -4.3363374   -1.9977514  
C    2.6156697   -3.5144886   -2.7683464  
C    3.1095795   -3.5955213   -4.1040434  
C    4.2103902   -4.4898695   -4.0872018  
N    4.3638430   -4.9198654   -2.7925309  
C    4.9429474   -4.8092480   -5.2344363  
C    4.5570259   -4.2151963   -6.4203302  
O    5.2374806   -4.4921728   -7.5706686  
C    3.4616040   -3.3199301   -6.4572992  
O    3.2019038   -2.8108850   -7.7129957  
C    2.7386332   -3.0041860   -5.3258640  
H    1.7865723   -2.9277975   -2.4114381  
H    5.0593203   -5.5710224   -2.4758503  
H    5.7830301   -5.4900010   -5.2282185  
H    4.8108648   -3.9804167   -8.2702176  
H    2.4483498   -2.2160620   -7.6501752  
H    3.3610439   -4.5513421   -0.9438110  
C    1.1243410    0.0099923   -0.7919003  
C    0.7474076    0.0234544   -2.1148543  
C   -0.6787381    0.0234490   -2.1414700  
C   -1.1201745    0.0098592   -0.7935546  
N    0.0000000    0.0000000    0.0000000  
C   -2.4730816    0.0063709   -0.4408240  
C   -3.3971958    0.0170982   -1.4675058  
O   -4.7313517    0.0146259   -1.1793471  
C   -2.9763648    0.0303504   -2.8186324  
O   -4.0166480    0.0395118   -3.7247624  
C   -1.6418562    0.0335260   -3.1673481  
H    1.4178717    0.0310972   -2.9571209  
H   -2.8160166   -0.0041111    0.5845966  
H   -5.1938818    0.0230867   -2.0274384  
H   -3.6464675    0.0482293   -4.6127343  
H    2.1062467    0.0052819   -0.3505407  
C    0.0000000    0.0000000    1.4700000  
C    1.0662921    0.0000102    2.3034270  
C    0.4961870   -0.0000064    3.6418889  
C   -0.9663858    0.0000850    3.4240247  
N   -1.2632773    0.0000084    2.1528658  
C   -1.8985362    0.0000517    4.5177257  
C   -1.3925775   -0.0004564    5.7720543  
O   -2.1456383   -0.0005410    6.8851312  
C    0.0786232   -0.0009323    6.0245000  
O    0.4683759   -0.0012588    7.1921102  
C    1.0143166   -0.0008442    4.8859032  
H    2.1107198   -0.0000632    2.0421868  
H   -2.9622183    0.0003270    4.3293377  
H   -1.5042274   -0.0009692    7.6184419  
H    2.0724152   -0.0013148    5.1109744  
