60

C   -3.3002320   -0.0285289   -1.4738976  
C   -2.5231883   -0.0217580   -2.6090739  
C   -1.1622799   -0.0097295   -2.1820099  
C   -1.1711460   -0.0099952   -0.7636137  
N   -2.4851535   -0.0195937   -0.3662349  
C    0.0000000    0.0000000    0.0000000  
C    1.2019955    0.0101465   -0.6806482  
O    2.3758423    0.0198089    0.0157738  
C    1.2314163    0.0109595   -2.0955512  
O    2.5053411    0.0220609   -2.6250187  
C    0.0764420    0.0013760   -2.8495194  
H   -2.8034508   -0.0326048    0.5858670  
H    3.0834531    0.0261274   -0.6418821  
H    2.4359061    0.0218208   -3.5845928  
H    0.1303923    0.0024486   -3.9319086  
H   -4.3713939   -0.0375792   -1.3667124  
C   -3.0266435   -0.0247848   -3.9901693  
C   -4.3138414   -0.0357853   -4.4079954  
C   -4.2366436   -0.0335883   -5.8607638  
C   -2.7879700   -0.0202992   -6.1569935  
N   -2.0736910   -0.0151705   -5.0643966  
C   -2.2868100   -0.0144590   -7.5038012  
C   -3.1917345   -0.0219601   -8.5089828  
O   -2.8654613   -0.0177722   -9.8126582  
C   -4.6603541   -0.0357801   -8.2422886  
O   -5.4264069   -0.0419081   -9.2057955  
C   -5.1494669   -0.0415040   -6.8520870  
H   -5.2055895   -0.0444251   -3.8048477  
H   -3.7191995   -0.0253014  -10.2819416  
H   -6.2206098   -0.0516614   -6.7011574  
C    0.1068186   -0.7192911   -7.0432384  
C    1.3565763   -0.4906160   -7.5227053  
C    1.2227909    0.4363187   -8.6216730  
C   -0.2176785    0.7310585   -8.7440107  
N   -0.8391400   -0.0009390   -7.7586910  
C   -0.7556210    1.5675649   -9.6673628  
C    0.1441454    2.2210517  -10.6032638  
O   -0.2430466    2.9918134  -11.4717743  
C    1.6734684    1.9233414  -10.4921598  
O    2.4406759    2.4674593  -11.2748400  
C    2.1338649    1.0034533   -9.4550036  
H    2.2681224   -0.9221793   -7.1492747  
H   -1.8151454    1.7701574   -9.7399854  
H    3.1942943    0.8028016   -9.3846276  
H   -0.2027491   -1.3523234   -6.2275625  
C    0.0000000    0.0000000    1.4700000  
C    1.0662921    0.0000102    2.3034270  
C    0.4961870   -0.0000064    3.6418889  
C   -0.9663858    0.0000850    3.4240247  
N   -1.2632773    0.0000084    2.1528658  
C   -1.8985362    0.0000517    4.5177257  
C   -1.3925775   -0.0004564    5.7720543  
O   -2.1456383   -0.0005410    6.8851312  
C    0.0786232   -0.0009323    6.0245000  
O    0.4683759   -0.0012588    7.1921102  
C    1.0143166   -0.0008442    4.8859032  
H    2.1107198   -0.0000632    2.0421868  
H   -2.9622183    0.0003270    4.3293377  
H   -1.5042274   -0.0009692    7.6184419  
H    2.0724152   -0.0013148    5.1109744  
