58

C    3.2798082    0.0005856   -1.4499651  
C    2.5571141    0.0005564   -2.5996557  
C    1.1637430    0.0001547   -2.2210361  
C    1.1336957   -0.0000201   -0.7459470  
N    2.4483511   -0.0001429   -0.3402721  
C    0.0000000    0.0000000    0.0000000  
C   -1.2757373   -0.0000187   -0.6964409  
O   -2.3524598   -0.0000640   -0.1142310  
C   -1.2676502   -0.0000875   -2.2584078  
O   -2.3355770   -0.0004103   -2.8557291  
C    0.0181554    0.0001757   -2.9516296  
H    2.9547346    0.0006074   -3.5989107  
H    0.0150783    0.0003316   -4.0331629  
H    2.7563625    0.0012824    0.6148059  
C    6.4690078    0.0019755   -4.4192243  
C    7.5790602    0.0025231   -3.6450395  
C    7.0826139    0.0021761   -2.2775451  
C    5.6103552    0.0015082   -2.4155205  
N    5.2447502    0.0013071   -3.6686456  
C    4.7390845    0.0009614   -1.2727285  
C    5.3125314    0.0006874   -0.0477823  
O    4.6211391    0.0001824    1.1046138  
C    6.7952867    0.0009744    0.1242535  
O    7.2479824    0.0008235    1.2689314  
C    7.6676532    0.0015791   -1.0635602  
H    8.6077289    0.0030018   -3.9627114  
H    5.3014935    0.0000717    1.8019448  
H    8.7364289    0.0016562   -0.8963845  
C    9.5851079    0.0043462   -7.5132918  
C    8.8009397    0.0039671   -8.6219642  
C    7.4302294    0.0028278   -8.1681041  
C    7.4804743    0.0026017   -6.6935648  
N    8.8152516    0.0031563   -6.3600095  
C    6.3890374    0.0020110   -5.8870477  
C    5.0773025    0.0013424   -6.5130559  
O    4.0338477    0.0007201   -5.8731322  
C    5.0004047    0.0013156   -8.0731493  
O    3.9015643    0.0004491   -8.6114898  
C    6.2465936    0.0022678   -8.8352941  
H    9.1436109    0.0042500   -9.6413708  
H    6.1846839    0.0024481   -9.9150586  
H   10.6606396    0.0051779   -7.4417335  
H    9.1747635    0.0047194   -5.4231019  
C    2.5528530    2.1414826    2.8079335  
C    2.0663498    1.7338582    4.0032312  
C    0.9804344    0.8229586    3.6752840  
C    0.9495562    0.7966882    2.1971295  
N    1.8690446    1.5676019    1.6831036  
C    0.0000000    0.0000000    1.4700000  
C   -0.8785127   -0.7372425    2.1869543  
O   -1.8187535   -1.5261249    1.6395491  
C   -0.8723269   -0.7321790    3.6796354  
O   -1.7010379   -1.4274584    4.2670412  
C    0.1115397    0.0933559    4.4024240  
H    2.4028853    2.0163452    4.9860947  
H   -2.2861435   -1.9184361    2.3990168  
H    0.0832434    0.0693689    5.4835595  
H    3.3664920    2.8238276    2.6198634  
