58

C    3.2573673   -0.0002917   -1.5109377  
C    2.5379468   -0.0001707   -0.3591959  
C    1.1435046    0.0000331   -0.7338499  
C    1.1092609   -0.0000082   -2.2088471  
N    2.4227566    0.0001911   -2.6182607  
C   -0.0265527   -0.0002523   -2.9515661  
C   -1.3003032   -0.0002640   -2.2514977  
O   -2.3786784   -0.0004133   -2.8306429  
C   -1.2877727    0.0000311   -0.6895607  
O   -2.3539950    0.0003303   -0.0892036  
C    0.0000000    0.0000000    0.0000000  
H    2.9384091   -0.0000367    0.6389243  
H   -0.0296287   -0.0004085   -4.0327233  
H    4.3270397   -0.0004762   -1.6439437  
C    5.7077630   -2.0955287   -4.6950671  
C    4.8321771   -1.6318727   -3.7663859  
C    3.9281504   -0.7371772   -4.4498268  
C    4.3518510   -0.7174787   -5.8629368  
N    5.4355537   -1.5611007   -5.9452787  
C    3.7483574    0.0102945   -6.8365106  
C    2.6053650    0.8289911   -6.4679470  
O    1.9941043    1.5202159   -7.2722292  
C    2.1395175    0.8235572   -4.9770536  
O    1.1785724    1.5091258   -4.6548099  
C    2.8699646   -0.0020524   -4.0185822  
H    4.8209993   -1.8873086   -2.7217615  
H    4.0749288    0.0104993   -7.8671710  
H    6.5291178   -2.7825099   -4.5712820  
C    7.2688516   -5.1965654   -7.7582472  
C    6.6075923   -4.3856267   -6.8999381  
C    6.6534531   -3.0690188   -7.5171417  
C    7.4009780   -3.2735859   -8.7764840  
N    7.7642357   -4.5187674   -8.9233057  
C    7.6647578   -2.1948313   -9.6885119  
C    7.2024286   -0.9675806   -9.3576901  
O    7.3759005    0.1290524  -10.1148856  
C    6.4444229   -0.7292171   -8.0940569  
O    6.0536069    0.4137231   -7.8570528  
C    6.1867132   -1.8520267   -7.1749218  
H    6.1456600   -4.6484497   -5.9636595  
H    8.2137514   -2.3729396  -10.6016343  
H    6.9377515    0.8443470   -9.6193730  
H    7.4548348   -6.2545014   -7.6625641  
C    0.8175213    0.6860729    2.3021913  
C    0.0000000    0.0000000    1.4700000  
C   -0.8887526   -0.7456559    2.3478473  
C   -0.4549825   -0.3816753    3.7138435  
N    0.5448156    0.4573574    3.6934124  
C   -1.0945674   -0.9182058    4.8835240  
C   -2.1210866   -1.7789155    4.6970523  
O   -2.8083856   -2.3554314    5.6976972  
C   -2.5824069   -2.1655116    3.3310774  
O   -3.5227682   -2.9541547    3.2362962  
C   -1.9100805   -1.6015804    2.1470656  
H   -0.7567140   -0.6349833    5.8697035  
H   -3.4728268   -2.9124471    5.2533954  
H   -2.2742832   -1.9066565    1.1752040  
H    1.6189533    1.3585343    2.0405121  
