60

C    3.3041272    0.0001177   -1.5420431  
C    2.5845370   -0.0004780   -0.3695856  
C    1.2040004   -0.0000008   -0.7283590  
C    1.1422372    0.0006037   -2.1454372  
N    2.4348639    0.0026111   -2.6077465  
C   -0.0655183    0.0008798   -2.8497916  
C   -1.2321770    0.0002324   -2.1101397  
O   -2.4392813    0.0001147   -2.7472520  
C   -1.1911211   -0.0000007   -0.6955262  
O   -2.4371526   -0.0002320   -0.1032861  
C    0.0000000    0.0000000    0.0000000  
H    3.0031535   -0.0000661    0.6222581  
H    2.7054628   -0.0071098   -3.5745262  
H   -3.1132988   -0.0000650   -2.0551783  
H   -2.3200283   -0.0004072    0.8516412  
C    0.6611979   -0.7016925   -5.1602634  
C   -0.1387085    0.0017018   -4.3179686  
C   -1.0659757    0.7435466   -5.1393559  
C   -0.7383875    0.4122891   -6.5392645  
N    0.3175303   -0.4679251   -6.4831333  
C   -1.3893429    0.9119183   -7.6201588  
C   -2.4856335    1.8378811   -7.3893459  
O   -3.1337393    2.3423480   -8.2969656  
C   -2.8496763    2.2029987   -5.9149073  
O   -3.7705841    2.9817557   -5.7082045  
C   -2.0753680    1.5999277   -4.8329633  
H   -1.1332425    0.6558886   -8.6388694  
H   -2.3339020    1.8577613   -3.8149230  
H    1.4729779   -1.3710026   -4.9258989  
H    0.7677096   -0.8789301   -7.2802914  
C    6.9078749   -0.0046647    1.0804404  
C    5.6166942   -0.0033644    0.6749415  
C    5.6800157   -0.0008097   -0.7784972  
C    7.1258518   -0.0007965   -1.0885652  
N    7.8505614   -0.0031316   -0.0028488  
C    7.6141446    0.0013733   -2.4401020  
C    6.6996203    0.0030473   -3.4365845  
O    7.0134391    0.0051621   -4.7433187  
C    5.2335527    0.0027108   -3.1558602  
O    4.4582991    0.0044332   -4.1119978  
C    4.7577221    0.0005130   -1.7610465  
H    4.7307120   -0.0041440    1.2865875  
H    8.6761778    0.0015371   -2.6375719  
H    6.1552194    0.0059339   -5.2044176  
H    7.2868915   -0.0066359    2.0900525  
C    0.0000000    0.0000000    1.4700000  
C    1.0662921    0.0000102    2.3034270  
C    0.4961870   -0.0000064    3.6418889  
C   -0.9663858    0.0000850    3.4240247  
N   -1.2632773    0.0000084    2.1528658  
C   -1.8985362    0.0000517    4.5177257  
C   -1.3925775   -0.0004564    5.7720543  
O   -2.1456383   -0.0005410    6.8851312  
C    0.0786232   -0.0009323    6.0245000  
O    0.4683759   -0.0012588    7.1921102  
C    1.0143166   -0.0008442    4.8859032  
H    2.1107198   -0.0000632    2.0421868  
H   -2.9622183    0.0003270    4.3293377  
H   -1.5042274   -0.0009692    7.6184419  
H    2.0724152   -0.0013148    5.1109744  
