60

C    3.3041283    0.0001171   -1.5420418  
C    2.5845377   -0.0004782   -0.3695842  
C    1.2040011   -0.0000010   -0.7283583  
C    1.1422387    0.0006032   -2.1454372  
N    2.4348655    0.0026102   -2.6077457  
C   -0.0655166    0.0008792   -2.8497924  
C   -1.2321758    0.0002321   -2.1101405  
O   -2.4392798    0.0001143   -2.7472530  
C   -1.1911203   -0.0000009   -0.6955271  
O   -2.4371529   -0.0002318   -0.1032872  
C    0.0000000    0.0000000    0.0000000  
H    3.0031535   -0.0000663    0.6222594  
H   -0.1193528    0.0014836   -3.9297473  
H   -3.1132976   -0.0000650   -2.0551803  
H   -2.3200285   -0.0004068    0.8516399  
H    4.3686633    0.0004068   -1.7024274  
C    5.6587049   -2.1482577   -4.5997605  
C    5.5107229   -1.7555993   -5.8864228  
C    4.3729248   -0.8490970   -5.8734377  
C    3.9446822   -0.8087297   -4.4586716  
N    4.6947132   -1.5682543   -3.7072961  
C    2.8310686   -0.0116229   -4.0232742  
C    2.1753270    0.7125516   -4.9586395  
O    1.1191558    1.5001773   -4.6937094  
C    2.5836206    0.6930782   -6.3942852  
O    1.9410908    1.3768911   -7.1910134  
C    3.7292216   -0.1325940   -6.8159344  
H    0.8721742    1.8818755   -5.5553699  
H    3.9932695   -0.1192724   -7.8649015  
H    6.3942996   -2.8231078   -4.1917764  
C    6.7996038   -3.4278885   -7.2937599  
C    7.5099139   -3.4673972   -8.4504681  
C    7.4923617   -2.1327193   -9.0010698  
C    6.7080008   -1.3064695   -8.0635836  
N    6.3164885   -2.1510981   -7.0505634  
C    6.4600254    0.0176099   -8.2279811  
C    7.0016195    0.6725977   -9.4070492  
O    6.8335128    1.8614858   -9.6449298  
C    7.8351167   -0.1831449  -10.4134247  
O    8.2958868    0.3572940  -11.4098568  
C    8.0349483   -1.6017380  -10.1279215  
H    7.9910835   -4.3327965   -8.8701990  
H    5.8823122    0.6053916   -7.5282164  
H    8.6133997   -2.1871951  -10.8296051  
H    6.5882436   -4.2241381   -6.5986320  
C    2.5528530    2.1414826    2.8079335  
C    2.0663498    1.7338582    4.0032312  
C    0.9804344    0.8229586    3.6752840  
C    0.9495562    0.7966882    2.1971295  
N    1.8690446    1.5676019    1.6831036  
C    0.0000000    0.0000000    1.4700000  
C   -0.8785127   -0.7372425    2.1869543  
O   -1.8187535   -1.5261249    1.6395491  
C   -0.8723269   -0.7321790    3.6796354  
O   -1.7010379   -1.4274584    4.2670412  
C    0.1115397    0.0933559    4.4024240  
H    2.4028853    2.0163452    4.9860947  
H   -2.2861435   -1.9184361    2.3990168  
H    0.0832434    0.0693689    5.4835595  
H    3.3664920    2.8238276    2.6198634  
