60

C    3.3041269    0.0001181   -1.5420435  
C    2.5845374   -0.0004780   -0.3695858  
C    1.2040005   -0.0000006   -0.7283589  
C    1.1422371    0.0006039   -2.1454373  
N    2.4348634    0.0026113   -2.6077468  
C   -0.0655187    0.0008799   -2.8497917  
C   -1.2321773    0.0002325   -2.1101393  
O   -2.4392817    0.0001147   -2.7472515  
C   -1.1911209   -0.0000006   -0.6955265  
O   -2.4371526   -0.0002320   -0.1032855  
C    0.0000000    0.0000000    0.0000000  
H    3.0031535   -0.0000658    0.6222581  
H   -0.1193554    0.0014847   -3.9297468  
H   -3.1132989   -0.0000648   -2.0551776  
H   -2.3200276   -0.0004072    0.8516410  
H    4.3686618    0.0004076   -1.7024298  
C    3.8860202   -0.7395022   -4.5524255  
C    3.9939094   -0.5373176   -5.8909157  
C    2.9441496    0.3812284   -6.2638940  
C    2.2105941    0.6999149   -5.0240854  
N    2.8310656   -0.0116215   -4.0232754  
C    1.1445011    1.5368001   -4.9549938  
C    0.6890259    2.1654510   -6.1837637  
O   -0.2623541    2.9344952   -6.2255529  
C    1.4508803    1.8421335   -7.5084708  
O    1.0763526    2.3652242   -8.5493196  
C    2.5861423    0.9243305   -7.4567932  
H    4.7252832   -0.9811462   -6.5426234  
H    0.6206113    1.7571758   -4.0352746  
H    4.4883012   -1.3591726   -3.9080993  
C    4.2645024   -2.8087607   -9.0475400  
C    4.7606194   -2.3483758  -10.2248202  
C    4.4636475   -0.9365671  -10.2834665  
C    3.7487494   -0.6098345   -9.0348844  
N    3.6601149   -1.7878785   -8.3297278  
C    3.2959769    0.6273878   -8.7093348  
C    3.5280721    1.7093688   -9.6516640  
O    3.1589606    2.8588993   -9.4500765  
C    4.2829157    1.3860839  -10.9803856  
O    4.4838544    2.2888607  -11.7815597  
C    4.7228978    0.0137878  -11.2192828  
H    5.2756578   -2.9312972  -10.9674853  
H    5.2450339   -0.2017036  -12.1415959  
H    4.2893745   -3.8079859   -8.6440299  
H    3.2253234   -1.8898619   -7.4310605  
C    2.5528530    2.1414826    2.8079335  
C    2.0663498    1.7338582    4.0032312  
C    0.9804344    0.8229586    3.6752840  
C    0.9495562    0.7966882    2.1971295  
N    1.8690446    1.5676019    1.6831036  
C    0.0000000    0.0000000    1.4700000  
C   -0.8785127   -0.7372425    2.1869543  
O   -1.8187535   -1.5261249    1.6395491  
C   -0.8723269   -0.7321790    3.6796354  
O   -1.7010379   -1.4274584    4.2670412  
C    0.1115397    0.0933559    4.4024240  
H    2.4028853    2.0163452    4.9860947  
H   -2.2861435   -1.9184361    2.3990168  
H    0.0832434    0.0693689    5.4835595  
H    3.3664920    2.8238276    2.6198634  
