60

C   -1.1188116    0.0108739   -0.8003804  
C    0.0000000    0.0000000    0.0000000  
C    1.1323150   -0.0127269   -0.8673525  
C    0.6382105   -0.0086396   -2.1969278  
N   -0.7324018    0.0038084   -2.1202234  
C    1.4769819   -0.0181719   -3.3154808  
C    2.8393704   -0.0317768   -3.0876853  
O    3.7036921   -0.0411604   -4.1440348  
C    3.3515891   -0.0364302   -1.7684329  
O    4.7297780   -0.0506814   -1.7073124  
C    2.5247072   -0.0273054   -0.6644812  
H   -1.3574983    0.0198087   -2.9057040  
H    4.5937290   -0.0502051   -3.7685130  
H    4.9931797   -0.0529245   -0.7819916  
H    2.9460911   -0.0313586    0.3339654  
H   -2.1618808    0.0216649   -0.5342067  
C    0.9735342   -0.0142233   -4.6965757  
C   -0.3100015   -0.0013782   -5.1397993  
C   -0.2571563   -0.0032639   -6.5827264  
C    1.1726310   -0.0183983   -6.9464167  
N    1.8657736   -0.0240532   -5.7579674  
C    1.6420866   -0.0248346   -8.2197089  
C    0.6745896   -0.0160595   -9.3043320  
O    0.9974983   -0.0207948  -10.4850137  
C   -0.8447843    0.0002480   -8.9423345  
O   -1.6686305    0.0080499   -9.8470310  
C   -1.2284075    0.0056725   -7.5328464  
H   -1.1930356    0.0084946   -4.5259859  
H   -2.2824181    0.0167709   -7.2906433  
H    2.8657458   -0.0357785   -5.6745051  
C    4.0430144   -0.7758348   -7.8881829  
C    5.2690533   -0.5724655   -8.4354896  
C    5.0937824    0.3552602   -9.5279362  
C    3.6548194    0.6780419   -9.5725183  
N    3.0737275   -0.0401263   -8.5529805  
C    3.0838592    1.5235571  -10.4673999  
C    3.9439470    2.1578398  -11.4525242  
O    3.5251864    2.9347457  -12.3006732  
C    5.4709459    1.8303265  -11.4239833  
O    6.2049000    2.3580953  -12.2486250  
C    5.9690550    0.9031400  -10.4110349  
H    6.1909709   -1.0212805   -8.1110721  
H    2.0261106    1.7468045  -10.4828176  
H    7.0276227    0.6818118  -10.3979137  
H    3.7659947   -1.4014368   -7.0552529  
C    0.0000000    0.0000000    1.4700000  
C    1.0662921    0.0000102    2.3034270  
C    0.4961870   -0.0000064    3.6418889  
C   -0.9663858    0.0000850    3.4240247  
N   -1.2632773    0.0000084    2.1528658  
C   -1.8985362    0.0000517    4.5177257  
C   -1.3925775   -0.0004564    5.7720543  
O   -2.1456383   -0.0005410    6.8851312  
C    0.0786232   -0.0009323    6.0245000  
O    0.4683759   -0.0012588    7.1921102  
C    1.0143166   -0.0008442    4.8859032  
H    2.1107198   -0.0000632    2.0421868  
H   -2.9622183    0.0003270    4.3293377  
H   -1.5042274   -0.0009692    7.6184419  
H    2.0724152   -0.0013148    5.1109744  
