58

C    4.6190971   -2.0899186   -2.8279652  
C    3.4606683   -1.6280057   -2.2906061  
C    2.8761397   -0.7301693   -3.2586202  
C    3.7955628   -0.7067282   -4.4122674  
N    4.8319965   -1.5514030   -4.0878914  
C    3.5979908    0.0246979   -5.5381826  
C    2.3999522    0.8436575   -5.6190794  
O    2.1321342    1.5380353   -6.5908895  
C    1.4124495    0.8342977   -4.4088909  
O    0.4006153    1.5200497   -4.4654205  
C    1.7334695    0.0049281   -3.2500363  
H    3.0613135   -1.8865706   -1.3260991  
H    4.2848596    0.0276112   -6.3731162  
H    5.3352946   -2.7782580   -2.4094673  
C    6.5757527   -3.0846406   -5.1110531  
C    7.6232602   -3.0201542   -5.9728216  
C    7.7291352   -1.6464402   -6.4047195  
C    6.6497219   -0.9106171   -5.7189912  
N    5.9870134   -1.8395312   -4.9503395  
C    6.4132144    0.4179684   -5.8626200  
C    7.2794630    1.1735900   -6.7521071  
O    7.1478881    2.3746141   -6.9483959  
C    8.4288546    0.4146722   -7.4888214  
O    9.1643692    1.0402512   -8.2404389  
C    8.5846007   -1.0185477   -7.2532873  
H    8.2501159   -3.8412399   -6.2719613  
H    5.6160521    0.9384796   -5.3502633  
H    9.3829842   -1.5365767   -7.7670504  
H    6.1842157   -3.9370448   -4.5800212  
C    1.1319246    0.0015678   -0.8009268  
C    0.7969914    0.0034958   -2.1169401  
C   -0.6453340    0.0035696   -2.1842669  
C   -1.1266832    0.0015410   -0.7896025  
N    0.0000000    0.0000000    0.0000000  
C   -2.4346129    0.0013913   -0.4276292  
C   -3.4350111    0.0031335   -1.4820181  
O   -4.6384614    0.0030875   -1.2583914  
C   -2.9478961    0.0050442   -2.9661074  
O   -3.7809382    0.0062135   -3.8623773  
C   -1.5113825    0.0053055   -3.2312122  
H   -2.7664565    0.0000174    0.6013448  
H   -1.1823533    0.0068381   -4.2614848  
H    2.1104316    0.0009435   -0.3488059  
C    2.3971438    2.0127888    3.1728260  
C    1.9431056    1.6308205    1.9564670  
C    0.8496017    0.7127664    2.2356185  
C    0.7794028    0.6545384    3.7115134  
N    1.6840587    1.4146091    4.2663826  
C   -0.1885723   -0.1578550    4.3957118  
C   -1.0476298   -0.8789867    3.6398520  
O   -2.0015663   -1.6796266    4.1448486  
C   -1.0022026   -0.8410666    2.1483229  
O   -1.8147390   -1.5232959    1.5241687  
C    0.0000000    0.0000000    1.4700000  
H    2.3054237    1.9346118    0.9892483  
H   -0.2170646   -0.1815267    5.4753125  
H   -2.4487139   -2.0549881    3.3649027  
H    3.2048689    2.6911772    3.3971983  
