60

C    3.3041274    0.0001179   -1.5420433  
C    2.5845371   -0.0004779   -0.3695858  
C    1.2040005   -0.0000006   -0.7283592  
C    1.1422373    0.0006039   -2.1454373  
N    2.4348640    0.0026112   -2.6077467  
C   -0.0655182    0.0008800   -2.8497919  
C   -1.2321769    0.0002326   -2.1101401  
O   -2.4392816    0.0001150   -2.7472518  
C   -1.1911210   -0.0000006   -0.6955265  
O   -2.4371524   -0.0002319   -0.1032861  
C    0.0000000    0.0000000    0.0000000  
H    3.0031535   -0.0000660    0.6222576  
H    2.7054629   -0.0071095   -3.5745261  
H   -3.1132987   -0.0000647   -2.0551788  
H   -2.3200280   -0.0004071    0.8516404  
H    4.3686622    0.0004075   -1.7024295  
C    2.2991554   -2.1048093   -5.8924434  
C    1.6888956   -1.6397490   -7.0128794  
C    0.6412938   -0.7448179   -6.5810648  
C    0.6916334   -0.7264669   -5.1066426  
N    1.7177150   -1.5716516   -4.7520883  
C   -0.1387083    0.0017020   -4.3179686  
C   -1.1495780    0.8219302   -4.9644228  
O   -1.9445181    1.5135266   -4.3414739  
C   -1.2212027    0.8175538   -6.5247613  
O   -2.0683182    1.5039444   -7.0802106  
C   -0.2716616   -0.0081806   -7.2666418  
H    1.9434326   -1.8946826   -8.0262072  
H    3.1245931   -2.7923368   -5.8038529  
H    2.0018700   -1.7690376   -3.8101002  
C   -0.3479155   -0.0045086   -8.7346584  
C    0.4246788   -0.6875993   -9.6110509  
C   -0.0809356   -0.3179121  -10.9241333  
C   -1.1887257    0.6212754  -10.6460833  
N   -1.3498926    0.8089316   -9.3643655  
C   -1.9586382    1.2230024  -11.6997655  
C   -1.6362630    0.9014124  -12.9733379  
O   -2.2701239    1.3881500  -14.0537767  
C   -0.5234187   -0.0429382  -13.2862923  
O   -0.2855723   -0.2902138  -14.4684533  
C    0.2514983   -0.6470960  -12.1879202  
H    1.2373821   -1.3593110   -9.3933527  
H   -2.7628790    1.9058085  -11.4676392  
H   -1.8171369    0.9781601  -14.8126336  
H    1.0496896   -1.3260729  -12.4564545  
C    0.0000000    0.0000000    1.4700000  
C    1.0662921    0.0000102    2.3034270  
C    0.4961870   -0.0000064    3.6418889  
C   -0.9663858    0.0000850    3.4240247  
N   -1.2632773    0.0000084    2.1528658  
C   -1.8985362    0.0000517    4.5177257  
C   -1.3925775   -0.0004564    5.7720543  
O   -2.1456383   -0.0005410    6.8851312  
C    0.0786232   -0.0009323    6.0245000  
O    0.4683759   -0.0012588    7.1921102  
C    1.0143166   -0.0008442    4.8859032  
H    2.1107198   -0.0000632    2.0421868  
H   -2.9622183    0.0003270    4.3293377  
H   -1.5042274   -0.0009692    7.6184419  
H    2.0724152   -0.0013148    5.1109744  
