62

C   -4.7630504   -0.0022798   -1.3275397  
C   -5.7496376   -0.0047933   -2.2862402  
C   -6.9989987   -0.0047031   -1.5979844  
C   -6.7092695   -0.0017732   -0.2094693  
N   -5.3425441   -0.0023123   -0.0803285  
C   -7.7059382   -0.0005748    0.7710608  
C   -9.0190067   -0.0020599    0.3420777  
O  -10.0316328   -0.0006360    1.2572822  
C   -9.3281945   -0.0053599   -1.0389398  
O  -10.6818172   -0.0069109   -1.3054859  
C   -8.3454685   -0.0068169   -2.0068102  
H   -5.5886396   -0.0075890   -3.3506951  
H   -4.8418190    0.0098947    0.7897903  
H  -10.8555480   -0.0023516    0.7528761  
H  -10.8038876   -0.0090994   -2.2597906  
H   -8.6128179   -0.0095313   -3.0570459  
C   -3.3003544   -0.0017778   -1.4738983  
C   -2.5232812   -0.0013056   -2.6090745  
C   -1.1623201   -0.0003085   -2.1820101  
C   -1.1711884   -0.0005020   -0.7636141  
N   -2.4852304    0.0005505   -0.3662357  
C    0.0000000    0.0000000    0.0000000  
C    1.2020381    0.0004033   -0.6806480  
O    2.3759247    0.0005506    0.0157743  
C    1.2314653    0.0009776   -2.0955511  
O    2.5054377    0.0017526   -2.6250183  
C    0.0764514    0.0007561   -2.8495196  
H   -2.8919959   -0.0005337   -3.6205296  
H   -2.8036229   -0.0098801    0.5858666  
H    3.0835639    0.0011332   -0.6418822  
H    2.4360034    0.0020753   -3.5845927  
H    0.1304080    0.0013913   -3.9319088  
C   -6.4488629    0.6900927    2.8643503  
C   -7.4146766    0.0022629    2.2119143  
C   -8.1114538   -0.7418620    3.2498348  
C   -7.4158343   -0.3751646    4.5021251  
N   -6.4403801    0.4640127    4.2824444  
C   -7.8106795   -0.9095549    5.7763353  
C   -8.8533078   -1.7708134    5.7985501  
O   -9.3283900   -2.3455242    6.9166042  
C   -9.5759148   -2.1601315    4.5517813  
O  -10.5159669   -2.9491306    4.6466638  
C   -9.1518322   -1.5983620    3.2569860  
H   -7.2842854   -0.6243664    6.6754941  
H  -10.0673762   -2.9035201    6.6137964  
H   -9.7012038   -1.9053813    2.3771225  
H   -5.7155477    1.3621966    2.4478179  
C    2.5528530    2.1414826    2.8079335  
C    2.0663498    1.7338582    4.0032312  
C    0.9804344    0.8229586    3.6752840  
C    0.9495562    0.7966882    2.1971295  
N    1.8690446    1.5676019    1.6831036  
C    0.0000000    0.0000000    1.4700000  
C   -0.8785127   -0.7372425    2.1869543  
O   -1.8187535   -1.5261249    1.6395491  
C   -0.8723269   -0.7321790    3.6796354  
O   -1.7010379   -1.4274584    4.2670412  
C    0.1115397    0.0933559    4.4024240  
H    2.4028853    2.0163452    4.9860947  
H   -2.2861435   -1.9184361    2.3990168  
H    0.0832434    0.0693689    5.4835595  
H    3.3664920    2.8238276    2.6198634  
