64

C    0.1064601   -0.7138169   -5.1554290  
C   -0.9736297    0.0040464   -4.6965763  
C   -1.4912367    0.7334044   -5.8077556  
C   -0.6795014    0.4177976   -6.9273113  
N    0.2821068   -0.4618996   -6.4959643  
C   -0.8998159    0.9585821   -8.1976668  
C   -1.9590503    1.8336802   -8.3405056  
O   -2.2193114    2.3905122   -9.5592002  
C   -2.7800669    2.1612319   -7.2353094  
O   -3.7933054    3.0470082   -7.5387752  
C   -2.5631419    1.6283223   -5.9817237  
H   -0.2846919    0.7221792   -9.0549514  
H   -2.9888523    2.9621256   -9.4394871  
H   -4.3001568    3.2151107   -6.7384955  
H   -3.2086819    1.8980388   -5.1540711  
H    0.7663118   -1.3844917   -4.6322183  
C    1.9792873   -4.5436019   -6.6307398  
C    2.8788125   -4.3263838   -7.6486480  
C    2.7379250   -2.9634241   -8.0449958  
C    1.7291131   -2.3940818   -7.2264151  
N    1.2883770   -3.3811736   -6.3802366  
C    1.3266577   -1.0599351   -7.3398642  
C    1.9542333   -0.2863635   -8.2968975  
O    1.6000927    1.0229004   -8.4499530  
C    2.9627656   -0.8364175   -9.1234086  
O    3.4912874    0.0614312  -10.0277737  
C    3.3601129   -2.1525782   -9.0122263  
H    3.5527639   -5.0603335   -8.0562031  
H    0.5808692   -3.2693372   -5.6767403  
H    2.1518969    1.3736716   -9.1611052  
H    4.1645878   -0.3897214  -10.5461694  
H    4.1352692   -2.5459333   -9.6594404  
H    1.7748730   -5.4361302   -6.0645537  
C    1.1188642    0.0008222   -0.8003808  
C    0.0000000    0.0000000    0.0000000  
C   -1.1323862    0.0008899   -0.8673528  
C   -0.6382663    0.0019679   -2.1969280  
N    0.7324016    0.0038481   -2.1202242  
C   -1.4770914    0.0027318   -3.3154808  
C   -2.8395473    0.0020945   -3.0876857  
O   -3.7039201    0.0024425   -4.1440349  
C   -3.3517868    0.0013931   -1.7684331  
O   -4.7300497    0.0012366   -1.7073121  
C   -2.5248543    0.0009123   -0.6644817  
H    1.3576314   -0.0056167   -2.9057046  
H   -4.5940032    0.0021826   -3.7685128  
H   -4.9934602    0.0007259   -0.7819913  
H   -2.9462577    0.0005603    0.3339659  
H    2.1619895    0.0009355   -0.5342068  
C    0.0000000    0.0000000    1.4700000  
C    1.0662921    0.0000102    2.3034270  
C    0.4961870   -0.0000064    3.6418889  
C   -0.9663858    0.0000850    3.4240247  
N   -1.2632773    0.0000084    2.1528658  
C   -1.8985362    0.0000517    4.5177257  
C   -1.3925775   -0.0004564    5.7720543  
O   -2.1456383   -0.0005410    6.8851312  
C    0.0786232   -0.0009323    6.0245000  
O    0.4683759   -0.0012588    7.1921102  
C    1.0143166   -0.0008442    4.8859032  
H    2.1107198   -0.0000632    2.0421868  
H   -2.9622183    0.0003270    4.3293377  
H   -1.5042274   -0.0009692    7.6184419  
H    2.0724152   -0.0013148    5.1109744  
