60

C    3.2798085    0.0005856   -1.4499646  
C    2.5571146    0.0005565   -2.5996553  
C    1.1637436    0.0001548   -2.2210360  
C    1.1336964   -0.0000200   -0.7459468  
N    2.4483512   -0.0001429   -0.3402719  
C    0.0000000    0.0000000    0.0000000  
C   -1.2757371   -0.0000187   -0.6964415  
O   -2.3524597   -0.0000640   -0.1142312  
C   -1.2676493   -0.0000873   -2.2584081  
O   -2.3355761   -0.0004101   -2.8557295  
C    0.0181561    0.0001759   -2.9516296  
H    2.9547354    0.0006074   -3.5989104  
H    2.7563628    0.0012823    0.6148064  
C    6.6317390   -0.0005812   -4.3241589  
C    5.4016593   -0.0005062   -3.7488513  
C    5.6054523    0.0003361   -2.3194099  
C    7.0655611    0.0007779   -2.1075768  
N    7.6303557   -0.0002120   -3.3621271  
C    7.6659168    0.0019860   -0.8905001  
C    6.8173813    0.0026871    0.2895509  
O    7.2622818    0.0037195    1.4298856  
C    5.2683492    0.0019842    0.0887900  
O    4.5438175    0.0022581    1.0748500  
C    4.7390846    0.0009612   -1.2727278  
H    4.4591040   -0.0011684   -4.2667345  
H    8.7388166    0.0024205   -0.7570925  
H    6.8927452   -0.0010919   -5.3699912  
H    8.6161410    0.0013556   -3.5499359  
C    0.0139740    0.0003878   -4.4216236  
C    1.0778908    0.0006077   -5.2580807  
C    0.5039802    0.0007585   -6.5949153  
C   -0.9579669    0.0004850   -6.3728908  
N   -1.2512408    0.0003478   -5.1008931  
C   -1.8932250    0.0005800   -7.4639358  
C   -1.3908369    0.0013211   -8.7196988  
O   -2.1470611    0.0014886   -9.8306290  
C    0.0796396    0.0019849   -8.9763283  
O    0.4660689    0.0025199  -10.1450425  
C    1.0185685    0.0018290   -7.8403984  
H    2.1230576    0.0007510   -4.9998126  
H   -2.9563668    0.0001680   -7.2725227  
H   -1.5077392    0.0020886  -10.5657614  
H    2.0760224    0.0024411   -8.0684786  
C    0.0000000    0.0000000    1.4700000  
C    1.0521667    0.0011902    2.3562342  
C    0.4917218    0.0011957    3.6679131  
C   -0.9187428   -0.0003148    3.5178682  
N   -1.1833171    0.0009411    2.1707914  
C   -1.7951701   -0.0010350    4.6072090  
C   -1.2375837   -0.0005224    5.8710424  
O   -2.0474215   -0.0015360    6.9697579  
C    0.1673580    0.0013566    6.0411963  
O    0.5673524    0.0020687    7.3615553  
C    1.0325770    0.0023412    4.9669890  
H    2.0953057    0.0030649    2.0900562  
H   -2.0989778   -0.0102372    1.7591824  
H   -2.8710934   -0.0020419    4.4995513  
H   -1.4634884   -0.0006497    7.7393593  
H    1.5290710    0.0033153    7.3880045  
H    2.1042148    0.0039609    5.1284455  
