60

C    3.3041270    0.0001178   -1.5420432  
C    2.5845372   -0.0004779   -0.3695853  
C    1.2040007   -0.0000006   -0.7283591  
C    1.1422373    0.0006039   -2.1454374  
N    2.4348636    0.0026110   -2.6077466  
C   -0.0655186    0.0008800   -2.8497915  
C   -1.2321770    0.0002326   -2.1101397  
O   -2.4392818    0.0001149   -2.7472515  
C   -1.1911209   -0.0000006   -0.6955262  
O   -2.4371522   -0.0002319   -0.1032858  
C    0.0000000    0.0000000    0.0000000  
H    3.0031535   -0.0000661    0.6222580  
H    2.7054625   -0.0071097   -3.5745263  
H   -3.1132993   -0.0000646   -2.0551781  
H   -2.3200286   -0.0004070    0.8516413  
C    6.6801368   -0.0033359    1.2661383  
C    7.7093283   -0.0019929    0.3802272  
C    7.1273472   -0.0004469   -0.9411851  
C    5.6642438   -0.0009741   -0.7511359  
N    5.4589564   -0.0031397    0.6092841  
C    4.7577214    0.0005130   -1.7610465  
C    5.2563290    0.0025581   -3.1263015  
O    4.5202041    0.0039399   -4.1042684  
C    6.8020688    0.0028974   -3.3510091  
O    7.2336226    0.0043062   -4.4960070  
C    7.6791155    0.0014558   -2.1828315  
H    8.7566702   -0.0022581    0.6245396  
H    8.7481207    0.0019069   -2.3470027  
H    6.7110419   -0.0046693    2.3436044  
H    4.5604250   -0.0024244    1.0561488  
C    0.6364680   -0.6837594   -5.1902200  
C   -0.1387086    0.0017020   -4.3179679  
C   -1.0701784    0.7476899   -5.1500536  
C   -0.7049032    0.3845507   -6.5361590  
N    0.2947985   -0.4543147   -6.5660078  
C   -1.4020130    0.9216209   -7.6722396  
C   -2.4181043    1.7820429   -7.4344017  
O   -3.1544588    2.3589952   -8.3992581  
C   -2.8109001    2.1677925   -6.0469326  
O   -3.7454947    2.9562145   -5.9050022  
C   -2.0803718    1.6033195   -4.8981843  
H   -1.1136369    0.6390103   -8.6741782  
H   -3.7960384    2.9156439   -7.9221098  
H   -2.3957805    1.9077871   -3.9092215  
H    1.4500361   -1.3562238   -4.9691494  
C    0.0000000    0.0000000    1.4700000  
C    1.0662921    0.0000102    2.3034270  
C    0.4961870   -0.0000064    3.6418889  
C   -0.9663858    0.0000850    3.4240247  
N   -1.2632773    0.0000084    2.1528658  
C   -1.8985362    0.0000517    4.5177257  
C   -1.3925775   -0.0004564    5.7720543  
O   -2.1456383   -0.0005410    6.8851312  
C    0.0786232   -0.0009323    6.0245000  
O    0.4683759   -0.0012588    7.1921102  
C    1.0143166   -0.0008442    4.8859032  
H    2.1107198   -0.0000632    2.0421868  
H   -2.9622183    0.0003270    4.3293377  
H   -1.5042274   -0.0009692    7.6184419  
H    2.0724152   -0.0013148    5.1109744  
