58

C    3.2573677   -0.0002923   -1.5109371  
C    2.5379474   -0.0001713   -0.3591956  
C    1.1435046    0.0000329   -0.7338495  
C    1.1092617   -0.0000086   -2.2088470  
N    2.4227573    0.0001904   -2.6182602  
C   -0.0265523   -0.0002527   -2.9515661  
C   -1.3003027   -0.0002644   -2.2514983  
O   -2.3786775   -0.0004135   -2.8306429  
C   -1.2877720    0.0000309   -0.6895608  
O   -2.3539953    0.0003304   -0.0892038  
C    0.0000000    0.0000000    0.0000000  
H    2.9384088   -0.0000370    0.6389247  
H    4.3270401   -0.0004772   -1.6439429  
H    2.7280503   -0.0013411   -3.5742105  
C    0.7846897   -0.6863335   -5.2559754  
C   -0.0307340   -0.0004652   -4.4215598  
C   -0.9222766    0.7447106   -5.2969827  
C   -0.4922494    0.3807050   -6.6641549  
N    0.5079366   -0.4579276   -6.6464477  
C   -1.1353723    0.9168121   -7.8320881  
C   -2.1616992    1.7771408   -7.6428207  
O   -2.8520713    2.3532389   -8.6415891  
C   -2.6192854    2.1637509   -6.2755942  
O   -3.5596869    2.9520343   -6.1782516  
C   -1.9433695    1.6002582   -5.0934191  
H   -3.5154673    2.9100549   -8.1954790  
H   -2.3049274    1.9053299   -4.1205691  
H    1.5871301   -1.3584386   -4.9964804  
C    0.2365012   -2.8633002   -9.7538474  
C   -0.2138108   -1.9854031   -8.8275127  
C   -0.3040222   -0.7137989   -9.5285010  
C    0.1420900   -1.0149800  -10.9057646  
N    0.4601693   -2.2734458  -11.0438938  
C    0.1976739   -0.0041615  -11.9256881  
C   -0.1758140    1.2504222  -11.5853029  
O   -0.1735395    2.2909870  -12.4357500  
C   -0.6310972    1.5857922  -10.2038522  
O   -0.9560994    2.7487499   -9.9648474  
C   -0.6792830    0.5313878   -9.1753417  
H   -0.4550642   -2.1770832   -7.7959453  
H    0.5278690   -0.2523768  -12.9238211  
H   -0.4878612    3.0453550  -11.9053892  
H    0.4365597   -3.9156727   -9.6295017  
C    2.3971438    2.0127888    3.1728260  
C    1.9431056    1.6308205    1.9564670  
C    0.8496017    0.7127664    2.2356185  
C    0.7794028    0.6545384    3.7115134  
N    1.6840587    1.4146091    4.2663826  
C   -0.1885723   -0.1578550    4.3957118  
C   -1.0476298   -0.8789867    3.6398520  
O   -2.0015663   -1.6796266    4.1448486  
C   -1.0022026   -0.8410666    2.1483229  
O   -1.8147390   -1.5232959    1.5241687  
C    0.0000000    0.0000000    1.4700000  
H    2.3054237    1.9346118    0.9892483  
H   -0.2170646   -0.1815267    5.4753125  
H   -2.4487139   -2.0549881    3.3649027  
H    3.2048689    2.6911772    3.3971983  
