62

C   -2.4230947    2.2463020   -1.5420426  
C   -1.8949929    1.7575085   -0.3695846  
C   -0.8829291    0.8185687   -0.7283585  
C   -0.8380475    0.7761344   -2.1454372  
N   -1.7873335    1.6534847   -2.6077461  
C    0.0474476   -0.0451884   -2.8497921  
C    0.9034335   -0.8378945   -2.1101402  
O    1.7887189   -1.6584859   -2.7472525  
C    0.8734845   -0.8098110   -0.6955265  
O    1.7873937   -1.6567849   -0.1032869  
C    0.0000000    0.0000000    0.0000000  
H   -2.2022566    2.0418121    0.6222589  
H    0.0865169   -0.0822342   -3.9297471  
H    2.2831179   -2.1166009   -2.0551794  
H    1.7016219   -1.5770266    0.8516404  
H   -3.2039467    2.9698385   -1.7024286  
C   -2.7165354    5.3825691   -4.7819000  
C   -2.4170994    4.4650468   -3.8266170  
C   -2.3348036    3.1828675   -4.4854633  
C   -2.6128049    3.4303926   -5.9131316  
N   -2.8363602    4.7831868   -6.0265378  
C   -2.6289749    2.4693657   -6.8711872  
C   -2.3544591    1.0997966   -6.4693694  
O   -2.3458145    0.1633717   -7.2576175  
C   -2.0576948    0.8146114   -4.9625829  
O   -1.8254650   -0.3345958   -4.6123642  
C   -2.0682040    1.9332898   -4.0232747  
H   -2.2707703    4.6637347   -2.7798483  
H   -2.8350575    2.6721947   -7.9129647  
H   -3.0512518    5.2616922   -6.8820501  
C   -2.8223390    7.5453402   -3.4712842  
C   -2.9121340    6.8330280   -4.6447469  
C   -3.2278899    7.7669615   -5.6756039  
C   -3.3188122    9.0445627   -5.0661818  
N   -3.0689869    8.8738957   -3.7271233  
C   -3.6161573   10.2060925   -5.7853646  
C   -3.8252314   10.0755575   -7.1445650  
O   -4.1183944   11.1775372   -7.8947064  
C   -3.7392417    8.8093382   -7.7707540  
O   -3.9737473    8.8442836   -9.1298463  
C   -3.4462108    7.6629965   -7.0618397  
H   -3.0541332    9.6071265   -3.0414605  
H   -3.6870393   11.1827570   -5.3267768  
H   -4.2249683   10.8685449   -8.8037881  
H   -3.8965277    7.9495390   -9.4749159  
H   -3.3872470    6.7069900   -7.5688450  
H   -2.6032782    7.2106131   -2.4718193  
C    2.5528530    2.1414826    2.8079335  
C    2.0663498    1.7338582    4.0032312  
C    0.9804344    0.8229586    3.6752840  
C    0.9495562    0.7966882    2.1971295  
N    1.8690446    1.5676019    1.6831036  
C    0.0000000    0.0000000    1.4700000  
C   -0.8785127   -0.7372425    2.1869543  
O   -1.8187535   -1.5261249    1.6395491  
C   -0.8723269   -0.7321790    3.6796354  
O   -1.7010379   -1.4274584    4.2670412  
C    0.1115397    0.0933559    4.4024240  
H    2.4028853    2.0163452    4.9860947  
H   -2.2861435   -1.9184361    2.3990168  
H    0.0832434    0.0693689    5.4835595  
H    3.3664920    2.8238276    2.6198634  
