58

C   -4.7795902   -0.0014365   -1.0815732  
C   -5.7862020   -0.0015659   -1.9861793  
C   -7.0047291   -0.0021751   -1.1913893  
C   -6.5351377   -0.0024607    0.2107762  
N   -5.2316823   -0.0019492    0.2814340  
C   -7.4495158   -0.0030275    1.3193781  
C   -8.7728589   -0.0029078    1.0399217  
O   -9.7375488   -0.0033968    1.9755577  
C   -9.2780075   -0.0022495   -0.3647083  
O  -10.4956957   -0.0023001   -0.5448628  
C   -8.3200394   -0.0017195   -1.4846287  
H   -5.7111081   -0.0011927   -3.0601610  
H   -7.0785138   -0.0034323    2.3339060  
H  -10.5714820   -0.0031299    1.4718624  
C   -3.3321171   -0.0008683   -1.3379339  
C   -2.6974179   -0.0003330   -2.5332313  
C   -1.2800437    0.0000591   -2.2052841  
C   -1.2395036   -0.0002120   -0.7271296  
N   -2.4394057   -0.0008364   -0.2131040  
C    0.0000000    0.0000000    0.0000000  
C    1.1468701    0.0000730   -0.7169540  
O    2.3742206    0.0002753   -0.1695489  
C    1.1388771   -0.0000253   -2.2096353  
O    2.2206229    0.0001736   -2.7970409  
C   -0.1454517   -0.0001992   -2.9324242  
H   -3.1367985   -0.0003086   -3.5160951  
H    2.9844347    0.0002526   -0.9290165  
H   -0.1083571   -0.0003815   -4.0135594  
C   -8.8719487   -0.0009245   -2.8470883  
C   -8.1965715   -0.0004252   -4.0198817  
C   -9.2274929    0.0002837   -5.0463809  
C  -10.5012718   -0.0000062   -4.2953345  
N  -10.2991898   -0.0006334   -3.0057021  
C  -11.7758580    0.0005671   -4.9590495  
C  -11.7778490    0.0017814   -6.3115757  
O  -12.8937209    0.0024264   -7.0604883  
C  -10.5090567    0.0024750   -7.0979136  
O  -10.5861946    0.0034544   -8.3264368  
C   -9.2143314    0.0018228   -6.3939178  
H   -7.1304684   -0.0004355   -4.1698820  
H  -12.6909947    0.0001313   -4.3850848  
H  -12.5745539    0.0032866   -7.9809687  
H   -8.3181426    0.0024735   -6.9997844  
C    2.3971438    2.0127888    3.1728260  
C    1.9431056    1.6308205    1.9564670  
C    0.8496017    0.7127664    2.2356185  
C    0.7794028    0.6545384    3.7115134  
N    1.6840587    1.4146091    4.2663826  
C   -0.1885723   -0.1578550    4.3957118  
C   -1.0476298   -0.8789867    3.6398520  
O   -2.0015663   -1.6796266    4.1448486  
C   -1.0022026   -0.8410666    2.1483229  
O   -1.8147390   -1.5232959    1.5241687  
C    0.0000000    0.0000000    1.4700000  
H    2.3054237    1.9346118    0.9892483  
H   -0.2170646   -0.1815267    5.4753125  
H   -2.4487139   -2.0549881    3.3649027  
H    3.2048689    2.6911772    3.3971983  
