58

C    2.4602723   -2.0944456   -5.9392888  
C    1.9124732   -1.6318086   -4.7860501  
C    0.8432457   -0.7354857   -5.1577935  
C    0.8127890   -0.7137219   -6.6327131  
N    1.8180309   -1.5578238   -7.0448664  
C   -0.0596366    0.0159817   -7.3730587  
C   -1.0334824    0.8347248   -6.6703356  
O   -1.8613770    1.5276081   -7.2472273  
C   -1.0192491    0.8271228   -5.1084314  
O   -1.8341905    1.5127102   -4.5058525  
C   -0.0307352   -0.0004646   -4.4215603  
H    2.2221960   -1.8889423   -3.7887702  
H    3.2792597   -2.7820945   -6.0745261  
H    2.0482143   -1.7553498   -8.0014469  
C    0.4943763   -3.1865565  -10.3619129  
C    0.3745978   -2.4800120   -9.2084303  
C    0.1290617   -1.1064301   -9.5796720  
C    0.1154855   -1.0704009  -11.0545639  
N    0.3432526   -2.3629787  -11.4671830  
C   -0.0871536    0.0490382  -11.7944952  
C   -0.3062995    1.3020590  -11.0913245  
O   -0.4979651    2.3647031  -11.6678241  
C   -0.2958251    1.2873152   -9.5294419  
O   -0.4788885    2.3362178   -8.9264882  
C   -0.0671588    0.0182945   -8.8430377  
H    0.4498587   -2.8758507   -8.2113040  
H   -0.0933778    0.0537403  -12.8756288  
H    0.6805474   -4.2395701  -10.4975306  
H    0.3902339   -2.6623316  -12.4238584  
C    3.2573670   -0.0002920   -1.5109380  
C    2.5379468   -0.0001709   -0.3591961  
C    1.1435043    0.0000332   -0.7338500  
C    1.1092609   -0.0000082   -2.2088477  
N    2.4227562    0.0001909   -2.6182613  
C   -0.0265532   -0.0002522   -2.9515663  
C   -1.3003035   -0.0002639   -2.2514981  
O   -2.3786784   -0.0004131   -2.8306429  
C   -1.2877725    0.0000312   -0.6895608  
O   -2.3539958    0.0003307   -0.0892036  
C    0.0000000    0.0000000    0.0000000  
H    2.9384091   -0.0000369    0.6389239  
H    4.3270394   -0.0004765   -1.6439446  
H    2.7280494   -0.0013406   -3.5742113  
C    2.3971438    2.0127888    3.1728260  
C    1.9431056    1.6308205    1.9564670  
C    0.8496017    0.7127664    2.2356185  
C    0.7794028    0.6545384    3.7115134  
N    1.6840587    1.4146091    4.2663826  
C   -0.1885723   -0.1578550    4.3957118  
C   -1.0476298   -0.8789867    3.6398520  
O   -2.0015663   -1.6796266    4.1448486  
C   -1.0022026   -0.8410666    2.1483229  
O   -1.8147390   -1.5232959    1.5241687  
C    0.0000000    0.0000000    1.4700000  
H    2.3054237    1.9346118    0.9892483  
H   -0.2170646   -0.1815267    5.4753125  
H   -2.4487139   -2.0549881    3.3649027  
H    3.2048689    2.6911772    3.3971983  
