60

C   -3.3032450    0.0762927   -1.5420455  
C   -2.5838346    0.0602472   -0.3695872  
C   -1.2036784    0.0278441   -0.7283601  
C   -1.1419441    0.0258114   -2.1454383  
N   -2.4342708    0.0536977   -2.6077484  
C    0.0654828   -0.0023948   -2.8497918  
C    1.2318433   -0.0287275   -2.1101392  
O    2.4386283   -0.0565249   -2.7472505  
C    1.1908027   -0.0275448   -0.6955256  
O    2.4365069   -0.0561290   -0.1032848  
C    0.0000000    0.0000000    0.0000000  
H   -3.0023490    0.0695161    0.6222561  
H   -2.7045717    0.0696736   -3.5745282  
H    0.1192914   -0.0042443   -3.9297473  
H    3.1124695   -0.0719326   -2.0551769  
H    2.3194170   -0.0532453    0.8516423  
C   -5.7168370    0.1313423   -0.7610803  
C   -6.9679918    0.1575878   -1.2883356  
C   -6.8197688    0.1522863   -2.7245937  
C   -5.3693032    0.1205442   -2.9927928  
N   -4.7564600    0.1095130   -1.7610495  
C   -4.8166901    0.1063931   -4.2321973  
C   -5.7101060    0.1237981   -5.3785132  
O   -5.3098212    0.1131587   -6.5352152  
C   -7.2498316    0.1577059   -5.1179355  
O   -8.0118428    0.1728932   -6.0752070  
C   -7.7258330    0.1701578   -3.7369503  
H   -7.8895555    0.1784804   -0.7343518  
H   -3.7500176    0.0829602   -4.4070401  
H   -5.4155779    0.1263280    0.2738628  
C  -10.4332923    2.2463973   -0.8693145  
C   -9.3130574    1.8391587   -1.5102594  
C   -9.7821489    0.9293400   -2.5440307  
C  -11.2513533    0.9030377   -2.3787103  
N  -11.6389030    1.6732173   -1.3985993  
C  -12.0980246    0.1073469   -3.2243523  
C  -11.5040002   -0.6283150   -4.1914462  
O  -12.1713044   -1.4161398   -5.0517238  
C  -10.0237377   -0.6226069   -4.3836753  
O   -9.5514830   -1.3166247   -5.2839725  
C   -9.1768090    0.2018139   -3.5033533  
H   -8.2942339    2.1213844   -1.3067344  
H  -13.1686917    0.1069820   -3.0808852  
H  -11.4805970   -1.8073881   -5.6165259  
H  -10.5117859    2.9279746   -0.0372904  
C    2.5528530    2.1414826    2.8079335  
C    2.0663498    1.7338582    4.0032312  
C    0.9804344    0.8229586    3.6752840  
C    0.9495562    0.7966882    2.1971295  
N    1.8690446    1.5676019    1.6831036  
C    0.0000000    0.0000000    1.4700000  
C   -0.8785127   -0.7372425    2.1869543  
O   -1.8187535   -1.5261249    1.6395491  
C   -0.8723269   -0.7321790    3.6796354  
O   -1.7010379   -1.4274584    4.2670412  
C    0.1115397    0.0933559    4.4024240  
H    2.4028853    2.0163452    4.9860947  
H   -2.2861435   -1.9184361    2.3990168  
H    0.0832434    0.0693689    5.4835595  
H    3.3664920    2.8238276    2.6198634  
