62

C    3.3041272    0.0001175   -1.5420434  
C    2.5845371   -0.0004781   -0.3695851  
C    1.2040007   -0.0000010   -0.7283590  
C    1.1422374    0.0006034   -2.1454375  
N    2.4348638    0.0026106   -2.6077465  
C   -0.0655183    0.0008793   -2.8497921  
C   -1.2321772    0.0002320   -2.1101397  
O   -2.4392815    0.0001142   -2.7472517  
C   -1.1911208   -0.0000010   -0.6955262  
O   -2.4371526   -0.0002321   -0.1032860  
C    0.0000000    0.0000000    0.0000000  
H    3.0031534   -0.0000660    0.6222582  
H   -0.1193550    0.0014839   -3.9297469  
H   -3.1132987   -0.0000652   -2.0551785  
H   -2.3200278   -0.0004072    0.8516410  
H    4.3686624    0.0004070   -1.7024295  
C    5.6086916   -2.0215433   -4.9939693  
C    4.8416738   -1.6314637   -3.9494120  
C    3.8592057   -0.7249419   -4.5234101  
C    4.1890997   -0.6815707   -5.9641988  
N    5.2136949   -1.4397095   -6.2460165  
C    3.4372231    0.1163823   -6.8931980  
C    2.4025652    0.8378960   -6.4051039  
O    1.6159680    1.6259441   -7.1576240  
C    2.0444992    0.8147843   -4.9561681  
O    1.0903368    1.4964963   -4.5819175  
C    2.8310663   -0.0116224   -4.0232753  
H    4.9314389   -1.9229650   -2.9169169  
H    0.9732435    2.0052470   -6.5313751  
H    6.4504502   -2.6955823   -4.9845927  
C    3.7956909    0.1340573   -8.3187117  
C    4.7998600   -0.5260924   -8.9882741  
C    4.6995626   -0.1535043  -10.3614888  
C    3.6065056    0.7438634  -10.4705007  
N    3.0788947    0.8951458   -9.2121858  
C    3.2155507    1.3155158  -11.6850613  
C    3.9414393    0.9753154  -12.8100173  
O    3.6028719    1.5049109  -14.0215928  
C    5.0350329    0.0814216  -12.7215631  
O    5.6564395   -0.1579182  -13.9298324  
C    5.4211131   -0.4831167  -11.5237463  
H    5.5158180   -1.1948786   -8.5420427  
H    2.2989465    1.4817938   -8.9765883  
H    2.3833189    2.0000110  -11.7748339  
H    4.2277611    1.1417056  -14.6625771  
H    6.3831034   -0.7708632  -13.7819759  
H    6.2628740   -1.1647089  -11.4870191  
C    0.8175213    0.6860729    2.3021913  
C    0.0000000    0.0000000    1.4700000  
C   -0.8887526   -0.7456559    2.3478473  
C   -0.4549825   -0.3816753    3.7138435  
N    0.5448156    0.4573574    3.6934124  
C   -1.0945674   -0.9182058    4.8835240  
C   -2.1210866   -1.7789155    4.6970523  
O   -2.8083856   -2.3554314    5.6976972  
C   -2.5824069   -2.1655116    3.3310774  
O   -3.5227682   -2.9541547    3.2362962  
C   -1.9100805   -1.6015804    2.1470656  
H   -0.7567140   -0.6349833    5.8697035  
H   -3.4728268   -2.9124471    5.2533954  
H   -2.2742832   -1.9066565    1.1752040  
H    1.6189533    1.3585343    2.0405121  
