60

C    3.3041277    0.0001176   -1.5420422  
C    2.5845371   -0.0004780   -0.3695846  
C    1.2040006   -0.0000008   -0.7283586  
C    1.1422384    0.0006037   -2.1454371  
N    2.4348644    0.0026109   -2.6077459  
C   -0.0655172    0.0008798   -2.8497916  
C   -1.2321763    0.0002325   -2.1101401  
O   -2.4392807    0.0001147   -2.7472523  
C   -1.1911213   -0.0000008   -0.6955266  
O   -2.4371520   -0.0002319   -0.1032867  
C    0.0000000    0.0000000    0.0000000  
H    3.0031534   -0.0000661    0.6222589  
H    2.7054633   -0.0071100   -3.5745256  
H   -0.1193541    0.0014843   -3.9297470  
H   -3.1132989   -0.0000648   -2.0551790  
H   -2.3200289   -0.0004070    0.8516405  
C    6.6801369   -0.0033359    1.2661402  
C    7.7093287   -0.0019930    0.3802296  
C    7.1273480   -0.0004471   -0.9411831  
C    5.6642442   -0.0009742   -0.7511341  
N    5.4589562   -0.0031398    0.6092857  
C    4.7577224    0.0005128   -1.7610450  
C    5.2563301    0.0025578   -3.1262999  
O    4.5202056    0.0039396   -4.1042669  
C    6.8020700    0.0028971   -3.3510072  
O    7.2336242    0.0043058   -4.4960050  
C    7.6791169    0.0014555   -2.1828292  
H    8.7566703   -0.0022582    0.6245425  
H    6.7110416   -0.0046692    2.3436059  
H    4.5604253   -0.0024244    1.0561502  
C   10.0788656   -0.6847739   -1.7252109  
C    9.1320829    0.0020687   -2.4059662  
C    9.8646969    0.7493051   -3.4166161  
C   11.2807826    0.3853016   -3.1957376  
N   11.4125243   -0.4551055   -2.2056116  
C   12.3397139    0.9231939   -4.0047018  
C   11.9994067    1.7852282   -4.9898021  
O   12.8840100    2.3631006   -5.8202121  
C   10.5791561    2.1718849   -5.2378830  
O   10.3425697    2.9617732   -6.1518435  
C    9.5110357    1.6065411   -4.3944200  
H   13.3658077    0.6399212   -3.8208603  
H   12.3438844    2.9208389   -6.4087229  
H    8.4950894    1.9117094   -4.6064477  
H    9.9420097   -1.3584395   -0.8942965  
C    0.0000000    0.0000000    1.4700000  
C    1.0662921    0.0000102    2.3034270  
C    0.4961870   -0.0000064    3.6418889  
C   -0.9663858    0.0000850    3.4240247  
N   -1.2632773    0.0000084    2.1528658  
C   -1.8985362    0.0000517    4.5177257  
C   -1.3925775   -0.0004564    5.7720543  
O   -2.1456383   -0.0005410    6.8851312  
C    0.0786232   -0.0009323    6.0245000  
O    0.4683759   -0.0012588    7.1921102  
C    1.0143166   -0.0008442    4.8859032  
H    2.1107198   -0.0000632    2.0421868  
H   -2.9622183    0.0003270    4.3293377  
H   -1.5042274   -0.0009692    7.6184419  
H    2.0724152   -0.0013148    5.1109744  
