60

C    0.0000000    0.0000000    0.0000000  
C    1.0521664   -0.0011851   -0.8862348  
C    0.4917202   -0.0011938   -2.1979134  
C   -0.9187444    0.0003096   -2.0478678  
N   -1.1833179   -0.0009472   -0.7007905  
C   -1.7951721    0.0010252   -3.1372078  
C   -1.2375866    0.0005151   -4.4010416  
O   -2.0474248    0.0015244   -5.4997569  
C    0.1673546   -0.0013569   -4.5711962  
O    0.5673488   -0.0020673   -5.8915555  
C    1.0325747   -0.0023369   -3.4969896  
H    2.0953051   -0.0030547   -0.6200575  
H   -2.0989778    0.0102265   -0.2891814  
H   -2.8710949    0.0020268   -3.0295498  
H   -1.4634926    0.0006406   -6.2693586  
H    1.5290671   -0.0033093   -5.9180052  
C    4.2912444   -2.1142262   -1.4465428  
C    5.3462991   -1.6514736   -2.1654271  
C    4.8141523   -0.7556743   -3.1650263  
C    3.3521090   -0.7342993   -2.9681418  
N    3.0997545   -1.5787399   -1.9116728  
C    2.4861677   -0.0045268   -3.7159935  
C    3.0304349    0.8143591   -4.7863833  
O    2.3328448    1.5072196   -5.5155015  
C    4.5758766    0.8067818   -5.0130044  
O    5.0456220    1.4920197   -5.9113639  
C    5.4069258   -0.0204581   -4.1418653  
H    6.3794131   -1.9084809   -2.0129899  
H    4.2838764   -2.8015585   -0.6162357  
H    2.1903382   -1.7741895   -1.5350985  
C    7.7111832   -1.0704427   -4.3063389  
C    6.8600598   -0.0197976   -4.3639023  
C    7.6968554    1.1230425   -4.6958514  
C    9.0622947    0.5660279   -4.8049137  
N    9.0769284   -0.7193315   -4.5776991  
C   10.1962521    1.3886488   -5.1251008  
C    9.9760867    2.7076957   -5.3275287  
O   10.9412809    3.5915389   -5.6329156  
C    8.6096595    3.2997422   -5.2249659  
O    8.4831566    4.5082466   -5.4217783  
C    7.4626826    2.4350805   -4.8952264  
H   11.1829163    0.9549778   -5.1981272  
H   10.4788727    4.4451035   -5.7151274  
H    6.4892287    2.9024345   -4.8304335  
H    7.4804359   -2.1008110   -4.0870885  
C    1.0672568    0.0000697    2.3021913  
C    0.0000000    0.0000000    1.4700000  
C   -1.1601224    0.0000736    2.3478473  
C   -0.5938729    0.0000769    3.7138435  
N    0.7113367    0.0001554    3.6934124  
C   -1.4286986    0.0001879    4.8835240  
C   -2.7683114    0.0006799    4.6970523  
O   -3.6653903    0.0008304    5.6976972  
C   -3.3702025    0.0010610    3.3310774  
O   -4.5974910    0.0013779    3.2362962  
C   -2.4926826    0.0008943    2.1470656  
H   -0.9878360   -0.0000190    5.8697035  
H   -4.5324246    0.0012261    5.2533954  
H   -2.9677772    0.0012974    1.1752040  
H    2.1134392    0.0000545    2.0405121  
