58

C    6.5739137    0.0018721   -4.3537915  
C    7.6280829    0.0019470   -3.4977528  
C    7.0842286    0.0017737   -2.1601960  
C    5.6162776    0.0015611   -2.3082178  
N    5.3720684    0.0020316   -3.6621941  
C    4.7390840    0.0009613   -1.2727298  
C    5.2766310    0.0007201    0.0776699  
O    4.5688490    0.0002470    1.0763413  
C    6.8281778    0.0011907    0.2579657  
O    7.2923831    0.0012996    1.3901206  
C    7.6713704    0.0015461   -0.9348787  
H    8.6679891    0.0022879   -3.7719937  
H    8.7446421    0.0016655   -0.8014251  
H    4.4610946    0.0004680   -4.0831113  
C    7.7058369    0.0037766   -6.6247191  
C    7.3709033    0.0057131   -7.9407317  
C    5.9285776    0.0055190   -8.0080581  
C    5.4472293    0.0033239   -6.6133935  
N    6.5739134    0.0019520   -5.8237915  
C    4.1392999    0.0029083   -6.2514197  
C    3.1389011    0.0045196   -7.3058081  
O    1.9354513    0.0042348   -7.0821812  
C    3.6260150    0.0066026   -8.7898966  
O    2.7929724    0.0076641   -9.6861678  
C    5.0625285    0.0071490   -9.0550025  
H    8.0560347    0.0069350   -8.7697109  
H    3.8074570    0.0014160   -5.2224455  
H    5.3915572    0.0087993  -10.0852757  
H    8.6843444    0.0033118   -6.1725981  
C    3.2798077    0.0005856   -1.4499661  
C    2.5571132    0.0005565   -2.5996564  
C    1.1637425    0.0001547   -2.2210366  
C    1.1336959   -0.0000200   -0.7459475  
N    2.4483509   -0.0001429   -0.3402730  
C    0.0000000    0.0000000    0.0000000  
C   -1.2757370   -0.0000187   -0.6964411  
O   -2.3524597   -0.0000640   -0.1142306  
C   -1.2676502   -0.0000874   -2.2584078  
O   -2.3355774   -0.0004102   -2.8557287  
C    0.0181551    0.0001758   -2.9516297  
H    2.9547342    0.0006074   -3.5989118  
H    0.0150776    0.0003317   -4.0331632  
H    2.7563626    0.0012823    0.6148051  
C    2.5528530    2.1414826    2.8079335  
C    2.0663498    1.7338582    4.0032312  
C    0.9804344    0.8229586    3.6752840  
C    0.9495562    0.7966882    2.1971295  
N    1.8690446    1.5676019    1.6831036  
C    0.0000000    0.0000000    1.4700000  
C   -0.8785127   -0.7372425    2.1869543  
O   -1.8187535   -1.5261249    1.6395491  
C   -0.8723269   -0.7321790    3.6796354  
O   -1.7010379   -1.4274584    4.2670412  
C    0.1115397    0.0933559    4.4024240  
H    2.4028853    2.0163452    4.9860947  
H   -2.2861435   -1.9184361    2.3990168  
H    0.0832434    0.0693689    5.4835595  
H    3.3664920    2.8238276    2.6198634  
