62

C    3.3041272    0.0001177   -1.5420431  
C    2.5845370   -0.0004780   -0.3695856  
C    1.2040004   -0.0000008   -0.7283590  
C    1.1422372    0.0006037   -2.1454372  
N    2.4348639    0.0026111   -2.6077465  
C   -0.0655183    0.0008798   -2.8497916  
C   -1.2321770    0.0002324   -2.1101397  
O   -2.4392813    0.0001147   -2.7472520  
C   -1.1911211   -0.0000007   -0.6955262  
O   -2.4371526   -0.0002320   -0.1032861  
C    0.0000000    0.0000000    0.0000000  
H    3.0031535   -0.0000661    0.6222581  
H    2.7054628   -0.0071098   -3.5745262  
H   -3.1132988   -0.0000650   -2.0551783  
H   -2.3200283   -0.0004072    0.8516412  
C    2.2991553   -2.1048097   -5.8924433  
C    1.6888954   -1.6397494   -7.0128793  
C    0.6412934   -0.7448183   -6.5810648  
C    0.6916333   -0.7264672   -5.1066424  
N    1.7177150   -1.5716519   -4.7520883  
C   -0.1387085    0.0017018   -4.3179686  
C   -1.1495782    0.8219300   -4.9644229  
O   -1.9445182    1.5135264   -4.3414738  
C   -1.2212028    0.8175533   -6.5247613  
O   -2.0683186    1.5039439   -7.0802106  
C   -0.2716618   -0.0081811   -7.2666416  
H    1.9434322   -1.8946831   -8.0262074  
H   -0.3277648   -0.0054796   -8.3467198  
H    3.1245931   -2.7923373   -5.8038528  
H    2.0018698   -1.7690376   -3.8101000  
C    6.9078749   -0.0046647    1.0804404  
C    5.6166942   -0.0033644    0.6749415  
C    5.6800157   -0.0008097   -0.7784972  
C    7.1258518   -0.0007965   -1.0885652  
N    7.8505614   -0.0031316   -0.0028488  
C    7.6141446    0.0013733   -2.4401020  
C    6.6996203    0.0030473   -3.4365845  
O    7.0134391    0.0051621   -4.7433187  
C    5.2335527    0.0027108   -3.1558602  
O    4.4582991    0.0044332   -4.1119978  
C    4.7577221    0.0005130   -1.7610465  
H    4.7307120   -0.0041440    1.2865875  
H    8.6761778    0.0015371   -2.6375719  
H    6.1552194    0.0059339   -5.2044176  
H    7.2868915   -0.0066359    2.0900525  
C    0.8576279    0.7185626    2.2703808  
C    0.0000000    0.0000000    1.4700000  
C   -0.8668858   -0.7285659    2.3373528  
C   -0.4876752   -0.4117774    3.6669281  
N    0.5635254    0.4678311    3.5902241  
C   -1.1297612   -0.9515493    4.7854808  
C   -2.1738724   -1.8268314    4.5576857  
O   -2.8357962   -2.3827064    5.6140350  
C   -2.5667212   -2.1555554    3.2384331  
O   -3.6226318   -3.0413663    3.1773122  
C   -1.9335634   -1.6236449    2.1344818  
H    1.0363952    0.8769718    4.3757045  
H   -0.8454472   -0.7142436    5.8013813  
H   -3.5178062   -2.9546422    5.2385129  
H   -3.8247440   -3.2102924    2.2519915  
H   -2.2566033   -1.8942483    1.1360343  
H    1.6567807    1.3889844    2.0042067  
