58

C   -0.4802711    0.9857811   -0.8010307  
C    0.0000000    0.0000000    0.0000000  
C    0.5054593   -1.0381436   -0.8669512  
C    0.2786963   -0.5730227   -2.2486276  
N   -0.3221835    0.6598297   -2.1395012  
C    0.6193683   -1.2719945   -3.3608712  
C    1.2513596   -2.5690484   -3.1854454  
O    1.5952949   -3.2748851   -4.1244896  
C    1.5009086   -3.0814944   -1.7311656  
O    2.0319954   -4.1721624   -1.5710047  
C    1.0900432   -2.2378240   -0.6116736  
H    1.2665498   -2.5998089    0.3920871  
H   -0.9365921    1.9228562   -0.5261649  
H   -0.6009070    1.2351724   -2.9130264  
C    0.9361268    2.6671826   -5.4216936  
C    0.9751154    1.7162018   -4.4595631  
C    0.5511846    0.4931802   -5.1236416  
C    0.2885409    0.8995831   -6.5209383  
N    0.5125333    2.1728274   -6.7016765  
C   -0.1572509   -0.0376402   -7.5149045  
C   -0.3323168   -1.3225335   -7.1305409  
O   -0.7442602   -2.3024424   -7.9528075  
C   -0.0752818   -1.7637263   -5.7278851  
O   -0.2556996   -2.9489323   -5.4486778  
C    0.3813567   -0.7833918   -4.7267105  
H    1.2568547    1.8305174   -3.4267849  
H   -0.3416963    0.2870255   -8.5285527  
H   -0.7728079   -3.0997147   -7.3936160  
C    2.3212401    5.3290663   -2.1262003  
C    1.9192121    4.2277998   -2.8023395  
C    1.6775574    4.6891052   -4.1607581  
C    1.9920747    6.1335458   -4.1253442  
N    2.3700320    6.5144197   -2.9353557  
C    1.8771545    6.9660378   -5.2910360  
C    1.4670599    6.3820020   -6.4399743  
O    1.3155344    7.0381385   -7.6029732  
C    1.1425304    4.9265837   -6.5077873  
O    0.7750242    4.4623085   -7.5869575  
C    1.2682622    4.0938498   -5.2983778  
H    1.8013027    3.2261062   -2.4257983  
H    2.1133576    8.0187150   -5.2363652  
H    1.0147413    6.3590233   -8.2334330  
H    2.5972497    5.4061345   -1.0865594  
C    2.3971438    2.0127888    3.1728260  
C    1.9431056    1.6308205    1.9564670  
C    0.8496017    0.7127664    2.2356185  
C    0.7794028    0.6545384    3.7115134  
N    1.6840587    1.4146091    4.2663826  
C   -0.1885723   -0.1578550    4.3957118  
C   -1.0476298   -0.8789867    3.6398520  
O   -2.0015663   -1.6796266    4.1448486  
C   -1.0022026   -0.8410666    2.1483229  
O   -1.8147390   -1.5232959    1.5241687  
C    0.0000000    0.0000000    1.4700000  
H    2.3054237    1.9346118    0.9892483  
H   -0.2170646   -0.1815267    5.4753125  
H   -2.4487139   -2.0549881    3.3649027  
H    3.2048689    2.6911772    3.3971983  
