58

C    3.2573674   -0.0002918   -1.5109377  
C    2.5379467   -0.0001707   -0.3591955  
C    1.1435041    0.0000334   -0.7338492  
C    1.1092607   -0.0000078   -2.2088471  
N    2.4227563    0.0001914   -2.6182602  
C   -0.0265529   -0.0002519   -2.9515657  
C   -1.3003036   -0.0002636   -2.2514976  
O   -2.3786783   -0.0004128   -2.8306423  
C   -1.2877729    0.0000314   -0.6895603  
O   -2.3539953    0.0003307   -0.0892034  
C    0.0000000    0.0000000    0.0000000  
H    2.9384089   -0.0000366    0.6389244  
H   -0.0296290   -0.0004080   -4.0327227  
H    4.3270394   -0.0004764   -1.6439434  
C    5.6729071   -2.0145375   -4.9077641  
C    4.8700832   -1.6312625   -3.8878850  
C    3.9127041   -0.7149582   -4.4881447  
C    4.2947940   -0.6590675   -5.9155434  
N    5.3258964   -1.4188900   -6.1675113  
C    3.5802908    0.1511099   -6.8632691  
C    2.5315064    0.8723550   -6.4058944  
O    1.7758673    1.6710695   -7.1786208  
C    2.1210488    0.8367662   -4.9711754  
O    1.1566751    1.5189644   -4.6250402  
C    2.8699643   -0.0020520   -4.0185819  
H    4.9211863   -1.9331395   -2.8557345  
H    1.1123787    2.0470800   -6.5723600  
H    6.5110723   -2.6922906   -4.8745382  
C    3.9902788    0.1810336   -8.2746208  
C    5.0091031   -0.4780793   -8.8842453  
C    4.9797295   -0.1017904  -10.2779384  
C    3.8522112    0.8373294  -10.4313897  
N    3.2936110    0.9661686   -9.1806874  
C    3.4921700    1.4217081  -11.6021054  
C    4.2667195    1.1043897  -12.7903471  
O    4.0217085    1.5792142  -13.8916247  
C    5.4649462    0.1120852  -12.6510985  
O    6.1241421   -0.1628728  -13.6446369  
C    5.7560919   -0.4534845  -11.3361016  
H    5.7020084   -1.1512054   -8.4115964  
H    2.6617019    2.1079769  -11.6930296  
H    6.5875196   -1.1395693  -11.2481239  
H    2.5030129    1.5433759   -8.9597042  
C    0.0000000    0.0000000    1.4700000  
C    1.0662921    0.0000102    2.3034270  
C    0.4961870   -0.0000064    3.6418889  
C   -0.9663858    0.0000850    3.4240247  
N   -1.2632773    0.0000084    2.1528658  
C   -1.8985362    0.0000517    4.5177257  
C   -1.3925775   -0.0004564    5.7720543  
O   -2.1456383   -0.0005410    6.8851312  
C    0.0786232   -0.0009323    6.0245000  
O    0.4683759   -0.0012588    7.1921102  
C    1.0143166   -0.0008442    4.8859032  
H    2.1107198   -0.0000632    2.0421868  
H   -2.9622183    0.0003270    4.3293377  
H   -1.5042274   -0.0009692    7.6184419  
H    2.0724152   -0.0013148    5.1109744  
