58

C    5.9718890   -2.1066115   -4.3836097  
C    5.8824616   -1.6421430   -5.6565381  
C    4.7503164   -0.7470249   -5.6994995  
C    4.1834492   -0.7279190   -4.3374836  
N    4.9692735   -1.5728898   -3.5882214  
C    3.1006054    0.0006263   -3.9654951  
C    2.4499043    0.8204921   -4.9739316  
O    1.4681175    1.5123811   -4.7379561  
C    3.0331141    0.8153160   -6.4229464  
O    2.4935217    1.5013959   -7.2804986  
C    4.2049175   -0.0107669   -6.7027952  
H    6.5349995   -1.8975862   -6.4723546  
H    4.6026868   -0.0086188   -7.7085283  
H    4.8362803   -1.7697856   -2.6132382  
C    9.3912940   -4.2224326   -6.1483502  
C    9.8252909   -4.8998733   -5.0543683  
C    8.9435003   -4.5505629   -3.9656707  
C    7.9530865   -3.6073462   -4.5190358  
N    8.2801130   -3.4499818   -5.8461299  
C    6.9454237   -3.0441299   -3.8055184  
C    6.8286791   -3.3898306   -2.3986082  
O    5.9553054   -2.9353871   -1.6712840  
C    7.8668256   -4.3865742   -1.7915160  
O    7.7787691   -4.6848638   -0.6080760  
C    8.9083159   -4.9281199   -2.6609287  
H   10.6671818   -5.5678902   -5.0145548  
H    9.6230943   -5.6177690   -2.2329096  
H    9.7898561   -4.2223366   -7.1498686  
H    7.7862923   -2.8657264   -6.4956171  
C    3.2798083    0.0005857   -1.4499652  
C    2.5571142    0.0005565   -2.5996556  
C    1.1637432    0.0001548   -2.2210361  
C    1.1336964   -0.0000200   -0.7459473  
N    2.4483512   -0.0001428   -0.3402723  
C    0.0000000    0.0000000    0.0000000  
C   -1.2757368   -0.0000186   -0.6964415  
O   -2.3524598   -0.0000639   -0.1142311  
C   -1.2676497   -0.0000872   -2.2584083  
O   -2.3355766   -0.0004101   -2.8557295  
C    0.0181558    0.0001758   -2.9516296  
H    0.0150788    0.0003319   -4.0331631  
H    4.3498547    0.0008612   -1.3200026  
H    2.7563626    0.0012823    0.6148059  
C    0.8175213    0.6860729    2.3021913  
C    0.0000000    0.0000000    1.4700000  
C   -0.8887526   -0.7456559    2.3478473  
C   -0.4549825   -0.3816753    3.7138435  
N    0.5448156    0.4573574    3.6934124  
C   -1.0945674   -0.9182058    4.8835240  
C   -2.1210866   -1.7789155    4.6970523  
O   -2.8083856   -2.3554314    5.6976972  
C   -2.5824069   -2.1655116    3.3310774  
O   -3.5227682   -2.9541547    3.2362962  
C   -1.9100805   -1.6015804    2.1470656  
H   -0.7567140   -0.6349833    5.8697035  
H   -3.4728268   -2.9124471    5.2533954  
H   -2.2742832   -1.9066565    1.1752040  
H    1.6189533    1.3585343    2.0405121  
