60

C    1.1243417    0.0099321   -0.7919012  
C    0.7474087    0.0234143   -2.1148546  
C   -0.6787370    0.0234851   -2.1414702  
C   -1.1201741    0.0099191   -0.7935548  
N    0.0000000    0.0000000    0.0000000  
C   -2.4730811    0.0065030   -0.4408244  
C   -3.3971946    0.0172796   -1.4675061  
O   -4.7313510    0.0148789   -1.1793468  
C   -2.9763635    0.0305094   -2.8186326  
O   -4.0166456    0.0397262   -3.7247623  
C   -1.6418545    0.0336135   -3.1673482  
H    1.4178729    0.0310212   -2.9571211  
H   -2.8160170   -0.0039605    0.5845960  
H   -5.1938807    0.0233640   -2.0274383  
H   -3.6464653    0.0484238   -4.6127344  
H    2.1062469    0.0051692   -0.3505411  
C    1.5647051   -2.0539353   -5.3222156  
C    1.3415240   -1.5772550   -6.5740306  
C    0.2114874   -0.6825236   -6.4885403  
C   -0.2083787   -0.6769531   -5.0741600  
N    0.6518740   -1.5285930   -4.4202760  
C   -1.2456306    0.0472387   -4.5828770  
C   -1.9988922    0.8763687   -5.5089849  
O   -2.9500277    1.5652873   -5.1639738  
C   -1.5719569    0.8855785   -7.0114651  
O   -2.1988453    1.5795461   -7.8005664  
C   -0.4365472    0.0630232   -7.4214651  
H    1.9041759   -1.8243693   -7.4566241  
H   -0.1472037    0.0751514   -8.4635095  
H    0.6225102   -1.7349847   -3.4386513  
C    2.5935108   -2.9963395   -4.8592540  
C    3.5571703   -3.6034495   -5.5902516  
C    4.2905401   -4.4226069   -4.6375453  
C    3.6163961   -4.1829898   -3.3434440  
N    2.6207994   -3.3478455   -3.4671784  
C    4.0493078   -4.8205224   -2.1305031  
C    5.1073416   -5.6596010   -2.2069653  
O    5.6176667   -6.3218245   -1.1547917  
C    5.8085280   -5.9222711   -3.4982838  
O    6.7645300   -6.6976809   -3.4937534  
C    5.3454930   -5.2561563   -4.7286551  
H    3.7468564   -3.5073489   -6.6456473  
H    3.5381981   -4.6269013   -1.1987373  
H    6.3594241   -6.8360714   -1.5215318  
H    5.8801634   -5.4730626   -5.6437007  
C    0.0000000    0.0000000    1.4700000  
C    1.0662921    0.0000102    2.3034270  
C    0.4961870   -0.0000064    3.6418889  
C   -0.9663858    0.0000850    3.4240247  
N   -1.2632773    0.0000084    2.1528658  
C   -1.8985362    0.0000517    4.5177257  
C   -1.3925775   -0.0004564    5.7720543  
O   -2.1456383   -0.0005410    6.8851312  
C    0.0786232   -0.0009323    6.0245000  
O    0.4683759   -0.0012588    7.1921102  
C    1.0143166   -0.0008442    4.8859032  
H    2.1107198   -0.0000632    2.0421868  
H   -2.9622183    0.0003270    4.3293377  
H   -1.5042274   -0.0009692    7.6184419  
H    2.0724152   -0.0013148    5.1109744  
