60

C    3.3003545    0.0005278   -1.4738982  
C    2.5232817    0.0003499   -2.6090743  
C    1.1623204   -0.0001317   -2.1820100  
C    1.1711892    0.0000584   -0.7636137  
N    2.4852303   -0.0014918   -0.3662354  
C    0.0000000    0.0000000    0.0000000  
C   -1.2020389    0.0000521   -0.6806480  
O   -2.3759245    0.0003494    0.0157744  
C   -1.2314649   -0.0005110   -2.0955509  
O   -2.5054384   -0.0008035   -2.6250181  
C   -0.0764514   -0.0007270   -2.8495195  
H    2.8919960   -0.0005616   -3.6205298  
H    2.8036263    0.0088182    0.5858667  
H   -3.0835641    0.0000348   -0.6418821  
H   -2.4360050   -0.0011525   -3.5845924  
H   -0.1304086   -0.0013418   -3.9319086  
C    6.7690613    0.0009409   -4.2725614  
C    5.4996713    0.0003253   -3.8032773  
C    5.6352800    0.0001668   -2.3547915  
C    7.0947606    0.0006471   -2.1170956  
N    7.7645150    0.0011828   -3.2375502  
C    7.6497403    0.0007000   -0.7915448  
C    6.7859642    0.0006807    0.2492365  
O    7.1644555    0.0007169    1.5387270  
C    5.3077383    0.0005722    0.0418547  
O    4.5810512    0.0004363    1.0354074  
C    4.7630507    0.0004758   -1.3275395  
H    4.5843347    0.0001073   -4.3700522  
H    6.3302582    0.0007162    2.0419847  
H    7.0973396    0.0012426   -5.2997937  
C   11.1141610    2.0138924   -2.7432853  
C    9.8480905    1.6317630   -2.4558429  
C    9.9787426    0.7137625   -1.3348145  
C   11.4320281    0.6557388   -1.0680261  
N   12.1027044    1.4158733   -1.8904487  
C   11.9808546   -0.1565469   -0.0172793  
C   11.1170780   -0.8777708    0.7330951  
O   11.4901830   -1.6783278    1.7459828  
C    9.6449899   -0.8400567    0.4887677  
O    8.9179496   -1.5223606    1.2106362  
C    9.1065570    0.0009025   -0.5951154  
H    8.9379203    1.9354161   -2.9441664  
H   13.0469689   -0.1800696    0.1552204  
H   10.6575325   -2.0537907    2.0849119  
H   11.4443620    2.6923004   -3.5138066  
C    0.0000000    0.0000000    1.4700000  
C    1.0662921    0.0000102    2.3034270  
C    0.4961870   -0.0000064    3.6418889  
C   -0.9663858    0.0000850    3.4240247  
N   -1.2632773    0.0000084    2.1528658  
C   -1.8985362    0.0000517    4.5177257  
C   -1.3925775   -0.0004564    5.7720543  
O   -2.1456383   -0.0005410    6.8851312  
C    0.0786232   -0.0009323    6.0245000  
O    0.4683759   -0.0012588    7.1921102  
C    1.0143166   -0.0008442    4.8859032  
H    2.1107198   -0.0000632    2.0421868  
H   -2.9622183    0.0003270    4.3293377  
H   -1.5042274   -0.0009692    7.6184419  
H    2.0724152   -0.0013148    5.1109744  
