60

C    3.2798085    0.0005856   -1.4499646  
C    2.5571146    0.0005565   -2.5996553  
C    1.1637436    0.0001548   -2.2210360  
C    1.1336964   -0.0000200   -0.7459468  
N    2.4483512   -0.0001429   -0.3402719  
C    0.0000000    0.0000000    0.0000000  
C   -1.2757371   -0.0000187   -0.6964415  
O   -2.3524597   -0.0000640   -0.1142312  
C   -1.2676493   -0.0000873   -2.2584081  
O   -2.3355761   -0.0004101   -2.8557295  
C    0.0181561    0.0001759   -2.9516296  
H    2.9547354    0.0006074   -3.5989104  
H    2.7563628    0.0012823    0.6148064  
C    6.8068846    0.0000780   -4.1746993  
C    5.5278607   -0.0005420   -3.7323448  
C    5.6328282    0.0002217   -2.2813173  
C    7.0869598    0.0011851   -2.0128315  
N    7.7802429    0.0011862   -3.1188826  
C    7.6138024    0.0021815   -0.6758491  
C    6.7282250    0.0026030    0.3464456  
O    7.0793804    0.0035197    1.6436464  
C    5.2547111    0.0020258    0.1078709  
O    4.5071898    0.0023331    1.0858448  
C    4.7390846    0.0009612   -1.2727278  
H    4.6247060   -0.0013201   -4.3183371  
H    8.6810612    0.0026661   -0.5089105  
H    6.2347342    0.0036360    2.1291622  
H    7.1567983   -0.0001765   -5.1947648  
C    0.8291949   -0.6854809   -5.2562366  
C    0.0139740    0.0003878   -4.4216236  
C   -0.8773489    0.7460787   -5.2968311  
C   -0.4474293    0.3823398   -6.6641086  
N    0.5525089   -0.4565929   -6.6466432  
C   -1.0903943    0.9189730   -7.8318869  
C   -2.1164672    1.7795502   -7.6423719  
O   -2.8066693    2.3561393   -8.6409740  
C   -2.5739393    2.1659016   -6.2750338  
O   -3.5141080    2.9544342   -6.1774641  
C   -1.8981893    1.6018691   -5.0930214  
H   -0.7553189    0.6359275   -8.8190643  
H   -3.4699009    2.9130227   -8.1947034  
H   -2.2596568    1.9067676   -4.1200833  
H    1.6314372   -1.3578974   -4.9969352  
C    2.5311839    2.1237619    3.0120429  
C    1.9795631    1.6616747    1.8395852  
C    0.9223175    0.7739173    2.1983588  
C    0.8753926    0.7337535    3.6154372  
N    1.8668922    1.5631002    4.0777464  
C   -0.0496243   -0.0427881    4.3197917  
C   -0.9437528   -0.7922060    3.5801400  
O   -1.8685244   -1.5680278    4.2172520  
C   -0.9124520   -0.7656372    2.1655264  
O   -1.8671164   -1.5663939    1.5732860  
C    0.0000000    0.0000000    1.4700000  
H    2.3005065    1.9304404    0.8477417  
H    2.0679347    1.7444845    5.0445261  
H   -0.0904770   -0.0778569    5.3997470  
H   -2.3849669   -2.0011402    3.5251786  
H   -1.7775064   -1.4909735    0.6183591  
H    3.3468514    2.8078103    3.1724291  
