58

C    3.2798090    0.0005856   -1.4499635  
C    2.5571157    0.0005565   -2.5996544  
C    1.1637443    0.0001548   -2.2210357  
C    1.1336970   -0.0000200   -0.7459466  
N    2.4483515   -0.0001429   -0.3402711  
C    0.0000000    0.0000000    0.0000000  
C   -1.2757370   -0.0000186   -0.6964421  
O   -2.3524594   -0.0000639   -0.1142324  
C   -1.2676484   -0.0000873   -2.2584088  
O   -2.3355747   -0.0004100   -2.8557305  
C    0.0181577    0.0001759   -2.9516294  
H    2.9547365    0.0006075   -3.5989094  
H    0.0150811    0.0003319   -4.0331627  
H    2.7563626    0.0012823    0.6148073  
C    6.8068859    0.0000780   -4.1746965  
C    5.5278621   -0.0005420   -3.7323432  
C    5.6328292    0.0002217   -2.2813155  
C    7.0869604    0.0011851   -2.0128292  
N    7.7802440    0.0011862   -3.1188801  
C    7.6138028    0.0021815   -0.6758464  
C    6.7282245    0.0026030    0.3464480  
O    7.0793800    0.0035197    1.6436489  
C    5.2547115    0.0020257    0.1078729  
O    4.5071896    0.0023331    1.0858464  
C    4.7390854    0.0009613   -1.2727261  
H    4.6247078   -0.0013200   -4.3183357  
H    6.2347335    0.0036359    2.1291649  
H    7.1567997   -0.0001765   -5.1947623  
C   10.7817666    2.1434105   -2.7654973  
C   11.8876636    1.7366108   -2.0998511  
C   11.3961603    0.8262078   -1.0770659  
C    9.9310012    0.7992925   -1.2749741  
N    9.5649758    1.5694305   -2.2633581  
C    9.0661429    0.0028410   -0.4486738  
C    9.6389784   -0.7335590    0.5305651  
O    8.9531225   -1.5221295    1.3754313  
C   11.1146818   -0.7278294    0.7551282  
O   11.5672072   -1.4223539    1.6651160  
C   11.9805424    0.0974465   -0.1057602  
H   12.9106290    2.0193393   -2.2806375  
H    9.6313745   -1.9138228    1.9548309  
H   13.0443264    0.0739614    0.0892899  
H   10.7214550    2.8251886   -3.5988724  
C    2.5528530    2.1414826    2.8079335  
C    2.0663498    1.7338582    4.0032312  
C    0.9804344    0.8229586    3.6752840  
C    0.9495562    0.7966882    2.1971295  
N    1.8690446    1.5676019    1.6831036  
C    0.0000000    0.0000000    1.4700000  
C   -0.8785127   -0.7372425    2.1869543  
O   -1.8187535   -1.5261249    1.6395491  
C   -0.8723269   -0.7321790    3.6796354  
O   -1.7010379   -1.4274584    4.2670412  
C    0.1115397    0.0933559    4.4024240  
H    2.4028853    2.0163452    4.9860947  
H   -2.2861435   -1.9184361    2.3990168  
H    0.0832434    0.0693689    5.4835595  
H    3.3664920    2.8238276    2.6198634  
