60

C    0.0000000    0.0000000    0.0000000  
C    1.0521663   -0.0011902   -0.8862345  
C    0.4917215   -0.0011956   -2.1979133  
C   -0.9187430    0.0003149   -2.0478683  
N   -1.1833172   -0.0009411   -0.7007910  
C   -1.7951704    0.0010351   -3.1372088  
C   -1.2375840    0.0005226   -4.4010423  
O   -2.0474221    0.0015361   -5.4997580  
C    0.1673576   -0.0013565   -4.5711965  
O    0.5673516   -0.0020685   -5.8915550  
C    1.0325767   -0.0023411   -3.4969892  
H    2.0953056   -0.0030649   -0.6200563  
H   -2.0989778    0.0102372   -0.2891821  
H   -1.4634890    0.0006499   -6.2693592  
H    1.5290706   -0.0033151   -5.9180044  
C   -3.2578654    0.0024039   -2.9908502  
C   -4.0046943    0.0033125   -1.8566893  
C   -5.3897520    0.0044625   -2.2646700  
C   -5.3886200    0.0041181   -3.7400646  
N   -4.0656857    0.0032564   -4.1178666  
C   -6.5062992    0.0045470   -4.5098033  
C   -7.7964677    0.0056316   -3.8404771  
O   -8.8606467    0.0061494   -4.4453112  
C   -7.8213901    0.0062652   -2.2786884  
O   -8.9017024    0.0074855   -1.7040686  
C   -6.5505218    0.0054370   -1.5584490  
H   -3.6282784    0.0033733   -0.8492543  
H   -6.4834511    0.0041524   -5.5907230  
H   -6.5764544    0.0056778   -0.4772221  
H   -3.7375610    0.0012866   -5.0662218  
C    4.1863495   -2.1478987   -1.3903815  
C    5.2964256   -1.7420839   -2.0496426  
C    4.8116968   -0.8307459   -3.0748257  
C    3.3454784   -0.8022678   -2.8851483  
N    2.9730431   -1.5723695   -1.8991338  
C    2.4861696   -0.0045381   -3.7159924  
C    3.0653236    0.7315911   -4.6917123  
O    2.3851097    1.5212468   -5.5401187  
C    4.5422587    0.7242970   -4.9079763  
O    5.0006683    1.4186590   -5.8151385  
C    5.4023444   -0.1022713   -4.0425503  
H    6.3180414   -2.0260239   -1.8632157  
H    3.0670453    1.9124006   -6.1155450  
H    6.4672331   -0.0799014   -4.2316067  
H    4.1205927   -2.8299238   -0.5576204  
C    3.1301144    0.0010313    3.1728260  
C    2.5367765    0.0002768    1.9564670  
C    1.1089900   -0.0001027    2.2356185  
C    1.0177864    0.0004150    3.7115134  
N    2.1993570    0.0011613    4.2663826  
C   -0.2459220    0.0002880    4.3957118  
C   -1.3675327    0.0000606    3.6398520  
O   -2.6129319   -0.0000866    4.1448486  
C   -1.3083589   -0.0000910    2.1483229  
O   -2.3693264   -0.0004206    1.5241687  
C    0.0000000    0.0000000    1.4700000  
H    3.0096015    0.0001008    0.9892483  
H   -0.2829642    0.0004689    5.4753125  
H   -3.1967446   -0.0002093    3.3649027  
H    4.1849273    0.0015113    3.3971983  
