58

C    2.5092678   -2.0880362   -5.9399679  
C    1.9605221   -1.6268626   -4.7865937  
C    0.8894596   -0.7326236   -5.1580731  
C    0.8589576   -0.7104878   -6.6329864  
N    1.8659273   -1.5524063   -7.0453877  
C   -0.0149620    0.0176441   -7.3731170  
C   -0.9904836    0.8341826   -6.6701528  
O   -1.8197969    1.5255374   -7.2468411  
C   -0.9762341    0.8261497   -5.1082510  
O   -1.7925785    1.5098879   -4.5054704  
C    0.0139742    0.0003880   -4.4216237  
H    2.2707715   -1.8836544   -3.7893890  
H   -0.0204987    0.0196525   -8.4542617  
H    3.3296625   -2.7739650   -6.0754075  
C    3.2798084    0.0005856   -1.4499648  
C    2.5571145    0.0005566   -2.5996552  
C    1.1637436    0.0001549   -2.2210359  
C    1.1336965   -0.0000199   -0.7459471  
N    2.4483512   -0.0001427   -0.3402717  
C    0.0000000    0.0000000    0.0000000  
C   -1.2757368   -0.0000186   -0.6964415  
O   -2.3524598   -0.0000639   -0.1142315  
C   -1.2676495   -0.0000872   -2.2584081  
O   -2.3355762   -0.0004101   -2.8557296  
C    0.0181563    0.0001760   -2.9516296  
H    2.9547356    0.0006075   -3.5989103  
H    4.3498548    0.0008613   -1.3200014  
H    2.7563626    0.0012824    0.6148063  
C    3.0579312   -5.1828385   -9.3396267  
C    2.6912182   -4.3739765   -8.3184294  
C    2.5440997   -3.0565110   -8.9177131  
C    2.8692133   -3.2583604  -10.3460476  
N    3.1711255   -4.5028165  -10.5993616  
C    2.8392431   -2.1780488  -11.2932098  
C    2.4995354   -0.9519056  -10.8343992  
O    2.4311212    0.1459531  -11.6064526  
C    2.1657295   -0.7162805   -9.3987056  
O    1.8653719    0.4257781   -9.0512750  
C    2.2037027   -1.8406473   -8.4467171  
H    2.5392229   -4.6386810   -7.2860032  
H    3.0816484   -2.3541764  -12.3310575  
H    2.1654911    0.8599650  -10.9991802  
H    3.2653700   -6.2406214   -9.3074161  
C    2.3971438    2.0127888    3.1728260  
C    1.9431056    1.6308205    1.9564670  
C    0.8496017    0.7127664    2.2356185  
C    0.7794028    0.6545384    3.7115134  
N    1.6840587    1.4146091    4.2663826  
C   -0.1885723   -0.1578550    4.3957118  
C   -1.0476298   -0.8789867    3.6398520  
O   -2.0015663   -1.6796266    4.1448486  
C   -1.0022026   -0.8410666    2.1483229  
O   -1.8147390   -1.5232959    1.5241687  
C    0.0000000    0.0000000    1.4700000  
H    2.3054237    1.9346118    0.9892483  
H   -0.2170646   -0.1815267    5.4753125  
H   -2.4487139   -2.0549881    3.3649027  
H    3.2048689    2.6911772    3.3971983  
