58

C    6.5597220   -0.0008210    1.3835020  
C    7.6114516   -0.0009113    0.5244669  
C    7.0637930   -0.0009871   -0.8115368  
C    5.5962691   -0.0009037   -0.6593385  
N    5.3559137   -0.0012037    0.6953271  
C    4.7161325   -0.0005435   -1.6923264  
C    5.2498347   -0.0004422   -3.0442503  
O    4.5392139   -0.0001860   -4.0409037  
C    6.8008624   -0.0007797   -3.2289601  
O    7.2618442   -0.0010045   -4.3624314  
C    7.6474458   -0.0008762   -2.0385198  
H    8.6521330   -0.0011060    0.7957480  
H    8.7203338   -0.0009048   -2.1750269  
H    4.4461411    0.0003272    1.1188348  
C    7.6981033   -0.0022813    3.6511996  
C    7.3669155   -0.0040621    4.9681603  
C    5.9247871   -0.0040063    5.0395906  
C    5.4394720   -0.0020620    3.6463009  
N    6.5639046   -0.0006886    2.8534960  
C    4.1305179   -0.0018329    3.2880503  
C    3.1331236   -0.0033946    4.3452813  
O    1.9290423   -0.0032656    4.1250797  
C    3.6244587   -0.0052133    5.8279784  
O    2.7939699   -0.0062307    6.7266161  
C    5.0617205   -0.0055739    6.0889958  
H    8.0544030   -0.0050939    5.7951872  
H    3.7957483   -0.0005233    2.2600243  
H    5.3936799   -0.0070417    7.1183283  
H    8.6753193   -0.0017814    3.1962962  
C    3.2573665   -0.0002920   -1.5109385  
C    2.5379463   -0.0001709   -0.3591964  
C    1.1435038    0.0000331   -0.7338500  
C    1.1092599   -0.0000083   -2.2088477  
N    2.4227553    0.0001909   -2.6182613  
C   -0.0265539   -0.0002524   -2.9515660  
C   -1.3003040   -0.0002640   -2.2514977  
O   -2.3786790   -0.0004133   -2.8306421  
C   -1.2877727    0.0000311   -0.6895603  
O   -2.3539959    0.0003306   -0.0892030  
C    0.0000000    0.0000000    0.0000000  
H    2.9384091   -0.0000367    0.6389234  
H   -0.0296303   -0.0004086   -4.0327229  
H    2.7280482   -0.0013407   -3.5742119  
C    0.0000000    0.0000000    1.4700000  
C    1.0662921    0.0000102    2.3034270  
C    0.4961870   -0.0000064    3.6418889  
C   -0.9663858    0.0000850    3.4240247  
N   -1.2632773    0.0000084    2.1528658  
C   -1.8985362    0.0000517    4.5177257  
C   -1.3925775   -0.0004564    5.7720543  
O   -2.1456383   -0.0005410    6.8851312  
C    0.0786232   -0.0009323    6.0245000  
O    0.4683759   -0.0012588    7.1921102  
C    1.0143166   -0.0008442    4.8859032  
H    2.1107198   -0.0000632    2.0421868  
H   -2.9622183    0.0003270    4.3293377  
H   -1.5042274   -0.0009692    7.6184419  
H    2.0724152   -0.0013148    5.1109744  
