62

C    3.3041268    0.0001186   -1.5420437  
C    2.5845371   -0.0004775   -0.3695863  
C    1.2040003   -0.0000004   -0.7283592  
C    1.1422368    0.0006048   -2.1454375  
N    2.4348632    0.0026121   -2.6077469  
C   -0.0655188    0.0008807   -2.8497919  
C   -1.2321774    0.0002332   -2.1101395  
O   -2.4392822    0.0001156   -2.7472514  
C   -1.1911212   -0.0000004   -0.6955259  
O   -2.4371526   -0.0002318   -0.1032858  
C    0.0000000    0.0000000    0.0000000  
H    3.0031536   -0.0000659    0.6222571  
H    2.7054619   -0.0071085   -3.5745269  
H   -3.1132992   -0.0000643   -2.0551780  
H   -2.3200279   -0.0004073    0.8516411  
H    4.3686614    0.0004080   -1.7024305  
C    0.6366692   -0.6835170   -5.1902309  
C   -0.1387092    0.0017031   -4.3179684  
C   -1.0703988    0.7474291   -5.1500426  
C   -0.7050169    0.3844183   -6.5361532  
N    0.2949319   -0.4541525   -6.5660152  
C   -1.4022849    0.9213000   -7.6722260  
C   -2.4186296    1.7814191   -7.4343750  
O   -3.1551543    2.3581693   -8.3992230  
C   -2.8115384    2.1670324   -6.0469005  
O   -3.7463652    2.9551774   -5.9049579  
C   -2.0808439    1.6027575   -4.8981605  
H   -3.7968976    2.9146218   -7.9220662  
H   -2.3963422    1.9071172   -3.9091933  
H    1.4504351   -1.3557451   -4.9691702  
C   -0.1580309   -2.9575289   -9.3942588  
C    0.0371794   -2.5224193  -10.6846229  
C   -0.2660330   -1.1287662  -10.7044410  
C   -0.6433811   -0.7661318   -9.3860971  
N   -0.5687657   -1.9003987   -8.6163642  
C   -1.0097458    0.5368555   -9.0356829  
C   -0.9946169    1.4912144  -10.0342561  
O   -1.3430739    2.7792458   -9.7469119  
C   -0.6214077    1.1487820  -11.3557225  
O   -0.6569523    2.2103715  -12.2361249  
C   -0.2601232   -0.1365035  -11.7021903  
H    0.3575288   -3.1344733  -11.5103101  
H   -0.7690275   -1.9491701   -7.6337662  
H   -1.2658800    3.2738016  -10.5731813  
H   -0.3914189    1.8939345  -13.1050107  
H    0.0208425   -0.3688766  -12.7227483  
H   -0.0381553   -3.9386075   -8.9675578  
C    2.5528530    2.1414826    2.8079335  
C    2.0663498    1.7338582    4.0032312  
C    0.9804344    0.8229586    3.6752840  
C    0.9495562    0.7966882    2.1971295  
N    1.8690446    1.5676019    1.6831036  
C    0.0000000    0.0000000    1.4700000  
C   -0.8785127   -0.7372425    2.1869543  
O   -1.8187535   -1.5261249    1.6395491  
C   -0.8723269   -0.7321790    3.6796354  
O   -1.7010379   -1.4274584    4.2670412  
C    0.1115397    0.0933559    4.4024240  
H    2.4028853    2.0163452    4.9860947  
H   -2.2861435   -1.9184361    2.3990168  
H    0.0832434    0.0693689    5.4835595  
H    3.3664920    2.8238276    2.6198634  
