58

C    0.0591967    2.7351455   -5.3136698  
C    0.4069190    1.8086486   -4.3837408  
C    0.4865106    0.5379360   -5.0647621  
C    0.1543007    0.8019706   -6.4778129  
N   -0.0948617    2.1523958   -6.5624326  
C    0.1197627   -0.1448643   -7.4494173  
C    0.4303055   -1.5154944   -7.0786441  
O    0.4261662   -2.4398414   -7.8810562  
C    0.7846653   -1.8180422   -5.5877721  
O    1.0475855   -2.9683020   -5.2636783  
C    0.7893452   -0.7137601   -4.6315344  
H    0.5869195    1.9941809   -3.3398105  
H   -0.1262313    0.0699524   -8.4800722  
H   -0.3475140    2.6399097   -7.4023998  
C   -0.8458737    0.7521664   -0.8009272  
C   -0.5971743    0.5278173   -2.1169406  
C    0.4792792   -0.4321568   -2.1842675  
C    0.8398923   -0.7509981   -0.7896032  
N    0.0000000    0.0000000    0.0000000  
C    1.8161862   -1.6213602   -0.4276298  
C    2.5616897   -2.2884613   -1.4820188  
O    3.4599344   -3.0893664   -1.2583924  
C    2.1968518   -1.9656949   -2.9661078  
O    2.8178275   -2.5209873   -3.8623783  
C    1.1245128   -1.0098388   -3.2312129  
H   -1.1092310    0.9830153   -2.9459195  
H    2.0647773   -1.8411888    0.6013442  
H   -1.5757825    1.4038637   -0.3488064  
C   -0.0497305    4.9117438   -4.0137942  
C   -0.1547502    4.1799560   -5.1473889  
C   -0.5281853    5.1364241   -6.1780268  
C   -0.6070465    6.4333029   -5.4720023  
N   -0.3275216    6.3078713   -4.2030963  
C   -0.9540136    7.6503503   -6.1528076  
C   -1.2101616    7.5752966   -7.4787375  
O   -1.5456753    8.6312365   -8.2393037  
C   -1.1384816    6.2813797   -8.2195484  
O   -1.3843506    6.2873485   -9.4256725  
C   -0.7804389    5.0467908   -7.4987706  
H   -1.0043586    8.5840076   -5.6118280  
H   -1.6642874    8.2646057   -9.1341025  
H   -0.7392393    4.1300018   -8.0715102  
H    0.2099472    4.5700926   -3.0244433  
C    2.5528530    2.1414826    2.8079335  
C    2.0663498    1.7338582    4.0032312  
C    0.9804344    0.8229586    3.6752840  
C    0.9495562    0.7966882    2.1971295  
N    1.8690446    1.5676019    1.6831036  
C    0.0000000    0.0000000    1.4700000  
C   -0.8785127   -0.7372425    2.1869543  
O   -1.8187535   -1.5261249    1.6395491  
C   -0.8723269   -0.7321790    3.6796354  
O   -1.7010379   -1.4274584    4.2670412  
C    0.1115397    0.0933559    4.4024240  
H    2.4028853    2.0163452    4.9860947  
H   -2.2861435   -1.9184361    2.3990168  
H    0.0832434    0.0693689    5.4835595  
H    3.3664920    2.8238276    2.6198634  
