60

C    1.1243353    0.0105905   -0.7919006  
C    0.7473943    0.0238517   -2.1148545  
C   -0.6787511    0.0230872   -2.1414699  
C   -1.1201797    0.0092629   -0.7935547  
N    0.0000000    0.0000000    0.0000000  
C   -2.4730852    0.0050546   -0.4408234  
C   -3.3972050    0.0152897   -1.4675052  
O   -4.7313597    0.0121079   -1.1793461  
C   -2.9763814    0.0287659   -2.8186319  
O   -4.0166691    0.0373733   -3.7247613  
C   -1.6418747    0.0326515   -3.1673479  
H   -2.8160142   -0.0056097    0.5845976  
H   -5.1938938    0.0203222   -2.0274371  
H   -3.6464943    0.0462878   -4.6127335  
H   -1.3497712    0.0428676   -4.2109230  
H    2.1062430    0.0064026   -0.3505409  
C    2.8198362   -0.6677298   -3.3744987  
C    1.6628757    0.0347745   -3.2649302  
C    1.5099691    0.7874339   -4.4876153  
C    2.6810671    0.4634926   -5.3245033  
N    3.4363134   -0.4232432   -4.5922515  
C    2.9070243    0.9740368   -6.5614318  
C    1.9318251    1.9048656   -7.1046434  
O    2.0453930    2.4190888   -8.2096216  
C    0.6841112    2.2623883   -6.2356244  
O   -0.1435483    3.0451486   -6.6823093  
C    0.5500224    1.6476767   -4.9172916  
H    3.7725231    0.7232275   -7.1588572  
H   -0.3168598    1.9003083   -4.3219628  
H    3.2740801   -1.3433136   -2.6680015  
C    4.9461155   -4.4827174   -4.1140619  
C    6.1491816   -4.4136420   -4.7300482  
C    6.2535463   -3.0394783   -5.1961833  
C    4.9910607   -2.4023920   -4.7639398  
N    4.2206921   -3.2434787   -4.1290423  
C    4.7029616   -1.0214503   -5.0379549  
C    5.6339382   -0.3092265   -5.7127543  
O    5.4973857    0.9879410   -6.0364066  
C    6.9179880   -0.9236350   -6.1620619  
O    7.7194971   -0.2157364   -6.7717210  
C    7.1900882   -2.3420622   -5.8688880  
H    6.8760669   -5.1982642   -4.8528543  
H    6.3184639    1.2130854   -6.5100023  
H    8.1318746   -2.7495020   -6.2113230  
H    4.4942177   -5.3356803   -3.6332126  
C    0.0000000    0.0000000    1.4700000  
C    1.0662921    0.0000102    2.3034270  
C    0.4961870   -0.0000064    3.6418889  
C   -0.9663858    0.0000850    3.4240247  
N   -1.2632773    0.0000084    2.1528658  
C   -1.8985362    0.0000517    4.5177257  
C   -1.3925775   -0.0004564    5.7720543  
O   -2.1456383   -0.0005410    6.8851312  
C    0.0786232   -0.0009323    6.0245000  
O    0.4683759   -0.0012588    7.1921102  
C    1.0143166   -0.0008442    4.8859032  
H    2.1107198   -0.0000632    2.0421868  
H   -2.9622183    0.0003270    4.3293377  
H   -1.5042274   -0.0009692    7.6184419  
H    2.0724152   -0.0013148    5.1109744  
