62

C    0.0000000    0.0000000    0.0000000  
C    1.0521656   -0.0011982   -0.8862348  
C    0.4917205   -0.0011991   -2.1979135  
C   -0.9187439    0.0003223   -2.0478679  
N   -1.1833177   -0.0009317   -0.7007907  
C   -1.7951716    0.0010496   -3.1372083  
C   -1.2375857    0.0005328   -4.4010421  
O   -2.0474240    0.0015528   -5.4997570  
C    0.1673557   -0.0013572   -4.5711966  
O    0.5673492   -0.0020720   -5.8915554  
C    1.0325752   -0.0023487   -3.4969897  
H    2.0953050   -0.0030811   -0.6200571  
H   -2.0989779    0.0102537   -0.2891815  
H   -1.4634917    0.0006620   -6.2693585  
H    1.5290675   -0.0033264   -5.9180055  
H    2.1042124   -0.0039767   -3.6584465  
C   -4.5106950    2.0951617   -0.3556513  
C   -3.4200203    1.6321507   -1.0190705  
C   -3.9000872    0.7371740   -2.0454173  
C   -5.3703925    0.7166080   -1.9247105  
N   -5.6766992    1.5600469   -0.8817935  
C   -6.1968247   -0.0116513   -2.7173976  
C   -5.5982377   -0.8299925   -3.7588133  
O   -6.2574838   -1.5216045   -4.5239072  
C   -4.0430796   -0.8236411   -3.9045777  
O   -3.5277217   -1.5089037   -4.7775508  
C   -3.2578668    0.0024299   -2.9908493  
H   -2.3960405    1.8881902   -0.8128605  
H   -4.5607518    2.7821119    0.4734953  
H   -6.6045068    1.7581042   -0.5546943  
C   -9.0730767    3.2355019   -1.8559733  
C  -10.2155093    2.4695445   -1.8809522  
C   -9.8126311    1.1299567   -2.1598683  
C   -8.4008035    1.1397569   -2.2961495  
N   -7.9841083    2.4341430   -2.1076104  
C   -7.6598494   -0.0127929   -2.5743652  
C   -8.3567940   -1.1968584   -2.7173147  
O   -7.6827219   -2.3521794   -2.9891140  
C   -9.7655148   -1.2268331   -2.5853176  
O  -10.3131985   -2.4815483   -2.7558355  
C  -10.4971583   -0.0901531   -2.3111244  
H  -11.2162615    2.8319547   -1.7192513  
H   -7.0303615    2.7465737   -2.1347273  
H   -8.3487853   -3.0493769   -3.0486040  
H  -11.2671240   -2.4138676   -2.6507246  
H  -11.5753477   -0.1440133   -2.2158014  
H   -8.9489979    4.2902964   -1.6799854  
C    3.3321173   -0.0004715    2.8079335  
C    2.6974184   -0.0000116    4.0032312  
C    1.2800439    0.0002118    3.6752840  
C    1.2395035   -0.0000644    2.1971295  
N    2.4394063   -0.0005460    1.6831036  
C    0.0000000    0.0000000    1.4700000  
C   -1.1468701   -0.0000635    2.1869543  
O   -2.3742202   -0.0000073    1.6395491  
C   -1.1388768   -0.0001607    3.6796354  
O   -2.2206231   -0.0000905    4.2670412  
C    0.1454524   -0.0001816    4.4024240  
H    3.1367986    0.0000651    4.9860947  
H   -2.9844344   -0.0001026    2.3990168  
H    0.1083576   -0.0003682    5.4835595  
H    4.3940039   -0.0007619    2.6198634  
