58

C   -3.2798075    0.0022237   -1.4499647  
C   -2.5571138    0.0016337   -2.5996554  
C   -1.1637431    0.0008420   -2.2210360  
C   -1.1336957    0.0009910   -0.7459469  
N   -2.4483503    0.0022400   -0.3402724  
C    0.0000000    0.0000000    0.0000000  
C    1.2757363   -0.0010742   -0.6964419  
O    2.3524591   -0.0019511   -0.1142306  
C    1.2676492   -0.0009986   -2.2584080  
O    2.3355759   -0.0015907   -2.8557291  
C   -0.0181560   -0.0001606   -2.9516301  
H   -0.0150791   -0.0003191   -4.0331630  
H   -4.3498537    0.0028649   -1.3200023  
H   -2.7563629    0.0010788    0.6148058  
C   -3.1006049    0.0020295   -3.9654951  
C   -4.3994779    0.0019598   -4.3456361  
C   -4.3646275    0.0024662   -5.8000382  
C   -2.9251399    0.0029163   -6.1383557  
N   -2.1793104    0.0025822   -5.0670355  
C   -2.4634042    0.0034435   -7.4991961  
C   -3.3972643    0.0031287   -8.4775823  
O   -3.1090923    0.0035586   -9.7902124  
C   -4.8575541    0.0023009   -8.1682061  
O   -5.6513806    0.0021775   -9.1089820  
C   -5.3059827    0.0018154   -6.7643414  
H   -5.2733147    0.0015179   -3.7167590  
H   -3.9761754    0.0031448  -10.2344201  
H   -6.3723209    0.0011035   -6.5822629  
C    1.1291983   -2.0080012   -5.7928140  
C   -0.1539816   -1.6265885   -5.9916943  
C   -0.1019165   -0.7083033   -7.1188773  
C    1.3293394   -0.6493477   -7.4857754  
N    2.0558757   -1.4092253   -6.7120048  
C    1.8035079    0.1634638   -8.5718639  
C    0.8893548    0.8843003   -9.2603796  
O    1.1908578    1.6852694  -10.2965192  
C   -0.5622270    0.8456470   -8.9145803  
O   -1.3379738    1.5276413   -9.5841480  
C   -1.0237131    0.0041622   -7.7961624  
H   -1.0279230   -1.9308840   -5.4415068  
H    2.8550821    0.1876658   -8.8178627  
H    0.3364879    2.0602884  -10.5768153  
H    1.5124322   -2.6863497   -5.0471945  
C    0.8175213    0.6860729    2.3021913  
C    0.0000000    0.0000000    1.4700000  
C   -0.8887526   -0.7456559    2.3478473  
C   -0.4549825   -0.3816753    3.7138435  
N    0.5448156    0.4573574    3.6934124  
C   -1.0945674   -0.9182058    4.8835240  
C   -2.1210866   -1.7789155    4.6970523  
O   -2.8083856   -2.3554314    5.6976972  
C   -2.5824069   -2.1655116    3.3310774  
O   -3.5227682   -2.9541547    3.2362962  
C   -1.9100805   -1.6015804    2.1470656  
H   -0.7567140   -0.6349833    5.8697035  
H   -3.4728268   -2.9124471    5.2533954  
H   -2.2742832   -1.9066565    1.1752040  
H    1.6189533    1.3585343    2.0405121  
