58

C    2.4782022   -2.1081878   -5.8783640  
C    1.9212515   -1.6438943   -7.0265418  
C    0.8545984   -0.7486153   -6.6450159  
C    0.8356632   -0.7292245   -5.1698698  
N    1.8439054   -1.5742007   -4.7669395  
C   -0.0307352   -0.0004646   -4.4215603  
C   -1.0100803    0.8193482   -5.1153371  
O   -1.8333384    1.5114170   -4.5308826  
C   -1.0083720    0.8138719   -6.6773139  
O   -1.8284257    1.4999046   -7.2724040  
C   -0.0251097   -0.0124253   -7.3732162  
H    2.2230619   -1.8995542   -8.0266228  
H   -0.0304436   -0.0104846   -8.4547382  
H    2.0835082   -1.7709325   -3.8125107  
C    3.5969106   -3.0457645   -5.7041739  
C    4.3431175   -3.6731832   -6.6494758  
C    5.3121317   -4.4843045   -5.9509574  
C    5.0675240   -4.2765404   -4.5108907  
N    4.0154390   -3.3937749   -4.4288456  
C    5.7764388   -4.8695610   -3.5171752  
C    6.8522898   -5.7725548   -3.8909150  
O    7.5484788   -6.3550993   -3.0697800  
C    7.1291321   -6.0071690   -5.4101647  
O    8.0325252   -6.7650342   -5.7369417  
C    6.2972489   -5.3113495   -6.3887643  
H    4.2280020   -3.5784408   -7.7145522  
H    5.5806778   -4.7036364   -2.4669105  
H    6.4952688   -5.4793717   -7.4386602  
H    3.6122883   -3.0560768   -3.5741659  
C    3.2573670   -0.0002920   -1.5109380  
C    2.5379468   -0.0001709   -0.3591961  
C    1.1435043    0.0000332   -0.7338500  
C    1.1092609   -0.0000082   -2.2088477  
N    2.4227562    0.0001909   -2.6182613  
C   -0.0265532   -0.0002522   -2.9515663  
C   -1.3003035   -0.0002639   -2.2514981  
O   -2.3786784   -0.0004131   -2.8306429  
C   -1.2877725    0.0000312   -0.6895608  
O   -2.3539958    0.0003307   -0.0892036  
C    0.0000000    0.0000000    0.0000000  
H    2.9384091   -0.0000369    0.6389239  
H    4.3270394   -0.0004765   -1.6439446  
H    2.7280494   -0.0013406   -3.5742113  
C    0.8175213    0.6860729    2.3021913  
C    0.0000000    0.0000000    1.4700000  
C   -0.8887526   -0.7456559    2.3478473  
C   -0.4549825   -0.3816753    3.7138435  
N    0.5448156    0.4573574    3.6934124  
C   -1.0945674   -0.9182058    4.8835240  
C   -2.1210866   -1.7789155    4.6970523  
O   -2.8083856   -2.3554314    5.6976972  
C   -2.5824069   -2.1655116    3.3310774  
O   -3.5227682   -2.9541547    3.2362962  
C   -1.9100805   -1.6015804    2.1470656  
H   -0.7567140   -0.6349833    5.8697035  
H   -3.4728268   -2.9124471    5.2533954  
H   -2.2742832   -1.9066565    1.1752040  
H    1.6189533    1.3585343    2.0405121  
