60

C    1.1243397    0.0100937   -0.7919009  
C    0.7474045    0.0235218   -2.1148549  
C   -0.6787417    0.0233877   -2.1414696  
C   -1.1201757    0.0097582   -0.7935545  
N    0.0000000    0.0000000    0.0000000  
C   -2.4730825    0.0061478   -0.4408231  
C   -3.3971981    0.0167918   -1.4675049  
O   -4.7313537    0.0141995   -1.1793454  
C   -2.9763690    0.0300823   -2.8186313  
O   -4.0166530    0.0391497   -3.7247607  
C   -1.6418606    0.0333780   -3.1673476  
H   -2.8160158   -0.0043650    0.5845975  
H   -5.1938846    0.0226184   -2.0274359  
H   -3.6464738    0.0479005   -4.6127329  
H   -1.3497530    0.0434651   -4.2109229  
H    2.1062456    0.0054718   -0.3505416  
C    4.4934821   -2.1123067   -2.7414620  
C    4.8572484   -1.6933781   -3.9758655  
C    3.8033888   -0.7786837   -4.3872213  
C    2.8586651   -0.7628154   -3.2497550  
N    3.2579484   -1.5426072   -2.2820324  
C    1.6628904    0.0340401   -3.2649308  
C    1.4220460    0.7813811   -4.3662071  
O    0.3454885    1.5716640   -4.5162632  
C    2.3564972    0.7869632   -5.5302220  
O    2.0739375    1.4911325   -6.4995139  
C    3.5764129   -0.0389641   -5.4905469  
H    0.4527831    1.9720528   -5.3979261  
H    4.2275831   -0.0070812   -6.3537916  
H    5.0129474   -2.8005988   -2.0938643  
C    6.5930013   -3.3474939   -4.8061822  
C    7.6972396   -3.3697083   -5.5962704  
C    7.8943488   -2.0243946   -6.0821864  
C    6.8066460   -1.2107512   -5.5062712  
N    6.0525417   -2.0720835   -4.7431706  
C    6.6412910    0.1181438   -5.7262716  
C    7.5983541    0.7919931   -6.5879516  
O    7.5352413    1.9865606   -6.8474255  
C    8.7581333   -0.0501589   -7.2088353  
O    9.5697835    0.5061992   -7.9361246  
C    8.8320983   -1.4755559   -6.8979916  
H    8.3042990   -4.2303418   -5.8139928  
H    5.8365630    0.6964632   -5.2939870  
H    9.6382511   -2.0515192   -7.3317080  
H    6.1284586   -4.1555930   -4.2648271  
C    2.3971438    2.0127888    3.1728260  
C    1.9431056    1.6308205    1.9564670  
C    0.8496017    0.7127664    2.2356185  
C    0.7794028    0.6545384    3.7115134  
N    1.6840587    1.4146091    4.2663826  
C   -0.1885723   -0.1578550    4.3957118  
C   -1.0476298   -0.8789867    3.6398520  
O   -2.0015663   -1.6796266    4.1448486  
C   -1.0022026   -0.8410666    2.1483229  
O   -1.8147390   -1.5232959    1.5241687  
C    0.0000000    0.0000000    1.4700000  
H    2.3054237    1.9346118    0.9892483  
H   -0.2170646   -0.1815267    5.4753125  
H   -2.4487139   -2.0549881    3.3649027  
H    3.2048689    2.6911772    3.3971983  
