58

C    1.7704312   -2.0997832   -5.2515181  
C    1.5928585   -1.6333170   -6.5144327  
C    0.4607457   -0.7379011   -6.4771946  
C   -0.0100424   -0.7207978   -5.0790327  
N    0.8257125   -1.5670940   -4.3875227  
C   -1.0641734    0.0073898   -4.6315339  
C   -1.7831603    0.8289565   -5.5910245  
O   -2.7459474    1.5206786   -5.2862925  
C   -1.3021140    0.8259147   -7.0770897  
O   -1.8998120    1.5134382   -7.8939924  
C   -0.1528626    0.0000282   -7.4390071  
H    2.1870130   -1.8876244   -7.3740370  
H    0.1740157    0.0036592   -8.4699583  
H    0.7607704   -1.7654786   -3.4059559  
C    5.0581968   -4.2135571   -7.2529922  
C    5.5669962   -4.8927871   -6.1928769  
C    4.7631463   -4.5449903   -5.0449659  
C    3.7369488   -3.6007113   -5.5266775  
N    3.9709600   -3.4413498   -6.8730550  
C    2.7815117   -3.0383990   -4.7439583  
C    2.7627644   -3.3862638   -3.3328689  
O    1.9422176   -2.9327732   -2.5458810  
C    3.8402982   -4.3841631   -2.8009622  
O    3.8346465   -4.6842750   -1.6147237  
C    4.8186483   -4.9245690   -3.7415178  
H    6.4094092   -5.5610378   -6.2127231  
H    5.5612415   -5.6150294   -3.3652943  
H    5.3861586   -4.2119849   -8.2797977  
H    3.4333580   -2.8559837   -7.4857356  
C    1.1319248    0.0015675   -0.8009270  
C    0.7969916    0.0034959   -2.1169404  
C   -0.6453336    0.0035703   -2.1842672  
C   -1.1266831    0.0015415   -0.7896027  
N    0.0000000    0.0000000    0.0000000  
C   -2.4346129    0.0013924   -0.4276297  
C   -3.4350110    0.0031352   -1.4820184  
O   -4.6384610    0.0030897   -1.2583919  
C   -2.9478958    0.0050460   -2.9661075  
O   -3.7809377    0.0062160   -3.8623775  
C   -1.5113821    0.0053068   -3.2312125  
H    1.4821240    0.0045436   -2.9459192  
H   -2.7664565    0.0000185    0.6013447  
H    2.1104318    0.0009428   -0.3488058  
C    0.0000000    0.0000000    1.4700000  
C    1.0662921    0.0000102    2.3034270  
C    0.4961870   -0.0000064    3.6418889  
C   -0.9663858    0.0000850    3.4240247  
N   -1.2632773    0.0000084    2.1528658  
C   -1.8985362    0.0000517    4.5177257  
C   -1.3925775   -0.0004564    5.7720543  
O   -2.1456383   -0.0005410    6.8851312  
C    0.0786232   -0.0009323    6.0245000  
O    0.4683759   -0.0012588    7.1921102  
C    1.0143166   -0.0008442    4.8859032  
H    2.1107198   -0.0000632    2.0421868  
H   -2.9622183    0.0003270    4.3293377  
H   -1.5042274   -0.0009692    7.6184419  
H    2.0724152   -0.0013148    5.1109744  
