64

C    3.3003547    0.0005275   -1.4738980  
C    2.5232816    0.0003495   -2.6090742  
C    1.1623206   -0.0001320   -2.1820096  
C    1.1711889    0.0000583   -0.7636136  
N    2.4852300   -0.0014920   -0.3662353  
C    0.0000000    0.0000000    0.0000000  
C   -1.2020382    0.0000519   -0.6806479  
O   -2.3759247    0.0003494    0.0157745  
C   -1.2314650   -0.0005113   -2.0955508  
O   -2.5054383   -0.0008037   -2.6250181  
C   -0.0764510   -0.0007273   -2.8495192  
H    2.8919962   -0.0005621   -3.6205295  
H    2.8036265    0.0088181    0.5858667  
H   -3.0835641    0.0000347   -0.6418820  
H   -2.4360047   -0.0011529   -3.5845921  
C    5.6708527    0.0001559   -2.3611556  
C    4.7630506    0.0004754   -1.3275394  
C    5.5133495   -0.0009826   -0.1144235  
C    6.8855148   -0.0018732   -0.4737112  
N    6.9456606   -0.0031000   -1.8452062  
C    7.9149931   -0.0030748    0.4723126  
C    7.5526788   -0.0030760    1.8053193  
O    8.5177183   -0.0038718    2.7705708  
C    6.1889808   -0.0025710    2.1836640  
O    5.9909385   -0.0030667    3.5489927  
C    5.1728468   -0.0016587    1.2509268  
H    7.7894877    0.0066338   -2.3891194  
H    8.9627174   -0.0039020    0.2049649  
H    8.0554429   -0.0040212    3.6188428  
H    5.0439893   -0.0026485    3.7189663  
H    4.1374041   -0.0014714    1.5708277  
H    5.5098591    0.0005473   -3.4255990  
C    2.1601073   -2.0149551   -6.1366355  
C    1.7671254   -1.6323652   -4.8993931  
C    0.6609150   -0.7146343   -5.1242671  
C    0.5173094   -0.6572543   -6.5948687  
N    1.3933527   -1.4175035   -7.1936666  
C   -0.4836758    0.1546050   -7.2304781  
C   -1.3041632    0.8760361   -6.4331874  
O   -2.2822029    1.6762457   -6.8905099  
C   -1.1845238    0.8389692   -4.9457491  
O   -1.9650982    1.5214302   -4.2822953  
C   -0.1496409   -0.0015614   -4.3176961  
H    2.1772052   -1.9355530   -3.9512435  
H   -0.5658892    0.1776598   -8.3073339  
H   -2.6900303    2.0519825   -6.0894778  
H    2.9557804   -2.6933490   -6.4005661  
C    0.8676693    0.7151171    2.2619005  
C    0.5875920    0.4624972    3.5848544  
C   -0.5048400   -0.4542819    3.6114698  
C   -0.8517165   -0.7276451    2.2635546  
N    0.0000000    0.0000000    1.4700000  
C   -1.8902865   -1.5946756    1.9108239  
C   -2.5912627   -2.1969500    2.9375057  
O   -3.6148162   -3.0527051    2.6493466  
C   -2.2603868   -1.9365747    4.2886322  
O   -3.0513550   -2.6123276    5.1947621  
C   -1.2361111   -1.0811317    4.6373480  
H    1.1060808    0.8876438    4.4271209  
H   -2.1597133   -1.8070987    0.8854031  
H   -3.9636755   -3.3565188    3.4974381  
H   -2.7621927   -2.3810384    6.0827341  
H   -1.0058879   -0.9010589    5.6809233  
H    1.6167816    1.3499334    1.8205408  
