60

C   -3.3003543   -0.0034477   -1.4738961  
C   -2.5232826   -0.0025823   -2.6090725  
C   -1.1623223   -0.0008964   -2.1820090  
C   -1.1711890   -0.0010946   -0.7636130  
N   -2.4852309   -0.0007071   -0.3662339  
C    0.0000000    0.0000000    0.0000000  
C    1.2020365    0.0010116   -0.6806484  
O    2.3759235    0.0017528    0.0157729  
C    1.2314626    0.0016008   -2.0955517  
O    2.5054352    0.0030205   -2.6250196  
C    0.0764477    0.0007949   -2.8495194  
H   -2.8919983   -0.0019969   -3.6205280  
H   -2.8036178   -0.0112989    0.5858685  
H    3.0835617    0.0026936   -0.6418839  
H    2.4359999    0.0033082   -3.5845938  
H    0.1304051    0.0014575   -3.9319086  
C   -4.7630493   -0.0046899   -1.3275368  
C   -5.6984986   -0.0064924   -2.3055502  
C   -6.9735480   -0.0070250   -1.6050154  
C   -6.6111473   -0.0054400   -0.1714021  
N   -5.3167459   -0.0039863   -0.0025480  
C   -7.6066054   -0.0053798    0.8650098  
C   -8.9050767   -0.0064479    0.4864514  
O   -9.9376455   -0.0065354    1.3465926  
C   -9.3027456   -0.0076865   -0.9523047  
O  -10.5033597   -0.0087443   -1.2238686  
C   -8.2629681   -0.0077672   -1.9967117  
H   -5.5425435   -0.0072639   -3.3707989  
H  -10.7311736   -0.0073814    0.7813801  
H   -8.5922693   -0.0085664   -3.0271435  
C   -4.3971182    2.0923749    3.0547693  
C   -5.2399125    1.6285800    2.0962982  
C   -6.1655179    0.7319753    2.7475960  
C   -5.7902159    0.7113079    4.1743094  
N   -4.7110788    1.5562493    4.2944216  
C   -6.4255785   -0.0182961    5.1259908  
C   -7.5542452   -0.8380813    4.7178272  
O   -8.1916474   -1.5309648    5.5000884  
C   -7.9689994   -0.8316499    3.2119247  
O   -8.9174824   -1.5181203    2.8563986  
C   -7.2074027   -0.0040608    2.2797662  
H   -5.2158099    1.8851245    1.0521632  
H   -6.1343351   -0.0191846    6.1671857  
H   -3.5729389    2.7805564    2.9597686  
H   -4.2274717    1.7546181    5.1510553  
C    2.3971438    2.0127888    3.1728260  
C    1.9431056    1.6308205    1.9564670  
C    0.8496017    0.7127664    2.2356185  
C    0.7794028    0.6545384    3.7115134  
N    1.6840587    1.4146091    4.2663826  
C   -0.1885723   -0.1578550    4.3957118  
C   -1.0476298   -0.8789867    3.6398520  
O   -2.0015663   -1.6796266    4.1448486  
C   -1.0022026   -0.8410666    2.1483229  
O   -1.8147390   -1.5232959    1.5241687  
C    0.0000000    0.0000000    1.4700000  
H    2.3054237    1.9346118    0.9892483  
H   -0.2170646   -0.1815267    5.4753125  
H   -2.4487139   -2.0549881    3.3649027  
H    3.2048689    2.6911772    3.3971983  
