58

C   -3.2798079    0.0004304   -1.4499660  
C   -2.5571136    0.0002357   -2.5996563  
C   -1.1637425    0.0002059   -2.2210365  
C   -1.1336961    0.0003712   -0.7459474  
N   -2.4483509    0.0009014   -0.3402733  
C    0.0000000    0.0000000    0.0000000  
C    1.2757374   -0.0003764   -0.6964417  
O    2.3524598   -0.0006646   -0.1142307  
C    1.2676503   -0.0003051   -2.2584081  
O    2.3355768   -0.0003131   -2.8557292  
C   -0.0181553   -0.0001700   -2.9516298  
H   -2.9547342    0.0003080   -3.5989116  
H   -0.0150778   -0.0003268   -4.0331631  
H   -2.7563630   -0.0004285    0.6148048  
C   -6.6317371    0.0026356   -4.3241612  
C   -5.4016576    0.0021794   -3.7488536  
C   -5.6054517    0.0014002   -2.3194121  
C   -7.0655604    0.0014108   -2.1075794  
N   -7.6303538    0.0025757   -3.3621301  
C   -7.6659170    0.0003885   -0.8905027  
C   -6.8173813   -0.0005755    0.2895481  
O   -7.2622823   -0.0014702    1.4298832  
C   -5.2683491   -0.0003524    0.0887878  
O   -4.5438182   -0.0008508    1.0748485  
C   -4.7390843    0.0005067   -1.2727296  
H   -4.4591021    0.0025499   -4.2667365  
H   -8.7388165    0.0002862   -0.7570955  
H   -8.6161394    0.0013133   -3.5499389  
C   -6.9876832    0.0034424   -5.7504159  
C   -6.1549285    0.0037294   -6.8172329  
C   -7.0321634    0.0045663   -7.9778182  
C   -8.3984584    0.0045751   -7.4122898  
N   -8.3787164    0.0039986   -6.1070698  
C   -9.5676980    0.0053487   -8.2477317  
C   -9.3805196    0.0064692   -9.5872466  
O  -10.3806905    0.0072779  -10.4848536  
C   -8.0142268    0.0068626  -10.1884162  
O   -7.9187982    0.0077714  -11.4156541  
C   -6.8306786    0.0060090   -9.3102721  
H   -5.0783250    0.0035025   -6.8166651  
H  -10.5541107    0.0051299   -7.8073907  
H   -9.9359311    0.0080122  -11.3516529  
H   -5.8585664    0.0064441   -9.7848532  
C    0.8175213    0.6860729    2.3021913  
C    0.0000000    0.0000000    1.4700000  
C   -0.8887526   -0.7456559    2.3478473  
C   -0.4549825   -0.3816753    3.7138435  
N    0.5448156    0.4573574    3.6934124  
C   -1.0945674   -0.9182058    4.8835240  
C   -2.1210866   -1.7789155    4.6970523  
O   -2.8083856   -2.3554314    5.6976972  
C   -2.5824069   -2.1655116    3.3310774  
O   -3.5227682   -2.9541547    3.2362962  
C   -1.9100805   -1.6015804    2.1470656  
H   -0.7567140   -0.6349833    5.8697035  
H   -3.4728268   -2.9124471    5.2533954  
H   -2.2742832   -1.9066565    1.1752040  
H    1.6189533    1.3585343    2.0405121  
