58

C    3.2798085    0.0005855   -1.4499650  
C    2.5571144    0.0005564   -2.5996555  
C    1.1637431    0.0001547   -2.2210361  
C    1.1336962   -0.0000200   -0.7459473  
N    2.4483513   -0.0001429   -0.3402721  
C    0.0000000    0.0000000    0.0000000  
C   -1.2757373   -0.0000187   -0.6964413  
O   -2.3524598   -0.0000639   -0.1142312  
C   -1.2676499   -0.0000875   -2.2584083  
O   -2.3355768   -0.0004101   -2.8557296  
C    0.0181559    0.0001759   -2.9516295  
H    0.0150787    0.0003318   -4.0331632  
H    4.3498548    0.0008611   -1.3200022  
H    2.7563625    0.0012823    0.6148062  
C    5.9694204   -2.1380315   -4.2640192  
C    5.9589005   -1.7308767   -5.5546367  
C    4.8277508   -0.8211674   -5.6517374  
C    4.2525276   -0.7950004   -4.2897470  
N    4.9176042   -1.5649437   -3.4719146  
C    3.1006054    0.0006260   -3.9654952  
C    2.5486622    0.7369524   -4.9567147  
O    1.4718513    1.5247915   -4.7960058  
C    3.1062918    0.7319662   -6.3413396  
O    2.5527676    1.4263769   -7.1937628  
C    4.2885179   -0.0924701   -6.6488626  
H    1.3179703    1.9166331   -5.6746031  
H    4.6619214   -0.0684624   -7.6638622  
H    6.6565703   -2.8195051   -3.7882127  
C    6.8824114   -2.1160252   -6.6315253  
C    7.9388065   -2.9590775   -6.5617357  
C    8.4948166   -2.9757563   -7.9060104  
C    7.6270653   -2.0619037   -8.6796156  
N    6.6801673   -1.5548616   -7.9378051  
C    7.8484085   -1.8023386  -10.0755813  
C    8.8895488   -2.4270034  -10.6715288  
O    9.2125838   -2.2773943  -11.9674094  
C    9.7835665   -3.3546764   -9.9176615  
O   10.7120528   -3.8886813  -10.5242692  
C    9.5357561   -3.6045964   -8.4865591  
H    8.2966146   -3.5024477   -5.7039489  
H    7.1983848   -1.1300379  -10.6163131  
H    9.9940368   -2.8449649  -12.0952662  
H   10.2061514   -4.2830872   -7.9762159  
C    2.5528530    2.1414826    2.8079335  
C    2.0663498    1.7338582    4.0032312  
C    0.9804344    0.8229586    3.6752840  
C    0.9495562    0.7966882    2.1971295  
N    1.8690446    1.5676019    1.6831036  
C    0.0000000    0.0000000    1.4700000  
C   -0.8785127   -0.7372425    2.1869543  
O   -1.8187535   -1.5261249    1.6395491  
C   -0.8723269   -0.7321790    3.6796354  
O   -1.7010379   -1.4274584    4.2670412  
C    0.1115397    0.0933559    4.4024240  
H    2.4028853    2.0163452    4.9860947  
H   -2.2861435   -1.9184361    2.3990168  
H    0.0832434    0.0693689    5.4835595  
H    3.3664920    2.8238276    2.6198634  
