60

C   -3.3041240    0.0049520   -1.5420425  
C   -2.5845334    0.0044435   -0.3695848  
C   -1.2039991    0.0018481   -0.7283584  
C   -1.1422380    0.0011489   -2.1454370  
N   -2.4348657    0.0011250   -2.6077460  
C    0.0655162   -0.0009804   -2.8497916  
C    1.2321739   -0.0021232   -2.1101402  
O    2.4392781   -0.0038575   -2.7472522  
C    1.1911200   -0.0018268   -0.6955266  
O    2.4371498   -0.0035075   -0.1032865  
C    0.0000000    0.0000000    0.0000000  
H   -3.0031496    0.0046740    0.6222586  
H   -2.7054491    0.0112610   -3.5745257  
H    0.1193520   -0.0016676   -3.9297469  
H    3.1132955   -0.0047121   -2.0551789  
H    2.3200266   -0.0031527    0.8516406  
C   -4.7577172    0.0067872   -1.7610451  
C   -5.7612518    0.0098196   -0.8461764  
C   -7.0028569    0.0104384   -1.5832321  
C   -6.6377930    0.0074674   -3.0127462  
N   -5.2625454    0.0057472   -3.0525123  
C   -7.5310404    0.0066836   -4.0344173  
C   -8.9464517    0.0091411   -3.7040547  
O   -9.8285333    0.0087321   -4.5527205  
C   -9.3558844    0.0125582   -2.1966867  
O  -10.5445594    0.0149533   -1.9063335  
C   -8.3019706    0.0128332   -1.1851936  
H   -5.6449956    0.0116207    0.2229797  
H   -8.5938305    0.0150022   -0.1437824  
H   -4.7106113    0.0020432   -3.8906069  
C   -7.1383809    0.0035267   -5.4510008  
C   -5.8882131    0.0009384   -5.9693177  
C   -6.0800786   -0.0014980   -7.4114277  
C   -7.5477021   -0.0000402   -7.5921588  
N   -8.1733513    0.0029857   -6.4464957  
C   -8.1538379   -0.0016666   -8.8951103  
C   -7.3312121   -0.0042263   -9.9687098  
O   -7.7595899   -0.0059754  -11.2424961  
C   -5.8460372   -0.0053802   -9.8190005  
O   -5.1585596   -0.0078493  -10.8400732  
C   -5.2484797   -0.0037148   -8.4718379  
H   -4.9515170    0.0008007   -5.4385857  
H   -9.2291909   -0.0007510   -8.9976953  
H   -6.9456065   -0.0075962  -11.7778287  
H   -4.1687078   -0.0045098   -8.4060946  
C    0.8175213    0.6860729    2.3021913  
C    0.0000000    0.0000000    1.4700000  
C   -0.8887526   -0.7456559    2.3478473  
C   -0.4549825   -0.3816753    3.7138435  
N    0.5448156    0.4573574    3.6934124  
C   -1.0945674   -0.9182058    4.8835240  
C   -2.1210866   -1.7789155    4.6970523  
O   -2.8083856   -2.3554314    5.6976972  
C   -2.5824069   -2.1655116    3.3310774  
O   -3.5227682   -2.9541547    3.2362962  
C   -1.9100805   -1.6015804    2.1470656  
H   -0.7567140   -0.6349833    5.8697035  
H   -3.4728268   -2.9124471    5.2533954  
H   -2.2742832   -1.9066565    1.1752040  
H    1.6189533    1.3585343    2.0405121  
