60

C    3.3003545    0.0005278   -1.4738990  
C    2.5232811    0.0003501   -2.6090748  
C    1.1623201   -0.0001316   -2.1820103  
C    1.1711885    0.0000584   -0.7636139  
N    2.4852301   -0.0014918   -0.3662354  
C    0.0000000    0.0000000    0.0000000  
C   -1.2020382    0.0000521   -0.6806474  
O   -2.3759248    0.0003495    0.0157751  
C   -1.2314658   -0.0005109   -2.0955506  
O   -2.5054388   -0.0008033   -2.6250176  
C   -0.0764518   -0.0007268   -2.8495194  
H    2.8919955   -0.0005615   -3.6205301  
H    2.8036267    0.0088180    0.5858660  
H   -3.0835639    0.0000349   -0.6418815  
H   -2.4360047   -0.0011523   -3.5845918  
H    4.3715547    0.0004897   -1.3667132  
C   -0.1496417   -0.0015607   -4.3176960  
C    0.8605984   -0.0020136   -5.2251594  
C    0.2508224   -0.0027513   -6.5339785  
C   -1.2079382   -0.0026611   -6.3130517  
N   -1.3844308   -0.0023257   -4.9485959  
C   -2.1356004   -0.0028332   -7.3035804  
C   -1.6659559   -0.0033528   -8.6790693  
O   -2.4225834   -0.0036039   -9.6412618  
C   -0.1253098   -0.0037089   -8.9363920  
O    0.2819500   -0.0044537  -10.0902551  
C    0.7762279   -0.0031995   -7.7870091  
H    1.9128694   -0.0020322   -5.0030341  
H    1.8415248   -0.0032451   -7.9737351  
H   -2.2733179   -0.0006336   -4.4828447  
C   -4.4688615    2.1399142   -4.3115871  
C   -5.7294771    1.7323696   -4.5878767  
C   -5.5908536    0.8210928   -5.7134241  
C   -4.1394234    0.7945393   -5.9949026  
N   -3.4765925    1.5656255   -5.1763241  
C   -3.5842424   -0.0025605   -7.0539081  
C   -4.4400892   -0.7399260   -7.7976506  
O   -4.0604381   -1.5291840   -8.8169531  
C   -5.9100315   -0.7345838   -7.5380320  
O   -6.6297482   -1.4299958   -8.2547123  
C   -6.4551036    0.0913718   -6.4459606  
H   -6.6408637    2.0151371   -4.0893863  
H   -4.8883075   -1.9214904   -9.1484354  
H   -7.5253404    0.0675771   -6.2902127  
H   -4.1452404    2.8224613   -3.5419302  
C    2.5528530    2.1414826    2.8079335  
C    2.0663498    1.7338582    4.0032312  
C    0.9804344    0.8229586    3.6752840  
C    0.9495562    0.7966882    2.1971295  
N    1.8690446    1.5676019    1.6831036  
C    0.0000000    0.0000000    1.4700000  
C   -0.8785127   -0.7372425    2.1869543  
O   -1.8187535   -1.5261249    1.6395491  
C   -0.8723269   -0.7321790    3.6796354  
O   -1.7010379   -1.4274584    4.2670412  
C    0.1115397    0.0933559    4.4024240  
H    2.4028853    2.0163452    4.9860947  
H   -2.2861435   -1.9184361    2.3990168  
H    0.0832434    0.0693689    5.4835595  
H    3.3664920    2.8238276    2.6198634  
