58

C    5.9779324   -2.0928592   -4.4468273  
C    5.0400355   -1.6304888   -3.5804344  
C    4.1859906   -0.7341820   -4.3234533  
C    4.7069273   -0.7121372   -5.7036450  
N    5.7934744   -1.5560774   -5.7119679  
C    4.1728103    0.0176372   -6.7155010  
C    3.0072076    0.8361657   -6.4258172  
O    2.4535609    1.5290916   -7.2693982  
C    2.4388223    0.8282644   -4.9709354  
O    1.4580063    1.5136693   -4.7150426  
C    3.1006054    0.0006263   -3.9654951  
H    4.9561720   -1.8877883   -2.5395806  
H    4.5702548    0.0195454   -7.7209579  
H    6.3633299   -1.7534011   -6.5140748  
C    7.2583796   -4.2156466   -0.8222491  
C    8.3246415   -4.8915647   -1.3225453  
C    8.4286759   -4.5396093   -2.7190193  
C    7.3277443   -3.5964542   -2.9932463  
N    6.6556099   -3.4422848   -1.8027181  
C    7.0833207   -3.0305131   -4.2022428  
C    7.9631525   -3.3733532   -5.3071822  
O    7.8259092   -2.9164322   -6.4344310  
C    9.1353977   -4.3703646   -5.0395732  
O    9.8824997   -4.6667316   -5.9622138  
C    9.2978787   -4.9145479   -3.6937213  
H    8.9650737   -5.5605166   -0.7757709  
H   10.1121057   -5.6040506   -3.5166787  
H    6.8620950   -4.2175937    0.1801701  
H    5.8522893   -2.8564702   -1.6665390  
C    3.2798083    0.0005857   -1.4499652  
C    2.5571142    0.0005565   -2.5996556  
C    1.1637432    0.0001548   -2.2210361  
C    1.1336964   -0.0000200   -0.7459473  
N    2.4483512   -0.0001428   -0.3402723  
C    0.0000000    0.0000000    0.0000000  
C   -1.2757368   -0.0000186   -0.6964415  
O   -2.3524598   -0.0000639   -0.1142311  
C   -1.2676497   -0.0000872   -2.2584083  
O   -2.3355766   -0.0004101   -2.8557295  
C    0.0181558    0.0001758   -2.9516296  
H    0.0150788    0.0003319   -4.0331631  
H    4.3498547    0.0008612   -1.3200026  
H    2.7563626    0.0012823    0.6148059  
C    2.5528530    2.1414826    2.8079335  
C    2.0663498    1.7338582    4.0032312  
C    0.9804344    0.8229586    3.6752840  
C    0.9495562    0.7966882    2.1971295  
N    1.8690446    1.5676019    1.6831036  
C    0.0000000    0.0000000    1.4700000  
C   -0.8785127   -0.7372425    2.1869543  
O   -1.8187535   -1.5261249    1.6395491  
C   -0.8723269   -0.7321790    3.6796354  
O   -1.7010379   -1.4274584    4.2670412  
C    0.1115397    0.0933559    4.4024240  
H    2.4028853    2.0163452    4.9860947  
H   -2.2861435   -1.9184361    2.3990168  
H    0.0832434    0.0693689    5.4835595  
H    3.3664920    2.8238276    2.6198634  
