58

C    1.1319243    0.0015660   -0.8009270  
C    0.7969904    0.0034946   -2.1169400  
C   -0.6453351    0.0035711   -2.1842662  
C   -1.1266839    0.0015432   -0.7896019  
N    0.0000000    0.0000000    0.0000000  
C   -2.4346135    0.0013961   -0.4276281  
C   -3.4350118    0.0031404   -1.4820168  
O   -4.6384624    0.0030966   -1.2583893  
C   -2.9478972    0.0050503   -2.9661058  
O   -3.7809397    0.0062215   -3.8623756  
C   -1.5113841    0.0053090   -3.2312115  
H   -2.7664565    0.0000228    0.6013460  
H   -1.1823549    0.0068404   -4.2614841  
H    2.1104314    0.0009395   -0.3488063  
C    4.5548686   -2.1353257   -2.6566590  
C    4.9410965   -1.7265247   -3.8876298  
C    3.8945904   -0.8159143   -4.3259369  
C    2.9291011   -0.7910816   -3.2062061  
N    3.3108520   -1.5625208   -2.2248106  
C    1.7334678    0.0049252   -3.2500367  
C    1.5125992    0.7428896   -4.3617741  
O    0.4386461    1.5312652   -4.5382104  
C    2.4682968    0.7392785   -5.5084165  
O    2.2033111    1.4351525   -6.4886017  
C    3.6876285   -0.0855801   -5.4394042  
H    5.8268143   -2.0080645   -4.4310582  
H    0.5619666    1.9243279   -5.4210727  
H    4.3545508   -0.0605401   -6.2907666  
C    8.3244537   -4.3489466   -3.0731325  
C    8.3380527   -4.9961478   -1.8793901  
C    7.1424918   -4.6011123   -1.1726956  
C    6.4261041   -3.6640184   -2.0589429  
N    7.1951650   -3.5534934   -3.1943808  
C    5.2470053   -3.0657203   -1.7532142  
C    4.6433388   -3.3645013   -0.4652499  
O    3.5829707   -2.8761271   -0.0972678  
C    5.3847173   -4.3539513    0.4892933  
O    4.8862818   -4.6128946    1.5763863  
C    6.6499261   -4.9360262    0.0485124  
H    9.0988758   -5.6728948   -1.5333040  
H    7.1568326   -5.6203289    0.7152205  
H    9.0445121   -4.3860044   -3.8744018  
H    6.9696900   -2.9843795   -3.9895647  
C    0.8175213    0.6860729    2.3021913  
C    0.0000000    0.0000000    1.4700000  
C   -0.8887526   -0.7456559    2.3478473  
C   -0.4549825   -0.3816753    3.7138435  
N    0.5448156    0.4573574    3.6934124  
C   -1.0945674   -0.9182058    4.8835240  
C   -2.1210866   -1.7789155    4.6970523  
O   -2.8083856   -2.3554314    5.6976972  
C   -2.5824069   -2.1655116    3.3310774  
O   -3.5227682   -2.9541547    3.2362962  
C   -1.9100805   -1.6015804    2.1470656  
H   -0.7567140   -0.6349833    5.8697035  
H   -3.4728268   -2.9124471    5.2533954  
H   -2.2742832   -1.9066565    1.1752040  
H    1.6189533    1.3585343    2.0405121  
