58

C    1.1319244    0.0015679   -0.8009270  
C    0.7969906    0.0034958   -2.1169400  
C   -0.6453348    0.0035696   -2.1842663  
C   -1.1266837    0.0015411   -0.7896022  
N    0.0000000    0.0000000    0.0000000  
C   -2.4346133    0.0013914   -0.4276285  
C   -3.4350117    0.0031336   -1.4820169  
O   -4.6384613    0.0030876   -1.2583901  
C   -2.9478971    0.0050444   -2.9661061  
O   -3.7809387    0.0062136   -3.8623760  
C   -1.5113837    0.0053058   -3.2312116  
H   -2.7664563    0.0000175    0.6013457  
H   -1.1823545    0.0068381   -4.2614843  
H    2.1104310    0.0009435   -0.3488059  
C    4.6221939   -2.0851248   -2.8254002  
C    3.4630810   -1.6242706   -2.2886074  
C    2.8772259   -0.7284864   -3.2577202  
C    3.7966163   -0.7050959   -4.4113947  
N    4.8342984   -1.5478373   -4.0859846  
C    3.5979640    0.0246584   -5.5382047  
C    2.3987141    0.8417431   -5.6201041  
O    2.1298705    1.5345333   -6.5927634  
C    1.4112235    0.8324024   -4.4099060  
O    0.3983750    1.5165858   -4.4672755  
C    1.7334683    0.0049282   -3.2500365  
H    3.0641074   -1.8822459   -1.3237850  
H    5.3394087   -2.7718903   -2.4060600  
H    5.6230802   -1.7440852   -4.6745060  
C    5.9365795   -3.1746150   -7.4854996  
C    5.1066753   -2.4693426   -6.6743739  
C    5.1543332   -1.0953150   -7.1155222  
C    6.0866937   -1.0576378   -8.2583584  
N    6.5264032   -2.3497844   -8.4312805  
C    6.4031789    0.0626532   -8.9558467  
C    5.7843888    1.3149172   -8.5540162  
O    6.0048739    2.3782295   -9.1188639  
C    4.7940215    1.2984289   -7.3462471  
O    4.2671670    2.3466819   -6.9986100  
C    4.5318597    0.0286127   -6.6734244  
H    4.5273819   -2.8663041   -5.8598470  
H    7.0895028    0.0685629   -9.7912125  
H    6.1670826   -4.2275015   -7.4717725  
H    7.1742682   -2.6480756   -9.1372135  
C    2.5528530    2.1414826    2.8079335  
C    2.0663498    1.7338582    4.0032312  
C    0.9804344    0.8229586    3.6752840  
C    0.9495562    0.7966882    2.1971295  
N    1.8690446    1.5676019    1.6831036  
C    0.0000000    0.0000000    1.4700000  
C   -0.8785127   -0.7372425    2.1869543  
O   -1.8187535   -1.5261249    1.6395491  
C   -0.8723269   -0.7321790    3.6796354  
O   -1.7010379   -1.4274584    4.2670412  
C    0.1115397    0.0933559    4.4024240  
H    2.4028853    2.0163452    4.9860947  
H   -2.2861435   -1.9184361    2.3990168  
H    0.0832434    0.0693689    5.4835595  
H    3.3664920    2.8238276    2.6198634  
