58

C    1.0965513    0.0001358   -0.8010310  
C    0.0000000    0.0000000    0.0000000  
C   -1.1546563    0.0001469   -0.8669512  
C   -0.6372020    0.0003521   -2.2486282  
N    0.7342866    0.0007338   -2.1395017  
C   -1.4147750    0.0001355   -3.3608713  
C   -2.8576059   -0.0001044   -3.1854453  
O   -3.6427793   -0.0002490   -4.1244894  
C   -3.4275845   -0.0000723   -1.7311659  
O   -4.6406830    0.0000334   -1.5710047  
C   -2.4891869   -0.0001090   -0.6116734  
H   -2.8919118   -0.0002917    0.3920869  
H    2.1388271    0.0000662   -0.5261653  
H    1.3735862   -0.0006098   -2.9130269  
C    2.0080263   -2.0907790   -5.2072029  
C    1.0696909   -1.6289494   -4.3409949  
C    0.2147971   -0.7337514   -5.0843741  
C    0.7357125   -0.7117677   -6.4645748  
N    1.8230594   -1.5546811   -6.4725590  
C    0.2009044    0.0170931   -7.4767240  
C   -0.9654735    0.8346326   -7.1873687  
O   -1.5197773    1.5266947   -8.0312279  
C   -1.5338515    0.8267778   -5.7324834  
O   -2.5153166    1.5113556   -5.4768664  
C   -0.8712840    0.0001712   -4.7267108  
H    0.9860720   -1.8859103   -3.3000378  
H    0.5983469    0.0189740   -8.4821825  
H    2.8192276   -2.7774939   -5.0275791  
C    3.1838684   -3.0326490   -8.0226989  
C    2.6580843   -1.8434109   -7.6474076  
C    3.0989376   -0.9008218   -8.6641046  
C    3.9030645   -1.7133622   -9.6020504  
N    3.9563573   -2.9638372   -9.2312924  
C    4.5258523   -1.1407524  -10.7636613  
C    4.3528487    0.1833167  -10.9787087  
O    4.8764857    0.8489530  -12.0221513  
C    3.5466438    1.0300346  -10.0506655  
O    3.4314585    2.2281704  -10.3083941  
C    2.9178858    0.4192158   -8.8659754  
H    5.1081584   -1.7581377  -11.4319911  
H    4.5806236    1.7694742  -11.9027408  
H    2.3418482    1.0666520   -8.2184912  
H    3.0873062   -3.9867631   -7.5294281  
C    2.5528530    2.1414826    2.8079335  
C    2.0663498    1.7338582    4.0032312  
C    0.9804344    0.8229586    3.6752840  
C    0.9495562    0.7966882    2.1971295  
N    1.8690446    1.5676019    1.6831036  
C    0.0000000    0.0000000    1.4700000  
C   -0.8785127   -0.7372425    2.1869543  
O   -1.8187535   -1.5261249    1.6395491  
C   -0.8723269   -0.7321790    3.6796354  
O   -1.7010379   -1.4274584    4.2670412  
C    0.1115397    0.0933559    4.4024240  
H    2.4028853    2.0163452    4.9860947  
H   -2.2861435   -1.9184361    2.3990168  
H    0.0832434    0.0693689    5.4835595  
H    3.3664920    2.8238276    2.6198634  
