58

C    3.2798087    0.0005862   -1.4499649  
C    2.5571146    0.0005569   -2.5996553  
C    1.1637436    0.0001550   -2.2210358  
C    1.1336964   -0.0000199   -0.7459473  
N    2.4483515   -0.0001427   -0.3402724  
C    0.0000000    0.0000000    0.0000000  
C   -1.2757367   -0.0000186   -0.6964419  
O   -2.3524602   -0.0000642   -0.1142313  
C   -1.2676494   -0.0000873   -2.2584084  
O   -2.3355762   -0.0004101   -2.8557298  
C    0.0181559    0.0001762   -2.9516298  
H    0.0150792    0.0003318   -4.0331633  
H    4.3498552    0.0008614   -1.3200022  
H    2.7563627    0.0012825    0.6148060  
C    5.9694211   -2.1380306   -4.2640189  
C    5.9589013   -1.7308758   -5.5546363  
C    4.8277515   -0.8211665   -5.6517371  
C    4.2525284   -0.7949997   -4.2897470  
N    4.9176049   -1.5649431   -3.4719145  
C    3.1006055    0.0006267   -3.9654946  
C    2.5486628    0.7369528   -4.9567151  
O    1.4718512    1.5247921   -4.7960058  
C    3.1062921    0.7319668   -6.3413394  
O    2.5527683    1.4263777   -7.1937629  
C    4.2885184   -0.0924693   -6.6488624  
H    6.6352655   -2.0129520   -6.3433318  
H    1.3179705    1.9166331   -5.6746031  
H    4.6619225   -0.0684616   -7.6638621  
C    9.3849677   -4.2862198   -5.9092605  
C    9.8370265   -4.9700724   -4.8324287  
C    8.9362723   -4.6038191   -3.7503010  
C    7.9744568   -3.6654076   -4.3674554  
N    8.2323991   -3.4754249   -5.6329045  
C    6.9060855   -3.0669575   -3.6154399  
C    6.8030102   -3.3915365   -2.3064867  
O    5.8550852   -2.9080266   -1.4856966  
C    7.7579707   -4.3357664   -1.6548420  
O    7.6042203   -4.5856767   -0.4593815  
C    8.8454844   -4.9364636   -2.4475600  
H   10.6778335   -5.6403489   -4.7790545  
H    6.0410610   -3.3196384   -0.6224805  
H    9.5161496   -5.6156440   -1.9384895  
H    9.7833432   -4.2866020   -6.9113937  
C    0.0000000    0.0000000    1.4700000  
C    1.0662921    0.0000102    2.3034270  
C    0.4961870   -0.0000064    3.6418889  
C   -0.9663858    0.0000850    3.4240247  
N   -1.2632773    0.0000084    2.1528658  
C   -1.8985362    0.0000517    4.5177257  
C   -1.3925775   -0.0004564    5.7720543  
O   -2.1456383   -0.0005410    6.8851312  
C    0.0786232   -0.0009323    6.0245000  
O    0.4683759   -0.0012588    7.1921102  
C    1.0143166   -0.0008442    4.8859032  
H    2.1107198   -0.0000632    2.0421868  
H   -2.9622183    0.0003270    4.3293377  
H   -1.5042274   -0.0009692    7.6184419  
H    2.0724152   -0.0013148    5.1109744  
