64

C    2.3128795   -2.1207449   -5.9853290  
C    1.8202489   -1.6594120   -4.7865988  
C    0.7463179   -0.7716431   -5.0917846  
C    0.6288901   -0.7306952   -6.5047462  
N    1.5962666   -1.5596058   -7.0163180  
C   -0.3301660    0.0460753   -7.1617300  
C   -1.1864717    0.7949196   -6.3780524  
O   -2.1419344    1.5709322   -6.9678911  
C   -1.0847731    0.7675649   -4.9667673  
O   -2.0088867    1.5678195   -4.3272755  
C   -0.1387079    0.0017019   -4.3179684  
H    2.1902179   -1.9286752   -3.8121179  
H    1.7489518   -1.7404134   -7.9920111  
H   -0.4247433    0.0817407   -8.2382921  
H   -2.6233442    2.0035656   -6.2507168  
H   -1.8718320    1.4918816   -3.3780374  
C    4.1967530   -3.6708474   -5.3110236  
C    3.4145068   -3.0544730   -6.2600447  
C    3.8809716   -3.4948008   -7.5340627  
C    4.9583911   -4.3864724   -7.2973875  
N    5.1249621   -4.4693645   -5.9372408  
C    5.6607535   -5.0149527   -8.3300970  
C    5.2681216   -4.7384910   -9.6253137  
O    5.9194472   -5.3252984  -10.6714706  
C    4.1957336   -3.8513287   -9.8817209  
O    3.9257472   -3.6788334  -11.2236207  
C    3.5025615   -3.2307513   -8.8634264  
H    5.8091826   -5.0362379   -5.4698245  
H    6.4829064   -5.6954502   -8.1563444  
H    5.4931503   -5.0005676  -11.4752646  
H    3.1891522   -3.0659007  -11.3093256  
H    2.6855798   -2.5559112   -9.0906050  
H    4.1669476   -3.6029491   -4.2370306  
C    3.3041273    0.0001178   -1.5420428  
C    2.5845373   -0.0004780   -0.3695851  
C    1.2040007   -0.0000007   -0.7283589  
C    1.1422374    0.0006038   -2.1454372  
N    2.4348641    0.0026111   -2.6077464  
C   -0.0655179    0.0008799   -2.8497918  
C   -1.2321766    0.0002325   -2.1101402  
O   -2.4392814    0.0001148   -2.7472522  
C   -1.1911209   -0.0000007   -0.6955266  
O   -2.4371528   -0.0002320   -0.1032862  
C    0.0000000    0.0000000    0.0000000  
H    3.0031533   -0.0000660    0.6222584  
H    2.7054631   -0.0071097   -3.5745261  
H   -3.1132988   -0.0000648   -2.0551787  
H   -2.3200282   -0.0004072    0.8516409  
H    4.3686625    0.0004073   -1.7024290  
C    2.3971438    2.0127888    3.1728260  
C    1.9431056    1.6308205    1.9564670  
C    0.8496017    0.7127664    2.2356185  
C    0.7794028    0.6545384    3.7115134  
N    1.6840587    1.4146091    4.2663826  
C   -0.1885723   -0.1578550    4.3957118  
C   -1.0476298   -0.8789867    3.6398520  
O   -2.0015663   -1.6796266    4.1448486  
C   -1.0022026   -0.8410666    2.1483229  
O   -1.8147390   -1.5232959    1.5241687  
C    0.0000000    0.0000000    1.4700000  
H    2.3054237    1.9346118    0.9892483  
H   -0.2170646   -0.1815267    5.4753125  
H   -2.4487139   -2.0549881    3.3649027  
H    3.2048689    2.6911772    3.3971983  
