58

C   -1.0866114    0.3170665   -0.8009268  
C   -0.7657592    0.2209524   -2.1169401  
C    0.6182441   -0.1850494   -2.1842669  
C    1.0807072   -0.3185747   -0.7896028  
N    0.0000000    0.0000000    0.0000000  
C    2.3358102   -0.6865376   -0.4276289  
C    3.2952801   -0.9697635   -1.4820175  
O    4.4500976   -1.3084208   -1.2583911  
C    2.8273174   -0.8345021   -2.9661070  
O    3.6263574   -1.0700774   -3.8623772  
C    1.4487970   -0.4304577   -3.2312124  
H    2.6546264   -0.7786140    0.6013449  
H    1.1326366   -0.3393254   -4.2614847  
H   -2.0253898    0.5930589   -0.3488058  
C   -3.8485153    3.3017205   -2.8253992  
C   -2.8659598    2.5332718   -2.2886071  
C   -2.5558974    1.5088126   -3.2577199  
C   -3.4447074    1.7451227   -4.4113943  
N   -4.2032620    2.8458463   -4.0859841  
C   -3.4594689    0.9889574   -5.5382043  
C   -2.5386566   -0.1326187   -5.6201042  
O   -2.4756606   -0.8730690   -6.5927636  
C   -1.5884530   -0.4015769   -4.4099059  
O   -0.8091035   -1.3431628   -4.4672756  
C   -1.6647860    0.4831423   -3.2500366  
H   -2.4105080    2.6685310   -1.3237846  
H   -4.1193885    1.1794796   -6.3731399  
H   -4.9049276    3.2561579   -4.6745053  
C   -3.2744503    5.2762917    1.0163472  
C   -4.1779676    6.2821606    0.9575047  
C   -4.8199878    6.1342410   -0.3395804  
C   -4.1641355    4.9568230   -0.9479631  
N   -3.2573233    4.4496270   -0.1577516  
C   -4.5234888    4.4757178   -2.2535238  
C   -5.4941928    5.1403945   -2.9208115  
O   -5.9292772    4.8018426   -4.1464233  
C   -6.1751770    6.3318056   -2.3334779  
O   -7.0498798    6.8878684   -2.9974879  
C   -5.7887286    6.8058689   -0.9926399  
H   -4.3834607    7.0318626    1.7023503  
H   -6.6193655    5.4573440   -4.3543881  
H   -6.3060255    7.6721731   -0.6025737  
H   -2.5943682    5.0406172    1.8194160  
C    0.0000000    0.0000000    1.4700000  
C    1.0662921    0.0000102    2.3034270  
C    0.4961870   -0.0000064    3.6418889  
C   -0.9663858    0.0000850    3.4240247  
N   -1.2632773    0.0000084    2.1528658  
C   -1.8985362    0.0000517    4.5177257  
C   -1.3925775   -0.0004564    5.7720543  
O   -2.1456383   -0.0005410    6.8851312  
C    0.0786232   -0.0009323    6.0245000  
O    0.4683759   -0.0012588    7.1921102  
C    1.0143166   -0.0008442    4.8859032  
H    2.1107198   -0.0000632    2.0421868  
H   -2.9622183    0.0003270    4.3293377  
H   -1.5042274   -0.0009692    7.6184419  
H    2.0724152   -0.0013148    5.1109744  
