62

C   -3.3040214    0.0264882   -1.5420423  
C   -2.5844501    0.0212895   -0.3695849  
C   -1.2039619    0.0096957   -0.7283587  
C   -1.1422058    0.0085939   -2.1454373  
N   -2.4348070    0.0169954   -2.6077462  
C    0.0655084   -0.0014075   -2.8497918  
C    1.2321345   -0.0101545   -2.1101399  
O    2.4392004   -0.0197567   -2.7472523  
C    1.1910818   -0.0095906   -0.6955266  
O    2.4370746   -0.0193929   -0.1032865  
C    0.0000000    0.0000000    0.0000000  
H   -3.0030554    0.0242485    0.6222587  
H   -2.7053185    0.0288948   -3.5745256  
H    0.1193383   -0.0024456   -3.9297471  
H    3.1131983   -0.0250046   -2.0551791  
H    2.3199563   -0.0182746    0.8516405  
C   -5.7082278    0.0289584   -0.7673025  
C   -6.9603017    0.0273313   -1.3371933  
C   -6.7740977    0.0338077   -2.7513664  
C   -5.3753896    0.0389661   -2.9869807  
N   -4.7575722    0.0377978   -1.7610452  
C   -4.8249743    0.0456850   -4.2721993  
C   -5.7025327    0.0469176   -5.3390020  
O   -5.2187679    0.0530348   -6.6153040  
C   -7.1013436    0.0422116   -5.1242398  
O   -7.8423769    0.0445930   -6.2879439  
C   -7.6450452    0.0358557   -3.8566137  
H   -3.7598515    0.0497842   -4.4584755  
H   -5.9885022    0.0531314   -7.1990611  
H   -8.7756364    0.0410812   -6.0542398  
H   -8.7205425    0.0325406   -3.7232980  
H   -5.4180959    0.0259586    0.2694103  
C   -8.5102891    0.7217154    0.5270423  
C   -8.2340049    0.0217216   -0.6033340  
C   -9.4250113   -0.7221134   -0.9395607  
C  -10.4249922   -0.3957296    0.0949933  
N   -9.8078396    0.4838497    0.9542677  
C  -11.6850015   -0.8984198    0.1321949  
C  -12.0827320   -1.8227697   -0.9165776  
O  -13.1955421   -2.3297281   -0.9708641  
C  -11.0397755   -2.1827392   -2.0222311  
O  -11.3631036   -2.9600992   -2.9101670  
C   -9.7123009   -1.5766996   -1.9560666  
H  -12.4031239   -0.6459505    0.8999639  
H   -8.9960564   -1.8309732   -2.7255232  
H   -7.8750902    1.3911684    1.0840386  
H  -10.2349611    0.8918748    1.7655201  
C    2.5528530    2.1414826    2.8079335  
C    2.0663498    1.7338582    4.0032312  
C    0.9804344    0.8229586    3.6752840  
C    0.9495562    0.7966882    2.1971295  
N    1.8690446    1.5676019    1.6831036  
C    0.0000000    0.0000000    1.4700000  
C   -0.8785127   -0.7372425    2.1869543  
O   -1.8187535   -1.5261249    1.6395491  
C   -0.8723269   -0.7321790    3.6796354  
O   -1.7010379   -1.4274584    4.2670412  
C    0.1115397    0.0933559    4.4024240  
H    2.4028853    2.0163452    4.9860947  
H   -2.2861435   -1.9184361    2.3990168  
H    0.0832434    0.0693689    5.4835595  
H    3.3664920    2.8238276    2.6198634  
