58

C    0.0000000    0.0000000    0.0000000  
C    1.0541694   -0.0001722   -0.8560390  
C    0.5103145   -0.0000453   -2.1935954  
C   -0.9576361    0.0002459   -2.0455733  
N   -1.2018454   -0.0001391   -0.6915972  
C   -1.8348300    0.0008318   -3.0810613  
C   -1.2972833    0.0009738   -4.4314609  
O   -2.0050656    0.0014267   -5.4301325  
C    0.2542637    0.0004186   -4.6117574  
O    0.7184688    0.0002259   -5.7439120  
C    1.0974565    0.0000875   -3.4189127  
H    2.0940755   -0.0005483   -0.5817978  
H   -2.1128189    0.0014912   -0.2706798  
C   -4.4297970    2.1087668   -0.2339415  
C   -5.6380112    1.6447701   -0.6450383  
C   -5.3911858    0.7496342   -1.7507709  
C   -3.9296533    0.7300037   -1.9515867  
N   -3.4052338    1.5747186   -1.0006238  
C   -3.2941062    0.0012875   -2.9038250  
C   -4.1035790   -0.8182216   -3.7902190  
O   -3.6253046   -1.5102280   -4.6794218  
C   -5.6534073   -0.8124881   -3.5957863  
O   -6.3452671   -1.4982645   -4.3362606  
C   -6.2225088    0.0137341   -2.5340276  
H   -6.5931605    1.9005368   -0.2220880  
H   -7.2964256    0.0119729   -2.4058689  
H   -4.2016942    2.7960862    0.5644640  
H   -2.4284968    1.7712467   -0.8805879  
C    4.1985329   -2.1423510   -1.2324133  
C    5.3247416   -1.7348301   -1.8626199  
C    4.8654776   -0.8236667   -2.8996144  
C    3.3948139   -0.7971465   -2.7478589  
N    2.9980299   -1.5681529   -1.7721023  
C    2.5562225   -0.0001551   -3.6002997  
C    3.1594341    0.7371387   -4.5604396  
O    2.5003417    1.5262928   -5.4258138  
C    4.6414703    0.7318277   -4.7384875  
O    5.1222611    1.4271700   -5.6332280  
C    5.4799824   -0.0940164   -3.8514679  
H    6.3415669   -2.0175441   -1.6499827  
H    3.1964068    1.9185688   -5.9832776  
H    6.5493690   -0.0702023   -4.0129479  
H    4.1121693   -2.8248219   -0.4019027  
C    3.3321173   -0.0004715    2.8079335  
C    2.6974184   -0.0000116    4.0032312  
C    1.2800439    0.0002118    3.6752840  
C    1.2395035   -0.0000644    2.1971295  
N    2.4394063   -0.0005460    1.6831036  
C    0.0000000    0.0000000    1.4700000  
C   -1.1468701   -0.0000635    2.1869543  
O   -2.3742202   -0.0000073    1.6395491  
C   -1.1388768   -0.0001607    3.6796354  
O   -2.2206231   -0.0000905    4.2670412  
C    0.1454524   -0.0001816    4.4024240  
H    3.1367986    0.0000651    4.9860947  
H   -2.9844344   -0.0001026    2.3990168  
H    0.1083576   -0.0003682    5.4835595  
H    4.3940039   -0.0007619    2.6198634  
