62

C    3.3003552    0.0005280   -1.4738977  
C    2.5232825    0.0003502   -2.6090739  
C    1.1623213   -0.0001314   -2.1820100  
C    1.1711888    0.0000585   -0.7636135  
N    2.4852303   -0.0014918   -0.3662347  
C    0.0000000    0.0000000    0.0000000  
C   -1.2020377    0.0000522   -0.6806483  
O   -2.3759246    0.0003491    0.0157740  
C   -1.2314651   -0.0005108   -2.0955516  
O   -2.5054381   -0.0008032   -2.6250187  
C   -0.0764503   -0.0007266   -2.8495194  
H    2.8036264    0.0088183    0.5858671  
H   -3.0835633    0.0000347   -0.6418827  
H   -2.4360031   -0.0011520   -3.5845931  
H   -0.1304079   -0.0013415   -3.9319088  
H    4.3715556    0.0004899   -1.3667118  
C    5.9080461   -2.1212781   -4.5066903  
C    5.7372507   -1.6233267   -5.7776506  
C    4.6108310   -0.7493032   -5.7345061  
C    4.1315423   -0.7536520   -4.3995197  
N    4.9405897   -1.5984024   -3.6808707  
C    3.0267451   -0.0008943   -3.9901690  
C    2.3944508    0.7705372   -4.9458227  
O    1.3109381    1.5252438   -4.6002320  
C    2.8575159    0.7878063   -6.2830172  
O    2.1214437    1.6053003   -7.1156310  
C    3.9471990    0.0452343   -6.6876206  
H    6.3485819   -1.8616759   -6.6311481  
H    4.8499648   -1.7941730   -2.7003391  
H    1.0265047    1.9789031   -5.4043193  
H    2.4998705    1.5596287   -7.9989831  
H    4.2786883    0.0784993   -7.7188748  
C    7.9103631   -3.6427462   -4.6960696  
C    6.9109979   -3.0605609   -3.9844492  
C    7.0254929   -3.5406562   -2.6275285  
C    8.1817895   -4.4568101   -2.6067959  
N    8.6735847   -4.4752366   -3.8915867  
C    8.6196128   -5.1175181   -1.5052148  
C    7.9041206   -4.9128102   -0.2567355  
O    8.2205912   -5.4624181    0.7902027  
C    6.6764507   -3.9470823   -0.2555973  
O    6.0660535   -3.7671109    0.7895273  
C    6.3002617   -3.2918518   -1.5057999  
H    9.4700878   -5.7850232   -1.5114737  
H    5.4491841   -2.6245409   -1.4965034  
H    8.1533718   -3.5338342   -5.7405667  
H    9.4662125   -5.0094198   -4.1972599  
C    0.8175213    0.6860729    2.3021913  
C    0.0000000    0.0000000    1.4700000  
C   -0.8887526   -0.7456559    2.3478473  
C   -0.4549825   -0.3816753    3.7138435  
N    0.5448156    0.4573574    3.6934124  
C   -1.0945674   -0.9182058    4.8835240  
C   -2.1210866   -1.7789155    4.6970523  
O   -2.8083856   -2.3554314    5.6976972  
C   -2.5824069   -2.1655116    3.3310774  
O   -3.5227682   -2.9541547    3.2362962  
C   -1.9100805   -1.6015804    2.1470656  
H   -0.7567140   -0.6349833    5.8697035  
H   -3.4728268   -2.9124471    5.2533954  
H   -2.2742832   -1.9066565    1.1752040  
H    1.6189533    1.3585343    2.0405121  
