62

C    3.3041272    0.0001173   -1.5420433  
C    2.5845372   -0.0004782   -0.3695856  
C    1.2040006   -0.0000008   -0.7283589  
C    1.1422373    0.0006036   -2.1454374  
N    2.4348640    0.0026108   -2.6077464  
C   -0.0655182    0.0008797   -2.8497919  
C   -1.2321768    0.0002324   -2.1101400  
O   -2.4392817    0.0001147   -2.7472520  
C   -1.1911209   -0.0000008   -0.6955261  
O   -2.4371524   -0.0002319   -0.1032862  
C    0.0000000    0.0000000    0.0000000  
H    3.0031536   -0.0000662    0.6222582  
H    2.7054629   -0.0071101   -3.5745263  
H   -3.1132988   -0.0000649   -2.0551788  
H   -2.3200280   -0.0004072    0.8516410  
H    4.3686618    0.0004067   -1.7024297  
C    2.3129715   -2.1206347   -5.9853336  
C    1.8203209   -1.6593261   -4.7866021  
C    0.7463511   -0.7716032   -5.0917861  
C    0.6289214   -0.7306576   -6.5047474  
N    1.5963345   -1.5595253   -7.0163212  
C   -0.3301682    0.0460722   -7.1617303  
C   -1.1865067    0.7948776   -6.3780517  
O   -2.1420032    1.5708500   -6.9678873  
C   -1.0848071    0.7675248   -4.9667659  
O   -2.0089556    1.5677379   -4.3272726  
C   -0.1387084    0.0017016   -4.3179687  
H    2.1903014   -1.9285748   -3.8121214  
H    1.7490275   -1.7403242   -7.9920147  
H   -2.6234317    2.0034607   -6.2507130  
H   -1.8718971    1.4918035   -3.3780343  
H    3.1197747   -2.8044122   -6.1865215  
C   -0.3410120   -0.9581104   -9.4750616  
C   -0.4587464    0.0945561   -8.6252932  
C   -0.7320430    1.2594663   -9.4334579  
C   -0.7641363    0.7958484  -10.8337493  
N   -0.5194974   -0.5573580  -10.7904635  
C   -0.9947100    1.5976993  -11.9040650  
C   -1.2265303    3.0117530  -11.6606590  
O   -1.4431844    3.8153837  -12.5581772  
C   -1.1968429    3.5247066  -10.1855984  
O   -1.3903417    4.7132460   -9.9683605  
C   -0.9383594    2.5643053   -9.1157062  
H   -1.0141402    1.2374653  -12.9232625  
H   -0.9196651    2.9274870   -8.0971424  
H   -0.1386613   -1.9928856   -9.2510440  
H   -0.4790637   -1.1612114  -11.5909461  
C    0.0000000    0.0000000    1.4700000  
C    1.0662921    0.0000102    2.3034270  
C    0.4961870   -0.0000064    3.6418889  
C   -0.9663858    0.0000850    3.4240247  
N   -1.2632773    0.0000084    2.1528658  
C   -1.8985362    0.0000517    4.5177257  
C   -1.3925775   -0.0004564    5.7720543  
O   -2.1456383   -0.0005410    6.8851312  
C    0.0786232   -0.0009323    6.0245000  
O    0.4683759   -0.0012588    7.1921102  
C    1.0143166   -0.0008442    4.8859032  
H    2.1107198   -0.0000632    2.0421868  
H   -2.9622183    0.0003270    4.3293377  
H   -1.5042274   -0.0009692    7.6184419  
H    2.0724152   -0.0013148    5.1109744  
