58

C   -4.4297974    2.1087673   -0.2339398  
C   -5.6380117    1.6447708   -0.6450366  
C   -5.3911869    0.7496347   -1.7507691  
C   -3.9296541    0.7300041   -1.9515856  
N   -3.4052345    1.5747190   -1.0006226  
C   -3.2941076    0.0012878   -2.9038237  
C   -4.1035805   -0.8182215   -3.7902176  
O   -3.6253066   -1.5102279   -4.6794205  
C   -5.6534087   -0.8124874   -3.5957845  
O   -6.3452686   -1.4982635   -4.3362586  
C   -6.2225101    0.0137348   -2.5340257  
H   -6.5931606    1.9005375   -0.2220859  
H   -7.2964260    0.0119737   -2.4058667  
H   -2.4284974    1.7712471   -0.8805871  
C   -7.0073629    4.2253485    2.6225582  
C   -6.0599653    4.9023939    3.3212160  
C   -4.7825318    4.5526515    2.7461698  
C   -5.0653966    3.6096116    1.6473280  
N   -6.4320684    3.4527518    1.6251260  
C   -4.1187218    3.0460991    0.8548857  
C   -2.7284249    3.3912717    1.1007835  
O   -1.8026035    2.9365308    0.4417190  
C   -2.4057616    4.3878198    2.2594841  
O   -1.2388804    4.6856655    2.4761339  
C   -3.5118117    4.9297208    3.0448810  
H   -6.2359031    5.5704214    4.1454721  
H   -3.2799560    5.6192316    3.8452197  
H   -8.0774048    4.2256378    2.7525586  
H   -6.9343760    2.8687239    0.9819733  
C    0.0000000    0.0000000    0.0000000  
C    1.0541688   -0.0001723   -0.8560392  
C    0.5103136   -0.0000455   -2.1935956  
C   -0.9576373    0.0002461   -2.0455730  
N   -1.2018460   -0.0001389   -0.6915968  
C   -1.8348314    0.0008319   -3.0810607  
C   -1.2972851    0.0009739   -4.4314603  
O   -2.0050676    0.0014268   -5.4301316  
C    0.2542619    0.0004184   -4.6117572  
O    0.7184666    0.0002257   -5.7439122  
C    1.0974551    0.0000873   -3.4189129  
H    2.0940752   -0.0005484   -0.5817983  
H    2.1707276   -0.0000912   -3.5523673  
H   -2.1128194    0.0014915   -0.2706789  
C    1.0672568    0.0000697    2.3021913  
C    0.0000000    0.0000000    1.4700000  
C   -1.1601224    0.0000736    2.3478473  
C   -0.5938729    0.0000769    3.7138435  
N    0.7113367    0.0001554    3.6934124  
C   -1.4286986    0.0001879    4.8835240  
C   -2.7683114    0.0006799    4.6970523  
O   -3.6653903    0.0008304    5.6976972  
C   -3.3702025    0.0010610    3.3310774  
O   -4.5974910    0.0013779    3.2362962  
C   -2.4926826    0.0008943    2.1470656  
H   -0.9878360   -0.0000190    5.8697035  
H   -4.5324246    0.0012261    5.2533954  
H   -2.9677772    0.0012974    1.1752040  
H    2.1134392    0.0000545    2.0405121  
