60

C    3.3041272    0.0001177   -1.5420431  
C    2.5845370   -0.0004780   -0.3695856  
C    1.2040004   -0.0000008   -0.7283590  
C    1.1422372    0.0006037   -2.1454372  
N    2.4348639    0.0026111   -2.6077465  
C   -0.0655183    0.0008798   -2.8497916  
C   -1.2321770    0.0002324   -2.1101397  
O   -2.4392813    0.0001147   -2.7472520  
C   -1.1911211   -0.0000007   -0.6955262  
O   -2.4371526   -0.0002320   -0.1032861  
C    0.0000000    0.0000000    0.0000000  
H    3.0031535   -0.0000661    0.6222581  
H    2.7054628   -0.0071098   -3.5745262  
H   -3.1132988   -0.0000650   -2.0551783  
H   -2.3200283   -0.0004072    0.8516412  
C   -0.1387085    0.0017018   -4.3179686  
C    0.8715313    0.0021965   -5.2254319  
C    0.2617551    0.0029741   -6.5342510  
C   -1.1970055    0.0029203   -6.3133245  
N   -1.3734976    0.0017345   -4.9488685  
C   -2.1246679    0.0039284   -7.3038521  
C   -1.6550230    0.0049214   -8.6793402  
O   -2.4116510    0.0058064   -9.6415335  
C   -0.1143773    0.0047443   -8.9366644  
O    0.2928827    0.0052675  -10.0905274  
C    0.7871604    0.0038969   -7.7872813  
H    1.9238023    0.0018529   -5.0033075  
H   -3.1901206    0.0039988   -7.1202220  
H    1.8524573    0.0039848   -7.9740077  
H   -2.2623845    0.0029668   -4.4831156  
C    6.5771499   -0.0035571    1.3345534  
C    7.6645488   -0.0027620    0.5288602  
C    7.1290982   -0.0009888   -0.8238370  
C    5.6614001   -0.0010504   -0.6437062  
N    5.3318749   -0.0024719    0.6193855  
C    4.7577221    0.0005130   -1.7610465  
C    5.2958120    0.0024562   -3.0019292  
O    4.5716627    0.0040581   -4.1340272  
C    6.7730249    0.0029429   -3.2164073  
O    7.1927148    0.0046218   -4.3735928  
C    7.6790894    0.0012690   -2.0540951  
H    8.7019031   -0.0032208    0.8169075  
H    5.2317436    0.0052552   -4.8505772  
H    8.7426331    0.0018008   -2.2518451  
H    6.5493805   -0.0048792    2.4126075  
C    2.3971438    2.0127888    3.1728260  
C    1.9431056    1.6308205    1.9564670  
C    0.8496017    0.7127664    2.2356185  
C    0.7794028    0.6545384    3.7115134  
N    1.6840587    1.4146091    4.2663826  
C   -0.1885723   -0.1578550    4.3957118  
C   -1.0476298   -0.8789867    3.6398520  
O   -2.0015663   -1.6796266    4.1448486  
C   -1.0022026   -0.8410666    2.1483229  
O   -1.8147390   -1.5232959    1.5241687  
C    0.0000000    0.0000000    1.4700000  
H    2.3054237    1.9346118    0.9892483  
H   -0.2170646   -0.1815267    5.4753125  
H   -2.4487139   -2.0549881    3.3649027  
H    3.2048689    2.6911772    3.3971983  
