58

C    1.0965507    0.0001360   -0.8010309  
C    0.0000000    0.0000000    0.0000000  
C   -1.1546572    0.0001472   -0.8669503  
C   -0.6372031    0.0003523   -2.2486274  
N    0.7342855    0.0007340   -2.1395013  
C   -1.4147764    0.0001358   -3.3608705  
C   -2.8576071   -0.0001044   -3.1854441  
O   -3.6427811   -0.0002486   -4.1244878  
C   -3.4275854   -0.0000723   -1.7311640  
O   -4.6406843    0.0000336   -1.5710024  
C   -2.4891876   -0.0001087   -0.6116728  
H   -2.8919122   -0.0002917    0.3920886  
H    2.1388265    0.0000661   -0.5261655  
H    1.3735848   -0.0006094   -2.9130268  
C    0.1963015   -0.6854849   -5.1975721  
C   -0.8712860    0.0001716   -4.7267101  
C   -1.3728473    0.7454188   -5.8710631  
C   -0.4646078    0.3816815   -6.9798373  
N    0.4571785   -0.4568678   -6.5910760  
C   -0.6266637    0.9179306   -8.3031894  
C   -1.6497838    1.7781387   -8.5095914  
O   -1.9186872    2.3543459   -9.6935323  
C   -2.5836238    2.1644782   -7.4110262  
O   -3.4927578    2.9526636   -7.6707558  
C   -2.3964323    1.6008435   -6.0622488  
H   -2.7005711    2.9110291   -9.5264578  
H   -3.0942865    1.9057194   -5.2939518  
H    0.8445063   -1.3575647   -4.6580233  
C    1.2049347   -2.9361360   -9.3398940  
C    1.9279335   -2.5566978  -10.4249627  
C    1.6911637   -1.1452175  -10.6160110  
C    0.7643373   -0.7304631   -9.5456082  
N    0.5080471   -1.8624190   -8.8067711  
C    0.2968603    0.5327729   -9.3800634  
C    0.7356741    1.5518596  -10.3189138  
O    0.3709557    2.7185196  -10.2542123  
C    1.7169137    1.1349740  -11.4604821  
O    2.0930093    1.9842392  -12.2570766  
C    2.1513327   -0.2576531  -11.5361261  
H    2.5553505   -3.1930077  -11.0233531  
H    2.8309280   -0.5380974  -12.3293633  
H    1.1224177   -3.9098613   -8.8849875  
H   -0.0911809   -1.9019814   -8.0027760  
C    2.5528530    2.1414826    2.8079335  
C    2.0663498    1.7338582    4.0032312  
C    0.9804344    0.8229586    3.6752840  
C    0.9495562    0.7966882    2.1971295  
N    1.8690446    1.5676019    1.6831036  
C    0.0000000    0.0000000    1.4700000  
C   -0.8785127   -0.7372425    2.1869543  
O   -1.8187535   -1.5261249    1.6395491  
C   -0.8723269   -0.7321790    3.6796354  
O   -1.7010379   -1.4274584    4.2670412  
C    0.1115397    0.0933559    4.4024240  
H    2.4028853    2.0163452    4.9860947  
H   -2.2861435   -1.9184361    2.3990168  
H    0.0832434    0.0693689    5.4835595  
H    3.3664920    2.8238276    2.6198634  
