60

C    3.1301152   -0.0010311   -1.7028248  
C    2.5367767   -0.0002766   -0.4864663  
C    1.1089906    0.0001028   -0.7656180  
C    1.0177872   -0.0004148   -2.2415129  
N    2.1993581   -0.0011610   -2.7963816  
C   -0.2459210   -0.0002877   -2.9257117  
C   -1.3675316   -0.0000605   -2.1698524  
O   -2.6129307    0.0000866   -2.6748494  
C   -1.3083586    0.0000911   -0.6783233  
O   -2.3693263    0.0004206   -0.0541693  
C    0.0000000    0.0000000    0.0000000  
H    3.0096017   -0.0001007    0.4807526  
H   -3.1967436    0.0002093   -1.8949037  
C    6.8847540    0.0010459    0.6986590  
C    5.5715645    0.0014849    0.3713776  
C    5.5475447   -0.0003217   -1.0832424  
C    6.9721660   -0.0016280   -1.4795206  
N    7.7607282   -0.0009150   -0.4392516  
C    7.3784672   -0.0036303   -2.8579260  
C    6.4057884   -0.0046863   -3.7977288  
O    6.6406183   -0.0065623   -5.1209414  
C    4.9592106   -0.0037854   -3.4295261  
O    4.1279724   -0.0047102   -4.3374151  
C    4.5679462   -0.0016852   -2.0086697  
H    4.7238869    0.0027739    1.0350927  
H    8.4267356   -0.0043452   -3.1187766  
H    5.7562733   -0.0069356   -5.5297042  
H    7.3236786    0.0019892    1.6837063  
C    2.0407277   -2.0139644   -6.1785236  
C    1.6287205   -1.6317250   -4.9473766  
C    0.5264188   -0.7135550   -5.1890255  
C    0.4056604   -0.6555637   -6.6616553  
N    1.2906488   -1.4158619   -7.2470886  
C   -0.5850907    0.1568591   -7.3123992  
C   -1.4176212    0.8782452   -6.5276513  
O   -2.3881988    1.6789425   -6.9997778  
C   -1.3210809    0.8405682   -5.0385502  
O   -2.1116394    1.5230229   -4.3870186  
C   -0.2963280   -0.0005339   -4.3948472  
H    2.0239485   -1.9354082   -3.9930984  
H   -0.6505829    0.1803542   -8.3903926  
H   -2.8082851    2.0545013   -6.2050225  
H    2.8401868   -2.6925106   -6.4303443  
C    2.5311839    2.1237619    3.0120429  
C    1.9795631    1.6616747    1.8395852  
C    0.9223175    0.7739173    2.1983588  
C    0.8753926    0.7337535    3.6154372  
N    1.8668922    1.5631002    4.0777464  
C   -0.0496243   -0.0427881    4.3197917  
C   -0.9437528   -0.7922060    3.5801400  
O   -1.8685244   -1.5680278    4.2172520  
C   -0.9124520   -0.7656372    2.1655264  
O   -1.8671164   -1.5663939    1.5732860  
C    0.0000000    0.0000000    1.4700000  
H    2.3005065    1.9304404    0.8477417  
H    2.0679347    1.7444845    5.0445261  
H   -0.0904770   -0.0778569    5.3997470  
H   -2.3849669   -2.0011402    3.5251786  
H   -1.7775064   -1.4909735    0.6183591  
H    3.3468514    2.8078103    3.1724291  
