60

C    3.3041269    0.0001177   -1.5420438  
C    2.5845370   -0.0004779   -0.3695861  
C    1.2040002   -0.0000008   -0.7283590  
C    1.1422367    0.0006037   -2.1454374  
N    2.4348632    0.0026109   -2.6077471  
C   -0.0655189    0.0008797   -2.8497917  
C   -1.2321775    0.0002324   -2.1101397  
O   -2.4392823    0.0001146   -2.7472512  
C   -1.1911212   -0.0000007   -0.6955261  
O   -2.4371527   -0.0002320   -0.1032857  
C    0.0000000    0.0000000    0.0000000  
H    3.0031537   -0.0000660    0.6222577  
H    2.7054620   -0.0071099   -3.5745265  
H   -3.1132994   -0.0000649   -2.0551779  
H   -2.3200279   -0.0004071    0.8516418  
H    4.3686615    0.0004071   -1.7024300  
C   -0.1387093    0.0017017   -4.3179685  
C    0.8847644    0.0023479   -5.2034514  
C    0.2487251    0.0030111   -6.5118680  
C   -1.2011862    0.0025365   -6.2214533  
N   -1.4344192    0.0018493   -4.9370894  
C   -2.1866352    0.0030148   -7.2673865  
C   -1.7437564    0.0043146   -8.5453501  
O   -2.5513026    0.0048871   -9.6195522  
C   -0.2869496    0.0051945   -8.8707328  
O    0.0441852    0.0062435  -10.0562996  
C    0.7042733    0.0046370   -7.7801360  
H    1.9409042    0.0024619   -4.9945365  
H   -1.9471986    0.0058399  -10.3838892  
H    1.7498532    0.0054225   -8.0576099  
C   -4.2067554    0.7275536   -5.9136796  
C   -5.5464840    0.5102809   -5.8690145  
C   -5.8583951   -0.4160958   -6.9317346  
C   -4.5814034   -0.7229344   -7.6039938  
N   -3.6195492    0.0022382   -6.9392752  
C   -4.4519275   -1.5626020   -8.6622464  
C   -5.6502942   -2.2069661   -9.1733697  
O   -5.6378187   -2.9796878  -10.1226048  
C   -7.0134869   -1.8963818   -8.4769157  
O   -8.0292281   -2.4327447   -8.8986312  
C   -7.0265656   -0.9741700   -7.3441287  
H   -6.2374045    0.9490427   -5.1713540  
H   -3.5057764   -1.7741204   -9.1407524  
H   -7.9744401   -0.7645811   -6.8673369  
H   -3.5990396    1.3566839   -5.2837861  
C    0.8175213    0.6860729    2.3021913  
C    0.0000000    0.0000000    1.4700000  
C   -0.8887526   -0.7456559    2.3478473  
C   -0.4549825   -0.3816753    3.7138435  
N    0.5448156    0.4573574    3.6934124  
C   -1.0945674   -0.9182058    4.8835240  
C   -2.1210866   -1.7789155    4.6970523  
O   -2.8083856   -2.3554314    5.6976972  
C   -2.5824069   -2.1655116    3.3310774  
O   -3.5227682   -2.9541547    3.2362962  
C   -1.9100805   -1.6015804    2.1470656  
H   -0.7567140   -0.6349833    5.8697035  
H   -3.4728268   -2.9124471    5.2533954  
H   -2.2742832   -1.9066565    1.1752040  
H    1.6189533    1.3585343    2.0405121  
