58

C   -3.2798078   -0.0015997   -1.4499647  
C   -2.5571143   -0.0013472   -2.5996554  
C   -1.1637429   -0.0005146   -2.2210360  
C   -1.1336961   -0.0003305   -0.7459470  
N   -2.4483510   -0.0006140   -0.3402721  
C    0.0000000    0.0000000    0.0000000  
C    1.2757371    0.0004131   -0.6964418  
O    2.3524597    0.0007913   -0.1142320  
C    1.2676490    0.0004793   -2.2584085  
O    2.3355765    0.0011322   -2.8557300  
C   -0.0181559   -0.0001815   -2.9516298  
H   -2.9547349   -0.0015211   -3.5989103  
H   -0.0150791   -0.0003365   -4.0331631  
H   -2.7563620   -0.0021346    0.6148065  
C   -6.5739152   -0.0039047   -4.3537886  
C   -7.6280837   -0.0043055   -3.4977493  
C   -7.0842285   -0.0039640   -2.1601929  
C   -5.6162779   -0.0032976   -2.3082156  
N   -5.3720687   -0.0036925   -3.6621917  
C   -4.7390840   -0.0024266   -1.2727278  
C   -5.2766305   -0.0023514    0.0776719  
O   -4.5688481   -0.0016596    1.0763434  
C   -6.8281771   -0.0033018    0.2579686  
O   -7.2923821   -0.0035541    1.3901232  
C   -7.6713704   -0.0039178   -0.9348757  
H   -8.7446431   -0.0043691   -0.8014218  
H   -6.5739151   -0.0039633   -5.4316982  
H   -4.4610963   -0.0018473   -4.0831096  
C   -9.0494875   -0.0052109   -3.8725976  
C   -9.5834586   -0.0056924   -5.1161622  
C  -11.0230487   -0.0065227   -4.9062103  
C  -11.1853412   -0.0065375   -3.4364331  
N  -10.0319121   -0.0056897   -2.8252124  
C  -12.4805834   -0.0072146   -2.8139909  
C  -13.5644260   -0.0074592   -3.6230754  
O  -14.8327358   -0.0080898   -3.1787432  
C  -13.4333724   -0.0070808   -5.1100137  
O  -14.4629965   -0.0074581   -5.7846210  
C  -12.0938158   -0.0064307   -5.7244337  
H   -9.0645271   -0.0054169   -6.0594468  
H  -12.5696600   -0.0074158   -1.7374337  
H  -15.3782453   -0.0080880   -3.9859433  
H  -12.0416326   -0.0060570   -6.8049456  
C    2.5528530    2.1414826    2.8079335  
C    2.0663498    1.7338582    4.0032312  
C    0.9804344    0.8229586    3.6752840  
C    0.9495562    0.7966882    2.1971295  
N    1.8690446    1.5676019    1.6831036  
C    0.0000000    0.0000000    1.4700000  
C   -0.8785127   -0.7372425    2.1869543  
O   -1.8187535   -1.5261249    1.6395491  
C   -0.8723269   -0.7321790    3.6796354  
O   -1.7010379   -1.4274584    4.2670412  
C    0.1115397    0.0933559    4.4024240  
H    2.4028853    2.0163452    4.9860947  
H   -2.2861435   -1.9184361    2.3990168  
H    0.0832434    0.0693689    5.4835595  
H    3.3664920    2.8238276    2.6198634  
