58

C    3.2573683   -0.0002919   -1.5109364  
C    2.5379474   -0.0001708   -0.3591949  
C    1.1435052    0.0000330   -0.7338494  
C    1.1092620   -0.0000083   -2.2088471  
N    2.4227581    0.0001909   -2.6182598  
C   -0.0265516   -0.0002526   -2.9515660  
C   -1.3003024   -0.0002642   -2.2514985  
O   -2.3786769   -0.0004139   -2.8306441  
C   -1.2877722    0.0000310   -0.6895611  
O   -2.3539955    0.0003304   -0.0892047  
C    0.0000000    0.0000000    0.0000000  
H    2.9384089   -0.0000366    0.6389253  
H   -0.0296265   -0.0004089   -4.0327231  
H    4.3270408   -0.0004763   -1.6439421  
C    5.7080875   -2.1452808   -4.5132687  
C    5.6084263   -1.7395372   -5.8005212  
C    4.4745366   -0.8282632   -5.8198364  
C    3.9954417   -0.7997403   -4.4211803  
N    4.7146947   -1.5697627   -3.6506413  
C    2.8699667   -0.0020527   -4.0185812  
C    2.2514706    0.7339938   -4.9699130  
O    1.1895430    1.5236023   -4.7356739  
C    2.7114703    0.7266527   -6.3899511  
O    2.1009891    1.4209391   -7.2026620  
C    3.8682987   -0.0998711   -6.7779341  
H    0.9754942    1.9146999   -5.6019174  
H    4.1702591   -0.0775375   -7.8164675  
H    6.4257032   -2.8272442   -4.0855690  
C    7.3596980   -5.5970327   -6.9564257  
C    8.0056667   -5.2199447   -8.0898295  
C    7.7574812   -3.8085008   -8.2660840  
C    6.9079032   -3.3912061   -7.1343274  
N    6.7026707   -4.5218066   -6.3776826  
C    6.4542865   -2.1272413   -6.9385488  
C    6.8275527   -1.1099946   -7.9072679  
O    6.4693254    0.0571392   -7.8191005  
C    7.7264493   -1.5295817   -9.1138062  
O    8.0469054   -0.6818818   -9.9359829  
C    8.1532331   -2.9227711   -9.2173993  
H    8.5892540   -5.8577880   -8.7295132  
H    8.7756250   -3.2050901  -10.0556406  
H    7.3081744   -6.5700012   -6.4953757  
H    6.1608999   -4.5595613   -5.5338188  
C    0.8175213    0.6860729    2.3021913  
C    0.0000000    0.0000000    1.4700000  
C   -0.8887526   -0.7456559    2.3478473  
C   -0.4549825   -0.3816753    3.7138435  
N    0.5448156    0.4573574    3.6934124  
C   -1.0945674   -0.9182058    4.8835240  
C   -2.1210866   -1.7789155    4.6970523  
O   -2.8083856   -2.3554314    5.6976972  
C   -2.5824069   -2.1655116    3.3310774  
O   -3.5227682   -2.9541547    3.2362962  
C   -1.9100805   -1.6015804    2.1470656  
H   -0.7567140   -0.6349833    5.8697035  
H   -3.4728268   -2.9124471    5.2533954  
H   -2.2742832   -1.9066565    1.1752040  
H    1.6189533    1.3585343    2.0405121  
