62

C   -1.1180411   -0.0429312   -0.8003805  
C    0.0000000    0.0000000    0.0000000  
C    1.1316170    0.0417291   -0.8673531  
C    0.6378871    0.0220551   -2.1969284  
N   -0.7317388   -0.0314100   -2.1202240  
C    1.4761466    0.0528618   -3.3154815  
C    2.8376136    0.1047761   -3.0876864  
O    3.7013860    0.1369597   -4.1440357  
C    3.3494642    0.1247556   -1.7684337  
O    4.7267435    0.1767841   -1.7073139  
C    2.5230994    0.0941136   -0.6644825  
H    1.1061107    0.0379576   -4.3313814  
H    4.5908292    0.1707182   -3.7685144  
H    4.9899496    0.1872078   -0.7819923  
H    2.9441917    0.1103253    0.3339650  
H   -2.1604229   -0.0823032   -0.5342061  
C   -1.6470538   -0.0520153   -3.2702993  
C   -3.0040410   -0.1018584   -3.2835855  
C   -3.4117972   -0.1011211   -4.6687097  
C   -2.1722425   -0.0463995   -5.4670208  
N   -1.1383075   -0.0182290   -4.5597859  
C   -2.1313506   -0.0298657   -6.8233976  
C   -3.3923450   -0.0683215   -7.5451653  
O   -3.4609496   -0.0572483   -8.7672424  
C   -4.7173462   -0.1262466   -6.7200458  
O   -5.7851350   -0.1586639   -7.3167344  
C   -4.6336719   -0.1396030   -5.2617341  
H   -3.6461039   -0.1351401   -2.4214594  
H   -5.5556642   -0.1800002   -4.6977991  
H   -0.1641243    0.0188939   -4.7977701  
C    1.7766728   -2.0149293   -6.2353872  
C    2.4124089   -1.4796082   -7.3316252  
C    1.4704403   -0.6319778   -7.9864669  
C    0.2672119   -0.6901959   -7.2376159  
N    0.4870124   -1.5402644   -6.1823012  
C   -0.8803795    0.0247885   -7.5934526  
C   -0.8119801    0.8131375   -8.7257087  
O   -1.9034281    1.5326073   -9.1182876  
C    0.3794234    0.8839877   -9.4862054  
O    0.2884902    1.7121114  -10.5858816  
C    1.5118480    0.1786998   -9.1359065  
H    3.4295747   -1.6767502   -7.6240321  
H   -0.1847325   -1.7698105   -5.4723374  
H   -1.6445951    2.0059950   -9.9196452  
H    1.1344897    1.7034448  -11.0439359  
H    2.4098410    0.2527184   -9.7380762  
H    2.1406902   -2.6988962   -5.4879652  
C    0.0000000    0.0000000    1.4700000  
C    1.0662921    0.0000102    2.3034270  
C    0.4961870   -0.0000064    3.6418889  
C   -0.9663858    0.0000850    3.4240247  
N   -1.2632773    0.0000084    2.1528658  
C   -1.8985362    0.0000517    4.5177257  
C   -1.3925775   -0.0004564    5.7720543  
O   -2.1456383   -0.0005410    6.8851312  
C    0.0786232   -0.0009323    6.0245000  
O    0.4683759   -0.0012588    7.1921102  
C    1.0143166   -0.0008442    4.8859032  
H    2.1107198   -0.0000632    2.0421868  
H   -2.9622183    0.0003270    4.3293377  
H   -1.5042274   -0.0009692    7.6184419  
H    2.0724152   -0.0013148    5.1109744  
