58

C    4.1774648   -0.7039258   -4.3991482  
C    3.1006054    0.0006263   -3.9654951  
C    2.5992399    0.7428152   -5.0980249  
C    3.4785673    0.4104979   -6.2351873  
N    4.4147926   -0.4705963   -5.7452433  
C    3.3361155    0.9100885   -7.4889105  
C    2.2439822    1.8371256   -7.7346383  
O    2.0321271    2.3416476   -8.8295700  
C    1.3005621    2.2033757   -6.5448377  
O    0.3778222    2.9830419   -6.7395970  
C    1.5546721    1.6002371   -5.2388884  
H    3.9920980    0.6532722   -8.3090581  
H    0.8967557    1.8588592   -4.4203622  
H    4.8177812   -1.3738064   -3.8485622  
C    5.9277935   -2.3886382   -6.4310347  
C    6.9482086   -2.6363028   -7.2921324  
C    7.2060026   -1.4069030   -8.0041386  
C    6.2452621   -0.4155837   -7.4835122  
N    5.4992131   -1.0738735   -6.5332719  
C    6.1668250    0.8728095   -7.9025519  
C    7.0901211    1.3124272   -8.9354100  
O    7.0987383    2.4530160   -9.3795760  
C    8.1159212    0.2793520   -9.5013568  
O    8.8980515    0.6378532  -10.3714196  
C    8.1044217   -1.0813203   -8.9700465  
H    7.4615972   -3.5733327   -7.4146935  
H    5.4547175    1.5839314   -7.5074337  
H    8.8179978   -1.7904796   -9.3670683  
H    5.4526860   -3.0560433   -5.7305114  
C    3.2798083    0.0005857   -1.4499652  
C    2.5571142    0.0005565   -2.5996556  
C    1.1637432    0.0001548   -2.2210361  
C    1.1336964   -0.0000200   -0.7459473  
N    2.4483512   -0.0001428   -0.3402723  
C    0.0000000    0.0000000    0.0000000  
C   -1.2757368   -0.0000186   -0.6964415  
O   -2.3524598   -0.0000639   -0.1142311  
C   -1.2676497   -0.0000872   -2.2584083  
O   -2.3355766   -0.0004101   -2.8557295  
C    0.0181558    0.0001758   -2.9516296  
H    0.0150788    0.0003319   -4.0331631  
H    4.3498547    0.0008612   -1.3200026  
H    2.7563626    0.0012823    0.6148059  
C    0.8175213    0.6860729    2.3021913  
C    0.0000000    0.0000000    1.4700000  
C   -0.8887526   -0.7456559    2.3478473  
C   -0.4549825   -0.3816753    3.7138435  
N    0.5448156    0.4573574    3.6934124  
C   -1.0945674   -0.9182058    4.8835240  
C   -2.1210866   -1.7789155    4.6970523  
O   -2.8083856   -2.3554314    5.6976972  
C   -2.5824069   -2.1655116    3.3310774  
O   -3.5227682   -2.9541547    3.2362962  
C   -1.9100805   -1.6015804    2.1470656  
H   -0.7567140   -0.6349833    5.8697035  
H   -3.4728268   -2.9124471    5.2533954  
H   -2.2742832   -1.9066565    1.1752040  
H    1.6189533    1.3585343    2.0405121  
