58

C    0.0000000    0.0000000    0.0000000  
C    1.0541691   -0.0001722   -0.8560385  
C    0.5103148   -0.0000454   -2.1935953  
C   -0.9576360    0.0002459   -2.0455733  
N   -1.2018453   -0.0001391   -0.6915972  
C   -1.8348299    0.0008316   -3.0810614  
C   -1.2972830    0.0009736   -4.4314610  
O   -2.0050651    0.0014265   -5.4301325  
C    0.2542642    0.0004184   -4.6117570  
O    0.7184692    0.0002257   -5.7439117  
C    1.0974567    0.0000874   -3.4189124  
H    2.0940754   -0.0005483   -0.5817975  
H   -2.1128192    0.0014911   -0.2706798  
C    4.1988043   -2.1397334   -1.2302355  
C    5.3249612   -1.7327112   -1.8608567  
C    4.8655820   -0.8226614   -2.8987773  
C    3.3949153   -0.7961729   -2.7470485  
N    2.9982283   -1.5662364   -1.7705080  
C    2.5562225   -0.0001552   -3.6002994  
C    3.1593408    0.7362379   -4.5611887  
O    2.5001484    1.5244282   -5.4273654  
C    4.6413777    0.7309333   -4.7392319  
O    5.1220804    1.4254262   -5.6346790  
C    5.4799941   -0.0939018   -3.8513724  
H    6.3418224   -2.0150804   -1.6479322  
H    3.1961637    1.9162249   -5.9852278  
H    6.5493769   -0.0701167   -4.0128768  
H    4.1125269   -2.8213703   -0.3990311  
C   -4.0214236    0.6873766   -1.9917560  
C   -3.2941060    0.0012872   -2.9038252  
C   -4.2729610   -0.7438343   -3.6804439  
C   -5.5765683   -0.3795584   -3.0850485  
N   -5.4354539    0.4591728   -2.0947929  
C   -6.8150141   -0.9155377   -3.5790778  
C   -6.7539645   -1.7760021   -4.6208112  
O   -7.8303740   -2.3520049   -5.1825968  
C   -5.4537075   -2.1628853   -5.2435586  
O   -5.4732669   -2.9512803   -6.1886893  
C   -4.1970784   -1.5995195   -4.7187480  
H   -7.7531674   -0.6321093   -3.1247141  
H   -7.4696157   -2.9089624   -5.8959021  
H   -3.2763225   -1.9047893   -5.1975479  
H   -3.6647949    1.3595205   -1.2275490  
C    0.0000000    0.0000000    1.4700000  
C    1.0662921    0.0000102    2.3034270  
C    0.4961870   -0.0000064    3.6418889  
C   -0.9663858    0.0000850    3.4240247  
N   -1.2632773    0.0000084    2.1528658  
C   -1.8985362    0.0000517    4.5177257  
C   -1.3925775   -0.0004564    5.7720543  
O   -2.1456383   -0.0005410    6.8851312  
C    0.0786232   -0.0009323    6.0245000  
O    0.4683759   -0.0012588    7.1921102  
C    1.0143166   -0.0008442    4.8859032  
H    2.1107198   -0.0000632    2.0421868  
H   -2.9622183    0.0003270    4.3293377  
H   -1.5042274   -0.0009692    7.6184419  
H    2.0724152   -0.0013148    5.1109744  
