62

C   -3.3041007    0.0133623   -1.5420424  
C   -2.5845140    0.0110222   -0.3695848  
C   -1.2039907    0.0049127   -0.7283589  
C   -1.1422316    0.0040563   -2.1454368  
N   -2.4348549    0.0073227   -2.6077461  
C    0.0655133   -0.0011470   -2.8497919  
C    1.2321649   -0.0052594   -2.1101400  
O    2.4392600   -0.0100663   -2.7472527  
C    1.1911103   -0.0048587   -0.6955268  
O    2.4371330   -0.0097109   -0.1032865  
C    0.0000000    0.0000000    0.0000000  
H   -3.0031281    0.0123181    0.6222588  
H   -2.7054122    0.0181474   -3.5745255  
H    0.1193471   -0.0019713   -3.9297468  
H    3.1132732   -0.0126366   -2.0551793  
H    2.3200112   -0.0090580    0.8516404  
C   -6.7747393    0.0313099    1.2764688  
C   -5.5081714    0.0260265    0.7395840  
C   -5.6572754    0.0240909   -0.6789945  
C   -7.0493304    0.0286965   -0.9511861  
N   -7.6990533    0.0310605    0.2581411  
C   -7.5658955    0.0286148   -2.2503969  
C   -6.6606986    0.0241030   -3.2938409  
O   -7.1108670    0.0241633   -4.5823914  
C   -5.2679974    0.0190931   -3.0424922  
O   -4.4967428    0.0145586   -4.1863842  
C   -4.7576851    0.0188974   -1.7610452  
H   -4.5897688    0.0227317    1.3012947  
H   -8.6953102    0.0449721    0.3816733  
H   -8.6257730    0.0319672   -2.4645253  
H   -6.3261101    0.0203651   -5.1457800  
H   -3.5699274    0.0113765   -3.9283012  
C   -6.4331572    0.0346044    3.7909134  
C   -7.2078470    0.0346974    2.6812131  
C   -8.5751097    0.0390554    3.1782777  
C   -8.4364624    0.0411027    4.6504723  
N   -7.1831741    0.0385899    5.0155089  
C   -9.5788521    0.0455365    5.5222594  
C  -10.8040544    0.0482101    4.9493669  
O  -11.9561311    0.0524152    5.6412795  
C  -10.9767669    0.0466167    3.4666907  
O  -12.1216467    0.0491075    3.0145135  
C   -9.7893562    0.0420109    2.5937878  
H   -9.4481199    0.0467428    6.5945547  
H  -12.6537693    0.0534771    4.9612415  
H   -9.9570189    0.0411006    1.5250885  
H   -5.3563188    0.0319469    3.8490936  
C    0.0000000    0.0000000    1.4700000  
C    1.0662921    0.0000102    2.3034270  
C    0.4961870   -0.0000064    3.6418889  
C   -0.9663858    0.0000850    3.4240247  
N   -1.2632773    0.0000084    2.1528658  
C   -1.8985362    0.0000517    4.5177257  
C   -1.3925775   -0.0004564    5.7720543  
O   -2.1456383   -0.0005410    6.8851312  
C    0.0786232   -0.0009323    6.0245000  
O    0.4683759   -0.0012588    7.1921102  
C    1.0143166   -0.0008442    4.8859032  
H    2.1107198   -0.0000632    2.0421868  
H   -2.9622183    0.0003270    4.3293377  
H   -1.5042274   -0.0009692    7.6184419  
H    2.0724152   -0.0013148    5.1109744  
