64

C    0.0000000    0.0000000    0.0000000  
C    1.0521663   -0.0012127   -0.8862346  
C    0.4917212   -0.0012064   -2.1979133  
C   -0.9187434    0.0003342   -2.0478680  
N   -1.1833171   -0.0009162   -0.7007908  
C   -1.7951710    0.0010729   -3.1372085  
C   -1.2375850    0.0005485   -4.4010419  
O   -2.0474230    0.0015792   -5.4997574  
C    0.1673570   -0.0013603   -4.5711963  
O    0.5673506   -0.0020810   -5.8915549  
C    1.0325760   -0.0023636   -3.4969895  
H    2.0953057   -0.0031095   -0.6200566  
H   -2.0989776    0.0102817   -0.2891816  
H   -1.4634906    0.0006803   -6.2693587  
H    1.5290693   -0.0033481   -5.9180048  
H    2.1042133   -0.0040058   -3.6584461  
C   -4.5381977    2.1274406   -0.3186939  
C   -3.4269304    1.6642943   -0.9843118  
C   -3.8900347    0.7769882   -2.0005906  
C   -5.3047819    0.7381790   -1.9061929  
N   -5.6652817    1.5678631   -0.8735840  
C   -6.0984783   -0.0375960   -2.7564915  
C   -5.4522426   -0.7876255   -3.7198257  
O   -6.1790053   -1.5627449   -4.5765754  
C   -4.0415168   -0.7624072   -3.8295248  
O   -3.5480366   -1.5636289   -4.8384176  
C   -3.2578662    0.0024729   -2.9908496  
H   -2.4078036    1.9320821   -0.7637130  
H   -6.6070670    1.7501471   -0.5772828  
H   -5.5422054   -1.9964625   -5.1593607  
H   -2.5888607   -1.4891272   -4.8443287  
H   -4.6159210    2.8115573    0.5088947  
C   -9.1017094    3.1177650   -1.9928290  
C  -10.2185112    2.3172900   -2.0596121  
C   -9.7651001    0.9913957   -2.3261142  
C   -8.3502896    1.0447377   -2.4120888  
N   -7.9804354    2.3507601   -2.2068324  
C   -7.5649347   -0.0838674   -2.6655772  
C   -8.2197310   -1.2883145   -2.8350663  
O   -7.5013273   -2.4217521   -3.0845248  
C   -9.6306674   -1.3617150   -2.7532941  
O  -10.1332221   -2.6321401   -2.9451368  
C  -10.4060925   -0.2486768   -2.5035193  
H  -11.2350142    2.6484895   -1.9330353  
H   -7.0363558    2.6922889   -2.1995294  
H   -8.1431677   -3.1388372   -3.1687499  
H  -11.0919040   -2.5939483   -2.8739084  
H  -11.4848271   -0.3357441   -2.4466814  
H   -9.0163573    4.1753919   -1.8108957  
C    1.0672568    0.0000697    2.3021913  
C    0.0000000    0.0000000    1.4700000  
C   -1.1601224    0.0000736    2.3478473  
C   -0.5938729    0.0000769    3.7138435  
N    0.7113367    0.0001554    3.6934124  
C   -1.4286986    0.0001879    4.8835240  
C   -2.7683114    0.0006799    4.6970523  
O   -3.6653903    0.0008304    5.6976972  
C   -3.3702025    0.0010610    3.3310774  
O   -4.5974910    0.0013779    3.2362962  
C   -2.4926826    0.0008943    2.1470656  
H   -0.9878360   -0.0000190    5.8697035  
H   -4.5324246    0.0012261    5.2533954  
H   -2.9677772    0.0012974    1.1752040  
H    2.1134392    0.0000545    2.0405121  
