60

C    1.1243409    0.0099920   -0.7919010  
C    0.7474074    0.0234540   -2.1148551  
C   -0.6787386    0.0234487   -2.1414701  
C   -1.1201748    0.0098591   -0.7935547  
N    0.0000000    0.0000000    0.0000000  
C   -2.4730816    0.0063711   -0.4408240  
C   -3.3971960    0.0170983   -1.4675056  
O   -4.7313520    0.0146263   -1.1793466  
C   -2.9763654    0.0303508   -2.8186318  
O   -4.0166481    0.0395118   -3.7247620  
C   -1.6418567    0.0335258   -3.1673482  
H    1.4178710    0.0310964   -2.9571212  
H   -2.8160167   -0.0041105    0.5845963  
H   -5.1938821    0.0230870   -2.0274377  
H   -3.6464681    0.0482293   -4.6127339  
H    2.1062465    0.0052813   -0.3505407  
C    1.5648140   -2.0538521   -5.3222154  
C    1.3416075   -1.5771838   -6.5740305  
C    0.2115233   -0.6825126   -6.4885403  
C   -0.2083430   -0.6769645   -5.0741599  
N    0.6519551   -1.5285585   -4.4202758  
C   -1.2456335    0.0471722   -4.5828767  
C   -1.9989392    0.8762618   -5.5089850  
O   -2.9501118    1.5651299   -5.1639732  
C   -1.5720047    0.8854945   -7.0114648  
O   -2.1989302    1.5794286   -7.8005659  
C   -0.4365512    0.0629997   -7.4214650  
H    1.9042726   -1.8242681   -7.4566242  
H    2.3192453   -2.7448504   -4.9827386  
H    0.6226025   -1.7349519   -3.4386511  
C    0.3551704   -0.9917915   -9.5710219  
C   -0.0432833    0.0795047   -8.8377868  
C   -0.0049862    1.2268216   -9.7135918  
C    0.4516876    0.7325776  -11.0265882  
N    0.6530220   -0.6197612  -10.8731814  
C    0.6185457    1.5110864  -12.1255819  
C    0.3292472    2.9305408  -12.0072964  
O    0.4485623    3.7146053  -12.9396627  
C   -0.1554396    3.4757562  -10.6261285  
O   -0.4017721    4.6691110  -10.5143895  
C   -0.2974871    2.5386794   -9.5145699  
H    0.9544013    1.1285604  -13.0794081  
H   -0.6337823    2.9241398   -8.5616541  
H    0.4564872   -2.0217307   -9.2696093  
H    0.9659763   -1.2411391  -11.5963656  
C    0.8175213    0.6860729    2.3021913  
C    0.0000000    0.0000000    1.4700000  
C   -0.8887526   -0.7456559    2.3478473  
C   -0.4549825   -0.3816753    3.7138435  
N    0.5448156    0.4573574    3.6934124  
C   -1.0945674   -0.9182058    4.8835240  
C   -2.1210866   -1.7789155    4.6970523  
O   -2.8083856   -2.3554314    5.6976972  
C   -2.5824069   -2.1655116    3.3310774  
O   -3.5227682   -2.9541547    3.2362962  
C   -1.9100805   -1.6015804    2.1470656  
H   -0.7567140   -0.6349833    5.8697035  
H   -3.4728268   -2.9124471    5.2533954  
H   -2.2742832   -1.9066565    1.1752040  
H    1.6189533    1.3585343    2.0405121  
