58

C    2.8912669   -0.6998115   -3.3332351  
C    1.7334695    0.0049281   -3.2500363  
C    1.6041098    0.7488997   -4.4807302  
C    2.7899380    0.4174240   -5.2935810  
N    3.5303611   -0.4649345   -4.5411804  
C    3.0393019    0.9187051   -6.5298007  
C    2.0755503    1.8468034   -7.0975613  
O    2.2101242    2.3528617   -8.2039496  
C    0.8125759    2.2121889   -6.2542374  
O   -0.0056411    2.9927351   -6.7217067  
C    0.6534233    1.6072169   -4.9341877  
H    3.9152832    0.6624810   -7.1093829  
H   -0.2239004    1.8652502   -4.3567398  
H    3.3315067   -1.3708305   -2.6136436  
C    5.1376271   -4.5228383   -4.0580133  
C    6.3372714   -4.3642256   -4.6742689  
C    6.4012259   -2.9938923   -5.1247483  
C    5.1314122   -2.3626285   -4.7174772  
N    4.4097884   -3.3427239   -4.0759467  
C    4.8041503   -1.0679540   -4.9591845  
C    5.7667169   -0.2411129   -5.6679398  
O    5.5652731    0.9366910   -5.9334560  
C    7.1178937   -0.8889301   -6.1089185  
O    7.9359510   -0.2027352   -6.7065628  
C    7.3567688   -2.2945505   -5.7910791  
H    7.0912489   -5.1208793   -4.7991943  
H    8.2948735   -2.7354896   -6.0997164  
H    4.7239302   -5.4026126   -3.5924579  
H    3.4960803   -3.2191633   -3.6798201  
C    1.1319246    0.0015678   -0.8009268  
C    0.7969914    0.0034958   -2.1169401  
C   -0.6453340    0.0035696   -2.1842669  
C   -1.1266832    0.0015410   -0.7896025  
N    0.0000000    0.0000000    0.0000000  
C   -2.4346129    0.0013913   -0.4276292  
C   -3.4350111    0.0031335   -1.4820181  
O   -4.6384614    0.0030875   -1.2583914  
C   -2.9478961    0.0050442   -2.9661074  
O   -3.7809382    0.0062135   -3.8623773  
C   -1.5113825    0.0053055   -3.2312122  
H   -2.7664565    0.0000174    0.6013448  
H   -1.1823533    0.0068381   -4.2614848  
H    2.1104316    0.0009435   -0.3488059  
C    2.5528530    2.1414826    2.8079335  
C    2.0663498    1.7338582    4.0032312  
C    0.9804344    0.8229586    3.6752840  
C    0.9495562    0.7966882    2.1971295  
N    1.8690446    1.5676019    1.6831036  
C    0.0000000    0.0000000    1.4700000  
C   -0.8785127   -0.7372425    2.1869543  
O   -1.8187535   -1.5261249    1.6395491  
C   -0.8723269   -0.7321790    3.6796354  
O   -1.7010379   -1.4274584    4.2670412  
C    0.1115397    0.0933559    4.4024240  
H    2.4028853    2.0163452    4.9860947  
H   -2.2861435   -1.9184361    2.3990168  
H    0.0832434    0.0693689    5.4835595  
H    3.3664920    2.8238276    2.6198634  
