60

C    0.0000000    0.0000000    0.0000000  
C    1.0521665   -0.0011901   -0.8862342  
C    0.4917217   -0.0011956   -2.1979130  
C   -0.9187428    0.0003148   -2.0478683  
N   -1.1833173   -0.0009411   -0.7007911  
C   -1.7951703    0.0010349   -3.1372088  
C   -1.2375840    0.0005224   -4.4010424  
O   -2.0474220    0.0015359   -5.4997576  
C    0.1673578   -0.0013566   -4.5711965  
O    0.5673521   -0.0020688   -5.8915549  
C    1.0325768   -0.0023412   -3.4969890  
H    2.0953059   -0.0030648   -0.6200563  
H   -2.0989774    0.0102371   -0.2891826  
H   -1.4634888    0.0006496   -6.2693593  
H    1.5290706   -0.0033152   -5.9180048  
C    4.5245063   -2.0170289   -1.5964878  
C    3.2545758   -1.6337813   -1.8647753  
C    3.3688922   -0.7174411   -2.9889427  
C    4.8179316   -0.6615021   -3.2783206  
N    5.5003980   -1.4213292   -2.4653676  
C    5.3513386    0.1487209   -4.3385575  
C    4.4768685    0.8699633   -5.0764229  
O    4.8351495    1.6687173   -6.0960636  
C    3.0087047    0.8343262   -4.8092390  
O    2.2713501    1.5165248   -5.5206702  
C    2.4861699   -0.0045381   -3.7159922  
H    2.3517363   -1.9356975   -1.3619797  
H    6.4146760    0.1707454   -4.5276056  
H    3.9977792    2.0447143   -6.4225463  
H    4.8658291   -2.6947948   -0.8302594  
C   -3.2578657    0.0024038   -2.9908504  
C   -3.9809873    0.0031287   -1.8468775  
C   -5.3695598    0.0043913   -2.2808879  
C   -5.2983967    0.0043641   -3.7578846  
N   -4.0631144    0.0031209   -4.1798622  
C   -6.4794710    0.0054029   -4.5765110  
C   -7.6771921    0.0060337   -3.9481805  
O   -8.8597161    0.0070290   -4.5866776  
C   -7.7819058    0.0057081   -2.4591555  
O   -8.9049090    0.0064464   -1.9550880  
C   -6.5558062    0.0046821   -1.6414742  
H   -3.6170581    0.0027518   -0.8336493  
H   -6.3979230    0.0055641   -5.6536640  
H   -9.5255221    0.0072467   -3.8754427  
H   -6.6744111    0.0043601   -0.5662243  
C    1.0672568    0.0000697    2.3021913  
C    0.0000000    0.0000000    1.4700000  
C   -1.1601224    0.0000736    2.3478473  
C   -0.5938729    0.0000769    3.7138435  
N    0.7113367    0.0001554    3.6934124  
C   -1.4286986    0.0001879    4.8835240  
C   -2.7683114    0.0006799    4.6970523  
O   -3.6653903    0.0008304    5.6976972  
C   -3.3702025    0.0010610    3.3310774  
O   -4.5974910    0.0013779    3.2362962  
C   -2.4926826    0.0008943    2.1470656  
H   -0.9878360   -0.0000190    5.8697035  
H   -4.5324246    0.0012261    5.2533954  
H   -2.9677772    0.0012974    1.1752040  
H    2.1134392    0.0000545    2.0405121  
