58

C    1.1319245    0.0015678   -0.8009267  
C    0.7969910    0.0034958   -2.1169399  
C   -0.6453341    0.0035697   -2.1842670  
C   -1.1266835    0.0015411   -0.7896024  
N    0.0000000    0.0000000    0.0000000  
C   -2.4346131    0.0013918   -0.4276289  
C   -3.4350111    0.0031343   -1.4820175  
O   -4.6384613    0.0030887   -1.2583912  
C   -2.9478961    0.0050449   -2.9661070  
O   -3.7809384    0.0062147   -3.8623772  
C   -1.5113831    0.0053060   -3.2312120  
H   -2.7664565    0.0000180    0.6013454  
H   -1.1823539    0.0068384   -4.2614847  
H    2.1104313    0.0009432   -0.3488057  
C    4.6689256   -2.0036412   -3.0356157  
C    3.5435025   -1.6233429   -2.3872520  
C    2.8771267   -0.7061849   -3.2989891  
C    3.7631655   -0.6465941   -4.4813459  
N    4.8150682   -1.4051578   -4.3327803  
C    3.4517402    0.1654320   -5.6253365  
C    2.3069985    0.8849094   -5.5899294  
O    1.8922493    1.6850223   -6.5868466  
C    1.3918761    0.8455848   -4.4113009  
O    0.3669542    1.5263381   -4.4477807  
C    1.7334690    0.0049280   -3.2500365  
H    3.2070445   -1.9276896   -1.4109095  
H    1.0501682    2.0591464   -6.2704866  
H    5.4354486   -2.6809480   -2.6940436  
C    5.8808226   -2.8433025   -7.8415312  
C    5.0418108   -2.2869318   -6.9370475  
C    4.9977580   -0.8750642   -7.2851689  
C    5.8931625   -0.7516424   -8.4554689  
N    6.4136414   -1.9021506   -8.7862599  
C    6.1234220    0.5079322   -9.1078021  
C    5.4877550    1.5947347   -8.6137150  
O    5.6103592    2.8321942   -9.1233262  
C    4.5775772    1.5024196   -7.4342167  
O    4.0323533    2.5325573   -7.0382779  
C    4.3577341    0.1990345   -6.7824645  
H    4.5174886   -2.7744289   -6.1329897  
H    6.7830506    0.5690410   -9.9610704  
H    5.0412738    3.3890543   -8.5618975  
H    6.1786028   -3.8765468   -7.9234229  
C    0.8175213    0.6860729    2.3021913  
C    0.0000000    0.0000000    1.4700000  
C   -0.8887526   -0.7456559    2.3478473  
C   -0.4549825   -0.3816753    3.7138435  
N    0.5448156    0.4573574    3.6934124  
C   -1.0945674   -0.9182058    4.8835240  
C   -2.1210866   -1.7789155    4.6970523  
O   -2.8083856   -2.3554314    5.6976972  
C   -2.5824069   -2.1655116    3.3310774  
O   -3.5227682   -2.9541547    3.2362962  
C   -1.9100805   -1.6015804    2.1470656  
H   -0.7567140   -0.6349833    5.8697035  
H   -3.4728268   -2.9124471    5.2533954  
H   -2.2742832   -1.9066565    1.1752040  
H    1.6189533    1.3585343    2.0405121  
