58

C    0.0000000    0.0000000    0.0000000  
C    1.0541690   -0.0001720   -0.8560388  
C    0.5103143   -0.0000450   -2.1935956  
C   -0.9576364    0.0002460   -2.0455736  
N   -1.2018457   -0.0001391   -0.6915972  
C   -1.8348304    0.0008318   -3.0810614  
C   -1.2972842    0.0009740   -4.4314610  
O   -2.0050661    0.0014269   -5.4301325  
C    0.2542635    0.0004190   -4.6117575  
O    0.7184685    0.0002263   -5.7439121  
C    1.0974557    0.0000880   -3.4189128  
H    2.0940754   -0.0005479   -0.5817980  
H   -2.9081044    0.0011667   -2.9507069  
H   -2.1128195    0.0014909   -0.2706795  
C    4.5419742   -2.0086035   -1.4277087  
C    3.2788576   -1.6273097   -1.7289241  
C    3.4208773   -0.7114094   -2.8502879  
C    4.8768269   -0.6535599   -3.1021771  
N    5.5391402   -1.4119784   -2.2714351  
C    5.4362952    0.1568550   -4.1487474  
C    4.5801566    0.8764554   -4.9093636  
O    4.9635262    1.6751731   -5.9198676  
C    3.1056341    0.8388687   -4.6801665  
O    2.3859382    1.5196348   -5.4107936  
C    2.5562221   -0.0001544   -3.6003002  
H    2.3637602   -1.9302434   -1.2494410  
H    4.1343379    2.0498014   -6.2680824  
H    4.8643497   -2.6854718   -0.6525333  
C    7.7626277   -0.8436153   -4.3110997  
C    6.8894166    0.1887508   -4.3685664  
C    7.7021880    1.3495954   -4.6977207  
C    9.0793381    0.8219226   -4.8054397  
N    9.1209929   -0.4631418   -4.5799098  
C   10.1960034    1.6689308   -5.1228038  
C    9.9481093    2.9832661   -5.3238158  
O   10.8947241    3.8878703   -5.6265565  
C    8.5692354    3.5459509   -5.2225519  
O    8.4173275    4.7517548   -5.4179519  
C    7.4404344    2.6566211   -4.8957104  
H   11.1917848    1.2564613   -5.1949008  
H   10.4143724    4.7315090   -5.7083402  
H    6.4571555    3.1030586   -4.8317825  
H    7.5535407   -1.8789594   -4.0935699  
C    3.3321173   -0.0004715    2.8079335  
C    2.6974184   -0.0000116    4.0032312  
C    1.2800439    0.0002118    3.6752840  
C    1.2395035   -0.0000644    2.1971295  
N    2.4394063   -0.0005460    1.6831036  
C    0.0000000    0.0000000    1.4700000  
C   -1.1468701   -0.0000635    2.1869543  
O   -2.3742202   -0.0000073    1.6395491  
C   -1.1388768   -0.0001607    3.6796354  
O   -2.2206231   -0.0000905    4.2670412  
C    0.1454524   -0.0001816    4.4024240  
H    3.1367986    0.0000651    4.9860947  
H   -2.9844344   -0.0001026    2.3990168  
H    0.1083576   -0.0003682    5.4835595  
H    4.3940039   -0.0007619    2.6198634  
