58

C   -3.2573655    0.0009228   -1.5109407  
C   -2.5379463    0.0006624   -0.3591981  
C   -1.1435039    0.0001883   -0.7338508  
C   -1.1092587    0.0002232   -2.2088482  
N   -2.4227537    0.0002783   -2.6182629  
C    0.0265557    0.0002474   -2.9515659  
C    1.3003056    0.0000124   -2.2514965  
O    2.3786810   -0.0000472   -2.8306398  
C    1.2877724   -0.0002804   -0.6895594  
O    2.3539962   -0.0007864   -0.0892010  
C    0.0000000    0.0000000    0.0000000  
H   -2.9384092    0.0006057    0.6389212  
H    0.0296328    0.0004030   -4.0327229  
H   -2.7280457    0.0018691   -3.5742135  
C   -4.7161311    0.0014568   -1.6923295  
C   -5.6747628    0.0019952   -0.7370262  
C   -6.9326485    0.0023443   -1.4679324  
C   -6.5359766    0.0020474   -2.8924446  
N   -5.2378981    0.0014463   -3.0302140  
C   -7.5062977    0.0022144   -3.9524273  
C   -8.8134731    0.0022690   -3.6051117  
O   -9.8251208    0.0024295   -4.4897642  
C   -9.2455270    0.0021957   -2.1763044  
O  -10.4523068    0.0023758   -1.9336060  
C   -8.2310900    0.0020679   -1.1072659  
H   -5.5443950    0.0020476    0.3316557  
H  -10.6319735    0.0024033   -3.9437410  
H   -8.5850041    0.0019027   -0.0850261  
C   -4.2810953   -2.0108488   -6.2783869  
C   -5.0732499   -1.6288183   -5.2497355  
C   -6.0359226   -0.7106677   -5.8385995  
C   -5.6682542   -0.6524578   -7.2696882  
N   -4.6403622   -1.4126213   -7.5334675  
C   -6.3916642    0.1600138   -8.2086522  
C   -7.4351900    0.8812376   -7.7393698  
O   -8.1979717    1.6819574   -8.5029473  
C   -7.8311345    0.8433380   -6.3006366  
O   -8.7914101    1.5256529   -5.9435126  
C   -7.0732868    0.0021900   -5.3572054  
H   -5.0119448   -1.9326270   -4.2187082  
H   -6.1008777    0.1836702   -9.2487458  
H   -8.8549906    2.0573732   -7.8893167  
H   -3.4431790   -2.6893156   -6.2548842  
C    2.5528530    2.1414826    2.8079335  
C    2.0663498    1.7338582    4.0032312  
C    0.9804344    0.8229586    3.6752840  
C    0.9495562    0.7966882    2.1971295  
N    1.8690446    1.5676019    1.6831036  
C    0.0000000    0.0000000    1.4700000  
C   -0.8785127   -0.7372425    2.1869543  
O   -1.8187535   -1.5261249    1.6395491  
C   -0.8723269   -0.7321790    3.6796354  
O   -1.7010379   -1.4274584    4.2670412  
C    0.1115397    0.0933559    4.4024240  
H    2.4028853    2.0163452    4.9860947  
H   -2.2861435   -1.9184361    2.3990168  
H    0.0832434    0.0693689    5.4835595  
H    3.3664920    2.8238276    2.6198634  
