60

C    3.3003551    0.0005273   -1.4738980  
C    2.5232817    0.0003495   -2.6090742  
C    1.1623205   -0.0001322   -2.1820097  
C    1.1711885    0.0000583   -0.7636133  
N    2.4852300   -0.0014918   -0.3662348  
C    0.0000000    0.0000000    0.0000000  
C   -1.2020380    0.0000519   -0.6806476  
O   -2.3759248    0.0003494    0.0157746  
C   -1.2314652   -0.0005116   -2.0955505  
O   -2.5054382   -0.0008041   -2.6250180  
C   -0.0764512   -0.0007276   -2.8495190  
H    2.8919959   -0.0005621   -3.6205292  
H    2.8036266    0.0088182    0.5858668  
H   -3.0835635    0.0000347   -0.6418814  
H   -2.4360042   -0.0011531   -3.5845920  
H    4.3715554    0.0004892   -1.3667125  
C    0.6503163   -0.7058452   -5.1591991  
C   -0.1496408   -0.0015618   -4.3176954  
C   -1.0769611    0.7392926   -5.1399165  
C   -0.7493485    0.4064845   -6.5394519  
N    0.3066322   -0.4735904   -6.4823313  
C   -1.4003392    0.9048513   -7.6209079  
C   -2.4966963    1.8309946   -7.3911364  
O   -3.1448378    2.3343938   -8.2993228  
C   -2.8607656    2.1977437   -5.9171102  
O   -3.7817296    2.9766668   -5.7112824  
C   -2.0864145    1.5959452   -4.8344878  
H   -2.3449678    1.8549049   -3.8167383  
H    1.4621440   -1.3748332   -4.9240819  
H    0.7568416   -0.8854591   -7.2790263  
C   -0.2148054   -2.8973511   -9.5272641  
C   -0.5934636   -1.9402373   -8.6414740  
C   -0.7098497   -0.7051776   -9.3803353  
C   -0.3655163   -1.0235009  -10.7792270  
N   -0.0749236   -2.3681048  -10.8012629  
C   -0.3570576   -0.1216651  -11.7932903  
C   -0.7104712    1.2543688  -11.4864295  
O   -0.7322125    2.1405873  -12.3304940  
C   -1.0783533    1.6140403  -10.0116059  
O   -1.3772889    2.7693585   -9.7411659  
C   -1.0521078    0.5552085   -9.0056043  
H   -0.7708128   -2.0830746   -7.5903987  
H   -0.1015425   -0.3759323  -12.8125898  
H   -0.0259631   -3.9447610   -9.3564976  
H    0.1950177   -2.8856921  -11.6175245  
C    0.8175213    0.6860729    2.3021913  
C    0.0000000    0.0000000    1.4700000  
C   -0.8887526   -0.7456559    2.3478473  
C   -0.4549825   -0.3816753    3.7138435  
N    0.5448156    0.4573574    3.6934124  
C   -1.0945674   -0.9182058    4.8835240  
C   -2.1210866   -1.7789155    4.6970523  
O   -2.8083856   -2.3554314    5.6976972  
C   -2.5824069   -2.1655116    3.3310774  
O   -3.5227682   -2.9541547    3.2362962  
C   -1.9100805   -1.6015804    2.1470656  
H   -0.7567140   -0.6349833    5.8697035  
H   -3.4728268   -2.9124471    5.2533954  
H   -2.2742832   -1.9066565    1.1752040  
H    1.6189533    1.3585343    2.0405121  
