58

C    3.2798085    0.0005860   -1.4499651  
C    2.5571143    0.0005567   -2.5996556  
C    1.1637434    0.0001549   -2.2210364  
C    1.1336964   -0.0000200   -0.7459478  
N    2.4483514   -0.0001429   -0.3402727  
C    0.0000000    0.0000000    0.0000000  
C   -1.2757367   -0.0000187   -0.6964415  
O   -2.3524595   -0.0000640   -0.1142315  
C   -1.2676494   -0.0000873   -2.2584084  
O   -2.3355763   -0.0004100   -2.8557300  
C    0.0181558    0.0001762   -2.9516300  
H    0.0150789    0.0003323   -4.0331633  
H    4.3498548    0.0008612   -1.3200026  
H    2.7563628    0.0012823    0.6148057  
C    5.9736430   -2.1043578   -4.3829126  
C    5.8838288   -1.6403857   -5.6559948  
C    4.7509384   -0.7462248   -5.6992522  
C    4.1840556   -0.7271399   -4.3372427  
N    4.9705832   -1.5712077   -3.5877005  
C    3.1006054    0.0006265   -3.9654954  
C    2.4492220    0.8196160   -4.9742030  
O    1.4668594    1.5107652   -4.7384567  
C    3.0324358    0.8144458   -6.4232167  
O    2.4922726    1.4997919   -7.2809959  
C    4.2049271   -0.0107538   -6.7027918  
H    6.5365793   -1.8955555   -6.4717264  
H    4.6026943   -0.0086075   -7.7085253  
H    4.8377539   -1.7678910   -2.6126526  
C    9.4955390   -4.3662291   -5.9141302  
C    8.4200307   -3.5461425   -5.8659634  
C    7.9578596   -3.6142088   -4.4881888  
C    8.8950635   -4.5470521   -3.8263457  
N    9.7986751   -4.9910665   -4.6572042  
C    8.7758554   -4.8856231   -2.4348551  
C    7.7665064   -4.3177854   -1.7362072  
O    7.5368077   -4.5436163   -0.4314931  
C    6.8046447   -3.3722316   -2.3756693  
O    5.9100080   -2.8930548   -1.6790812  
C    6.9479578   -3.0408736   -3.8045106  
H    7.9931034   -2.9665265   -6.6664978  
H    9.4747374   -5.5704271   -1.9771232  
H    6.7552465   -4.0018120   -0.2199196  
H   10.1225018   -4.5901210   -6.7625196  
C    0.8175213    0.6860729    2.3021913  
C    0.0000000    0.0000000    1.4700000  
C   -0.8887526   -0.7456559    2.3478473  
C   -0.4549825   -0.3816753    3.7138435  
N    0.5448156    0.4573574    3.6934124  
C   -1.0945674   -0.9182058    4.8835240  
C   -2.1210866   -1.7789155    4.6970523  
O   -2.8083856   -2.3554314    5.6976972  
C   -2.5824069   -2.1655116    3.3310774  
O   -3.5227682   -2.9541547    3.2362962  
C   -1.9100805   -1.6015804    2.1470656  
H   -0.7567140   -0.6349833    5.8697035  
H   -3.4728268   -2.9124471    5.2533954  
H   -2.2742832   -1.9066565    1.1752040  
H    1.6189533    1.3585343    2.0405121  
