58

C    6.5698745   -0.0006426    0.9721612  
C    7.6069601   -0.0018566    0.1026609  
C    6.9912940   -0.0024303   -1.2154642  
C    5.5370520   -0.0015106   -0.9475762  
N    5.2839240   -0.0003802    0.3330154  
C    4.5679461   -0.0016854   -2.0086701  
C    5.0305956   -0.0023424   -3.2796101  
O    4.2398096   -0.0025846   -4.3662096  
C    6.4922745   -0.0029067   -3.5823559  
O    6.8417597   -0.0036170   -4.7626441  
C    7.4664605   -0.0027577   -2.4765142  
H    8.6597315   -0.0022169    0.3279341  
H    4.8556979   -0.0030409   -5.1210835  
H    8.5162194   -0.0030652   -2.7377356  
C    9.8069439   -0.0026827    4.0357897  
C    9.1722443   -0.0032803    2.8404922  
C    7.7548713   -0.0010648    3.1684378  
C    7.7143315    0.0006271    4.6465913  
N    8.9142341   -0.0002305    5.1606182  
C    6.4748298    0.0030992    5.3737193  
C    5.3279609    0.0042359    4.6567642  
O    4.1006121    0.0065331    5.2041676  
C    5.3359541    0.0029532    3.1640833  
O    4.2542087    0.0039767    2.5766768  
C    6.6202815    0.0003740    2.4412962  
H    9.6116238   -0.0049206    1.8576294  
H    6.4748302    0.0040891    6.4539550  
H    3.4903985    0.0068531    4.4446992  
H   10.8688302   -0.0038220    4.2238606  
C    3.1301149   -0.0010311   -1.7028252  
C    2.5367768   -0.0002767   -0.4864665  
C    1.1089904    0.0001028   -0.7656183  
C    1.0177872   -0.0004148   -2.2415132  
N    2.1993578   -0.0011611   -2.7963820  
C   -0.2459209   -0.0002877   -2.9257118  
C   -1.3675319   -0.0000605   -2.1698524  
O   -2.6129313    0.0000867   -2.6748490  
C   -1.3083584    0.0000910   -0.6783232  
O   -2.3693261    0.0004206   -0.0541692  
C    0.0000000    0.0000000    0.0000000  
H    3.0096017   -0.0001007    0.4807525  
H   -0.2829630   -0.0004687   -4.0053125  
H   -3.1967441    0.0002094   -1.8949034  
C    0.8175213    0.6860729    2.3021913  
C    0.0000000    0.0000000    1.4700000  
C   -0.8887526   -0.7456559    2.3478473  
C   -0.4549825   -0.3816753    3.7138435  
N    0.5448156    0.4573574    3.6934124  
C   -1.0945674   -0.9182058    4.8835240  
C   -2.1210866   -1.7789155    4.6970523  
O   -2.8083856   -2.3554314    5.6976972  
C   -2.5824069   -2.1655116    3.3310774  
O   -3.5227682   -2.9541547    3.2362962  
C   -1.9100805   -1.6015804    2.1470656  
H   -0.7567140   -0.6349833    5.8697035  
H   -3.4728268   -2.9124471    5.2533954  
H   -2.2742832   -1.9066565    1.1752040  
H    1.6189533    1.3585343    2.0405121  
