58

C   -3.2567594   -0.0629032   -1.5109386  
C   -2.5374724   -0.0490669   -0.3591963  
C   -1.1432883   -0.0222179   -0.7338497  
C   -1.1090517   -0.0215123   -2.2088474  
N   -2.4222962   -0.0471941   -2.6182611  
C    0.0265437    0.0007672   -2.9515658  
C    1.3000540    0.0254904   -2.2514976  
O    2.3782233    0.0465607   -2.8306421  
C    1.2875311    0.0249523   -0.6895607  
O    2.3535590    0.0453384   -0.0892030  
C    0.0000000    0.0000000    0.0000000  
H   -2.9378566   -0.0569703    0.6389241  
H    0.0296159    0.0009830   -4.0327230  
H   -4.3262340   -0.0834711   -1.6439444  
C   -2.8694636   -0.0536273   -4.0185828  
C   -4.1385451   -0.0770932   -4.4881141  
C   -4.0027197   -0.0723656   -5.9365717  
C   -2.5434658   -0.0441226   -6.1739824  
N   -1.8740185   -0.0331153   -5.0533986  
C   -1.9883658   -0.0316080   -7.4994234  
C   -2.8518018   -0.0470141   -8.5403726  
O   -2.4731635   -0.0379659   -9.8297881  
C   -4.3297854   -0.0759532   -8.3332799  
O   -5.0561688   -0.0886373   -9.3269733  
C   -4.8746037   -0.0882826   -6.9639934  
H   -5.0538095   -0.0954456   -3.9215175  
H   -3.3071171   -0.0535309  -10.3332081  
H   -5.9508139   -0.1094145   -6.8564989  
C    1.5142517   -1.9795883   -5.5496832  
C    0.2410323   -1.6217904   -5.8368644  
C    0.3539816   -0.6999284   -6.9566468  
C    1.8059083   -0.6132744   -7.2230742  
N    2.4911129   -1.3613063   -6.4015313  
C    2.3389982    0.2109385   -8.2726336  
C    1.4614752    0.9162128   -9.0222177  
O    1.8190998    1.7252287  -10.0339681  
C   -0.0096412    0.8495286   -8.7782280  
O   -0.7497016    1.5185138   -9.4993311  
C   -0.5317876   -0.0031942   -7.6955685  
H   -0.6631384   -1.9437512   -5.3491224  
H    3.4044821    0.2554366   -8.4448934  
H    0.9793559    2.0848652  -10.3725602  
H    1.8574642   -2.6524668   -4.7799996  
C    0.8175213    0.6860729    2.3021913  
C    0.0000000    0.0000000    1.4700000  
C   -0.8887526   -0.7456559    2.3478473  
C   -0.4549825   -0.3816753    3.7138435  
N    0.5448156    0.4573574    3.6934124  
C   -1.0945674   -0.9182058    4.8835240  
C   -2.1210866   -1.7789155    4.6970523  
O   -2.8083856   -2.3554314    5.6976972  
C   -2.5824069   -2.1655116    3.3310774  
O   -3.5227682   -2.9541547    3.2362962  
C   -1.9100805   -1.6015804    2.1470656  
H   -0.7567140   -0.6349833    5.8697035  
H   -3.4728268   -2.9124471    5.2533954  
H   -2.2742832   -1.9066565    1.1752040  
H    1.6189533    1.3585343    2.0405121  
