58

C    3.2798084    0.0005856   -1.4499646  
C    2.5571146    0.0005565   -2.5996554  
C    1.1637432    0.0001549   -2.2210359  
C    1.1336965   -0.0000200   -0.7459469  
N    2.4483512   -0.0001430   -0.3402718  
C    0.0000000    0.0000000    0.0000000  
C   -1.2757379   -0.0000186   -0.6964418  
O   -2.3524596   -0.0000639   -0.1142315  
C   -1.2676492   -0.0000872   -2.2584081  
O   -2.3355757   -0.0004100   -2.8557297  
C    0.0181563    0.0001760   -2.9516295  
H    2.9547353    0.0006075   -3.5989101  
H    0.0150791    0.0003320   -4.0331628  
H    2.7563624    0.0012823    0.6148064  
C    6.6317391   -0.0005811   -4.3241584  
C    5.4016591   -0.0005061   -3.7488512  
C    5.6054526    0.0003362   -2.3194101  
C    7.0655612    0.0007779   -2.1075767  
N    7.6303558   -0.0002120   -3.3621268  
C    7.6659171    0.0019860   -0.8904999  
C    6.8173806    0.0026870    0.2895510  
O    7.2622811    0.0037194    1.4298859  
C    5.2683490    0.0019842    0.0887900  
O    4.5438176    0.0022581    1.0748502  
C    4.7390846    0.0009613   -1.2727276  
H    4.4591041   -0.0011684   -4.2667345  
H    6.8927447   -0.0010918   -5.3699913  
H    8.6161411    0.0013557   -3.5499358  
C   10.0230404    0.7069860   -1.4445282  
C    9.1246829    0.0025768   -0.7091124  
C    9.8761019   -0.7386927    0.2761417  
C   11.2960467   -0.4059917    0.0528607  
N   11.3171579    0.4744240   -1.0041690  
C   12.3264244   -0.9047256    0.7817579  
C   12.0162185   -1.8311796    1.8578575  
O   12.8740090   -2.3349194    2.5711191  
C   10.5192887   -2.1978221    2.1119849  
O   10.2459280   -2.9770042    3.0149852  
C    9.4968680   -1.5956174    1.2600114  
H   13.3610089   -0.6476412    0.6016133  
H    8.4627748   -1.8545057    1.4426332  
H    9.8485885    1.3762647   -2.2712819  
H   12.1449694    0.8863151   -1.3941950  
C    0.8175213    0.6860729    2.3021913  
C    0.0000000    0.0000000    1.4700000  
C   -0.8887526   -0.7456559    2.3478473  
C   -0.4549825   -0.3816753    3.7138435  
N    0.5448156    0.4573574    3.6934124  
C   -1.0945674   -0.9182058    4.8835240  
C   -2.1210866   -1.7789155    4.6970523  
O   -2.8083856   -2.3554314    5.6976972  
C   -2.5824069   -2.1655116    3.3310774  
O   -3.5227682   -2.9541547    3.2362962  
C   -1.9100805   -1.6015804    2.1470656  
H   -0.7567140   -0.6349833    5.8697035  
H   -3.4728268   -2.9124471    5.2533954  
H   -2.2742832   -1.9066565    1.1752040  
H    1.6189533    1.3585343    2.0405121  
