58

C    0.5323420    0.5336368   -9.3560348  
C    1.5844180   -0.3100798   -9.2426415  
C    2.1961732   -0.3262707  -10.5624883  
C    1.3620616    0.5885616  -11.3711435  
N    0.3852434    1.0957114  -10.6692794  
C    1.6417605    0.8488430  -12.7564626  
C    2.7065701    0.2239269  -13.3087235  
O    3.0836230    0.3741313  -14.5898598  
C    3.5677436   -0.7047299  -12.5186992  
O    4.5204952   -1.2389136  -13.0862671  
C    3.2601354   -0.9553714  -11.0993748  
H    1.9057192   -0.8541803   -8.3709799  
H    1.0153081    1.5218538  -13.3234922  
H    3.8694216   -0.1938217  -14.6852693  
H    3.9082098   -1.6345661  -10.5618585  
C    0.2574167   -0.6856119   -5.1816675  
C   -0.8287665    0.0000939   -4.7555305  
C   -1.2821020    0.7456926   -5.9196052  
C   -0.3285015    0.3820838   -6.9896608  
N    0.5761657   -0.4566991   -6.5630339  
C   -0.4351974    0.9186760   -8.3184836  
C   -1.4487061    1.7790894   -8.5671268  
O   -1.6679604    2.3556225   -9.7611028  
C   -2.4274561    2.1653064   -7.5083328  
O   -3.3248661    2.9536923   -7.8055247  
C   -2.2967102    1.6013191   -6.1530657  
H   -2.4560485    2.9123845   -9.6266159  
H   -3.0259295    1.9061167   -5.4144400  
H    0.8824806   -1.3579200   -4.6157427  
C    1.0672569   -0.0000698   -0.8321910  
C    0.0000000    0.0000000    0.0000000  
C   -1.1601223   -0.0000736   -0.8778472  
C   -0.5938729   -0.0000768   -2.2438435  
N    0.7113367   -0.0001553   -2.2234123  
C   -1.4286985   -0.0001877   -3.4135239  
C   -2.7683113   -0.0006798   -3.2270524  
O   -3.6653902   -0.0008302   -4.2276970  
C   -3.3702024   -0.0010610   -1.8610774  
O   -4.5974910   -0.0013779   -1.7662963  
C   -2.4926825   -0.0008943   -0.6770658  
H   -4.5324245   -0.0012258   -3.7833954  
H   -2.9677772   -0.0012974    0.2947961  
H    2.1134391   -0.0000547   -0.5705119  
C    2.5528530    2.1414826    2.8079335  
C    2.0663498    1.7338582    4.0032312  
C    0.9804344    0.8229586    3.6752840  
C    0.9495562    0.7966882    2.1971295  
N    1.8690446    1.5676019    1.6831036  
C    0.0000000    0.0000000    1.4700000  
C   -0.8785127   -0.7372425    2.1869543  
O   -1.8187535   -1.5261249    1.6395491  
C   -0.8723269   -0.7321790    3.6796354  
O   -1.7010379   -1.4274584    4.2670412  
C    0.1115397    0.0933559    4.4024240  
H    2.4028853    2.0163452    4.9860947  
H   -2.2861435   -1.9184361    2.3990168  
H    0.0832434    0.0693689    5.4835595  
H    3.3664920    2.8238276    2.6198634  
