62

C    4.8697991    0.2266424   -1.4420373  
C    3.5582470    0.0403841   -1.8129917  
C    3.3083112    0.9143774   -2.9122042  
C    4.5146004    1.6147119   -3.1697381  
N    5.4416796    1.1746374   -2.2578847  
C    4.6353550    2.5633956   -4.1896432  
C    3.5180990    2.8093595   -4.9638648  
O    3.5807884    3.7257120   -5.9735093  
C    2.3054237    2.1210205   -4.7221527  
O    1.2838770    2.4773129   -5.5782141  
C    2.1854970    1.1851879   -3.7159913  
H    2.8664144   -0.6407382   -1.3477683  
H    5.5518744    3.1006769   -4.3909457  
H    2.7051617    3.7430790   -6.3812356  
H    0.5016448    1.9670191   -5.3473115  
H    5.4421698   -0.2406884   -0.6591247  
C    0.0000000    0.0000000    0.0000000  
C    0.9245702    0.5022222   -0.8862337  
C    0.4323963    0.2341484   -2.1979127  
C   -0.8069792   -0.4391711   -2.0478683  
N   -1.0387250   -0.5668243   -0.7007914  
C   -1.5769920   -0.8577465   -3.1372092  
C   -1.0870809   -0.5914946   -4.4010427  
O   -1.7987556   -0.9779617   -5.4997582  
C    0.1476214    0.0788598   -4.5711961  
O    0.4992325    0.2695580   -5.8915551  
C    0.9079177    0.4918422   -3.4969887  
H    1.8415395    0.9995248   -0.6200556  
H   -1.8481943   -0.9949818   -0.2891827  
H   -2.5223373   -1.3714927   -3.0295517  
H   -1.2855283   -0.6994360   -6.2693595  
H    1.3443993    0.7284674   -5.9180039  
C    6.8371007    1.6298904   -2.1776030  
C    7.7962462    1.2283175   -1.3113712  
C    8.9769752    1.9955480   -1.6770710  
C    8.5397540    2.8328485   -2.8147658  
N    7.2862888    2.6229067   -3.1126558  
C    9.4310928    3.7482731   -3.4724875  
C   10.7013631    3.8240833   -3.0142260  
O   11.6392981    4.6347499   -3.5330121  
C   11.1726658    2.9924323   -1.8677574  
O   12.3423569    3.1131470   -1.5037908  
C   10.2392818    2.0608722   -1.2097953  
H    7.7127945    0.5013178   -0.5216984  
H    9.0847503    4.3477914   -4.3016645  
H   12.4363457    4.4653459   -2.9989990  
H   10.6195143    1.4763102   -0.3827885  
C    0.0000000    0.0000000    1.4700000  
C    1.0662921    0.0000102    2.3034270  
C    0.4961870   -0.0000064    3.6418889  
C   -0.9663858    0.0000850    3.4240247  
N   -1.2632773    0.0000084    2.1528658  
C   -1.8985362    0.0000517    4.5177257  
C   -1.3925775   -0.0004564    5.7720543  
O   -2.1456383   -0.0005410    6.8851312  
C    0.0786232   -0.0009323    6.0245000  
O    0.4683759   -0.0012588    7.1921102  
C    1.0143166   -0.0008442    4.8859032  
H    2.1107198   -0.0000632    2.0421868  
H   -2.9622183    0.0003270    4.3293377  
H   -1.5042274   -0.0009692    7.6184419  
H    2.0724152   -0.0013148    5.1109744  
