58

C    4.3047788   -2.1086498   -1.2859241  
C    5.3774559   -1.6442160   -1.9771116  
C    4.8701586   -0.7486137   -2.9897227  
C    3.4034920   -0.7291860   -2.8306572  
N    3.1250159   -1.5744517   -1.7814350  
C    2.5562217   -0.0001543   -3.6003001  
C    3.1269051    0.8199330   -4.6559100  
O    2.4474939    1.5122577   -5.4024942  
C    4.6776933    0.8144235   -4.8425424  
O    5.1696079    1.5006855   -5.7281632  
C    5.4870227   -0.0121789   -3.9505975  
H    6.5600129   -0.0102596   -4.0862901  
H    4.2768475   -2.7963881   -0.4563907  
H    2.2064273   -1.7712340   -1.4285626  
C    7.3023641   -5.4533143   -0.9432661  
C    8.5941058   -5.0404140   -0.8726038  
C    8.6011317   -3.6271895   -1.1685486  
C    7.1975318   -3.2478785   -1.4191864  
N    6.4609002   -4.3999299   -1.2673953  
C    6.7841712   -1.9938173   -1.7325050  
C    7.7887529   -0.9479058   -1.8295550  
O    7.5169872    0.2130947   -2.1061824  
C    9.2813395   -1.3270733   -1.5683621  
O   10.1360270   -0.4550040   -1.6475183  
C    9.6038967   -2.7129928   -1.2381550  
H    9.4449496   -5.6556648   -0.6399163  
H   10.6396655   -2.9672533   -1.0585511  
H    6.8943589   -6.4385552   -0.7860345  
H    5.4651352   -4.4650124   -1.3735275  
C    0.0000000    0.0000000    0.0000000  
C    1.0541688   -0.0001719   -0.8560391  
C    0.5103141   -0.0000449   -2.1935955  
C   -0.9576367    0.0002461   -2.0455733  
N   -1.2018459   -0.0001392   -0.6915970  
C   -1.8348306    0.0008319   -3.0810611  
C   -1.2972842    0.0009739   -4.4314605  
O   -2.0050664    0.0014267   -5.4301321  
C    0.2542628    0.0004190   -4.6117571  
O    0.7184677    0.0002263   -5.7439119  
C    1.0974556    0.0000880   -3.4189127  
H    2.0940752   -0.0005479   -0.5817978  
H   -2.9081050    0.0011669   -2.9507065  
H   -2.1128195    0.0014911   -0.2706793  
C    3.1301144    0.0010313    3.1728260  
C    2.5367765    0.0002768    1.9564670  
C    1.1089900   -0.0001027    2.2356185  
C    1.0177864    0.0004150    3.7115134  
N    2.1993570    0.0011613    4.2663826  
C   -0.2459220    0.0002880    4.3957118  
C   -1.3675327    0.0000606    3.6398520  
O   -2.6129319   -0.0000866    4.1448486  
C   -1.3083589   -0.0000910    2.1483229  
O   -2.3693264   -0.0004206    1.5241687  
C    0.0000000    0.0000000    1.4700000  
H    3.0096015    0.0001008    0.9892483  
H   -0.2829642    0.0004689    5.4753125  
H   -3.1967446   -0.0002093    3.3649027  
H    4.1849273    0.0015113    3.3971983  
