60

C    3.3003540    0.0005278   -1.4738999  
C    2.5232804    0.0003503   -2.6090758  
C    1.1623192   -0.0001315   -2.1820108  
C    1.1711879    0.0000585   -0.7636151  
N    2.4852299   -0.0014918   -0.3662372  
C    0.0000000    0.0000000    0.0000000  
C   -1.2020386    0.0000521   -0.6806475  
O   -2.3759253    0.0003494    0.0157750  
C   -1.2314665   -0.0005112   -2.0955511  
O   -2.5054398   -0.0008035   -2.6250175  
C   -0.0764526   -0.0007268   -2.8495196  
H    2.8919941   -0.0005613   -3.6205317  
H    2.8036265    0.0088182    0.5858651  
H   -3.0835642    0.0000347   -0.6418815  
H   -2.4360056   -0.0011526   -3.5845916  
H    4.3715545    0.0004897   -1.3667156  
C    2.3339052   -2.1433058   -5.7798829  
C    1.7884015   -1.7364541   -6.9497019  
C    0.7199589   -0.8255796   -6.5686016  
C    0.7627093   -0.7984767   -5.0907582  
N    1.7068217   -1.5689200   -4.6227212  
C   -0.1496431   -0.0015606   -4.3176960  
C   -1.0629266    0.7351043   -4.9904313  
O   -1.9749220    1.5241144   -4.3973303  
C   -1.1310671    0.7291952   -6.4815657  
O   -1.9881511    1.4239803   -7.0273692  
C   -0.1842244   -0.0965584   -7.2519841  
H    2.0756462   -2.0194332   -7.9479450  
H   -2.4796327    1.9159033   -5.1328032  
H   -0.2663198   -0.0731902   -8.3303836  
C    4.8812291   -4.3958914   -8.5965173  
C    3.9424611   -3.5863786   -8.0420105  
C    4.1104130   -3.6662136   -6.6101398  
C    5.2320417   -4.5952337   -6.3742138  
N    5.6547547   -5.0024887   -7.6185401  
C    5.7026822   -4.9366928   -5.1479972  
C    5.0616148   -4.3502307   -3.9828238  
O    5.4123326   -4.5947829   -2.8358749  
C    3.8717131   -3.3639677   -4.2091528  
O    3.3239545   -2.8642168   -3.2357718  
C    3.4545839   -3.0730592   -5.5785425  
H    3.2151975   -3.0003547   -8.5751871  
H    6.5267614   -5.6200425   -4.9968748  
H    5.0729120   -4.6005269   -9.6373209  
H    6.4102552   -5.6403743   -7.7899086  
C    0.0000000    0.0000000    1.4700000  
C    1.0662921    0.0000102    2.3034270  
C    0.4961870   -0.0000064    3.6418889  
C   -0.9663858    0.0000850    3.4240247  
N   -1.2632773    0.0000084    2.1528658  
C   -1.8985362    0.0000517    4.5177257  
C   -1.3925775   -0.0004564    5.7720543  
O   -2.1456383   -0.0005410    6.8851312  
C    0.0786232   -0.0009323    6.0245000  
O    0.4683759   -0.0012588    7.1921102  
C    1.0143166   -0.0008442    4.8859032  
H    2.1107198   -0.0000632    2.0421868  
H   -2.9622183    0.0003270    4.3293377  
H   -1.5042274   -0.0009692    7.6184419  
H    2.0724152   -0.0013148    5.1109744  
