60

C    3.3003540    0.0005278   -1.4738998  
C    2.5232805    0.0003501   -2.6090759  
C    1.1623190   -0.0001315   -2.1820106  
C    1.1711880    0.0000584   -0.7636147  
N    2.4852300   -0.0014918   -0.3662366  
C    0.0000000    0.0000000    0.0000000  
C   -1.2020387    0.0000521   -0.6806476  
O   -2.3759253    0.0003495    0.0157752  
C   -1.2314666   -0.0005110   -2.0955505  
O   -2.5054395   -0.0008035   -2.6250174  
C   -0.0764524   -0.0007269   -2.8495195  
H    2.8919942   -0.0005615   -3.6205312  
H    2.8036265    0.0088181    0.5858650  
H   -3.0835639    0.0000348   -0.6418810  
H   -2.4360058   -0.0011523   -3.5845915  
C    2.2883719   -2.1096662   -5.8898021  
C    1.6780785   -1.6459096   -7.0107599  
C    0.6304124   -0.7505686   -6.5799517  
C    0.6807510   -0.7305563   -5.1055517  
N    1.7068931   -1.5752682   -4.7500473  
C   -0.1496428   -0.0015607   -4.3176960  
C   -1.1605715    0.8178678   -4.9650723  
O   -1.9555609    1.5101071   -4.3429008  
C   -1.2321959    0.8117318   -6.5254049  
O   -2.0793607    1.4974369   -7.0816254  
C   -0.2825957   -0.0147681   -7.2663563  
H    1.9326336   -1.9019639   -8.0238008  
H   -0.3386992   -0.0132848   -8.3464364  
H    3.1138588   -2.7970345   -5.8004389  
H    1.9910623   -1.7715746   -3.8078378  
C    6.7690591    0.0043654   -4.2725618  
C    5.4996697    0.0031007   -3.8032780  
C    5.6352790    0.0013801   -2.3547935  
C    7.0947600    0.0017605   -2.1170978  
N    7.7645131    0.0035889   -3.2375516  
C    7.6497398    0.0004311   -0.7915481  
C    6.7859644   -0.0008154    0.2492331  
O    7.1644559   -0.0021417    1.5387227  
C    5.3077380   -0.0008591    0.0418516  
O    4.5810518   -0.0021558    1.0354037  
C    4.7630502    0.0004759   -1.3275418  
H    4.5843327    0.0033998   -4.3700532  
H    8.7202887    0.0005392   -0.6472011  
H    6.3302587   -0.0027811    2.0419802  
H    7.0973373    0.0058210   -5.2997939  
C    0.8175213    0.6860729    2.3021913  
C    0.0000000    0.0000000    1.4700000  
C   -0.8887526   -0.7456559    2.3478473  
C   -0.4549825   -0.3816753    3.7138435  
N    0.5448156    0.4573574    3.6934124  
C   -1.0945674   -0.9182058    4.8835240  
C   -2.1210866   -1.7789155    4.6970523  
O   -2.8083856   -2.3554314    5.6976972  
C   -2.5824069   -2.1655116    3.3310774  
O   -3.5227682   -2.9541547    3.2362962  
C   -1.9100805   -1.6015804    2.1470656  
H   -0.7567140   -0.6349833    5.8697035  
H   -3.4728268   -2.9124471    5.2533954  
H   -2.2742832   -1.9066565    1.1752040  
H    1.6189533    1.3585343    2.0405121  
