60

C    3.3003540    0.0005278   -1.4738998  
C    2.5232805    0.0003501   -2.6090759  
C    1.1623190   -0.0001315   -2.1820106  
C    1.1711880    0.0000584   -0.7636147  
N    2.4852300   -0.0014918   -0.3662366  
C    0.0000000    0.0000000    0.0000000  
C   -1.2020387    0.0000521   -0.6806476  
O   -2.3759253    0.0003495    0.0157752  
C   -1.2314666   -0.0005110   -2.0955505  
O   -2.5054395   -0.0008035   -2.6250174  
C   -0.0764524   -0.0007269   -2.8495195  
H    2.8919942   -0.0005615   -3.6205312  
H    2.8036265    0.0088181    0.5858650  
H   -3.0835639    0.0000348   -0.6418810  
H   -2.4360058   -0.0011523   -3.5845915  
C    0.6778483   -0.7280270   -5.1604563  
C    0.3572077   -0.5121156   -6.4622425  
C   -0.7500370    0.4145353   -6.4749821  
C   -1.0503185    0.7230184   -5.0637911  
N   -0.1496428   -0.0015607   -4.3176960  
C   -2.0334675    1.5633983   -4.6528347  
C   -2.8505407    2.2068487   -5.6681665  
O   -3.7605432    2.9801058   -5.3993364  
C   -2.5503738    1.8945201   -7.1688848  
O   -3.2318486    2.4301022   -8.0325996  
C   -1.4639138    0.9716712   -7.4879563  
H    0.8409985   -0.9519512   -7.3161187  
H   -2.2371063    1.7761245   -3.6125519  
H   -1.2623918    0.7608739   -8.5294349  
H    1.4488967   -1.3568980   -4.7458544  
C    6.4260924    0.0030639   -4.5098927  
C    7.5522578    0.0028897   -3.7593396  
C    7.0848216    0.0018032   -2.3816593  
C    5.6099752    0.0015414   -2.4884905  
N    5.2179699    0.0021968   -3.7336095  
C    4.7630502    0.0004759   -1.3275418  
C    5.3622559   -0.0006824   -0.1149884  
O    4.6953715   -0.0017512    1.0517612  
C    6.8483155   -0.0008249    0.0256741  
O    7.3251007   -0.0017841    1.1605290  
C    7.6953849    0.0003261   -1.1803098  
H    8.5739837    0.0033413   -4.0986788  
H    5.3903106   -0.0024423    1.7345582  
H    8.7674555    0.0000667   -1.0357580  
H    6.3446815    0.0037702   -5.5852275  
C    0.8681109    0.7263879    2.2709268  
C    0.6127770    0.5096195    3.5869401  
C   -0.4920590   -0.4175482    3.6542670  
C   -0.8620974   -0.7254003    2.2596025  
N    0.0000000    0.0000000    1.4700000  
C   -1.8641242   -1.5660088    1.8976294  
C   -2.6293522   -2.2103885    2.9520183  
O   -3.5512764   -2.9839180    2.7283916  
C   -2.2549728   -1.8987399    4.4361073  
O   -2.8923672   -2.4351063    5.3323774  
C   -1.1543735   -0.9755647    4.7012123  
H    1.1382914    0.9492124    4.4159191  
H   -2.1192137   -1.7782617    0.8686553  
H   -0.9013378   -0.7652422    5.7314848  
H    1.6172880    1.3558399    1.8188057  
