58

C    3.2798084    0.0005857   -1.4499650  
C    2.5571145    0.0005565   -2.5996555  
C    1.1637431    0.0001547   -2.2210362  
C    1.1336964   -0.0000201   -0.7459470  
N    2.4483511   -0.0001428   -0.3402722  
C    0.0000000    0.0000000    0.0000000  
C   -1.2757364   -0.0000188   -0.6964414  
O   -2.3524599   -0.0000641   -0.1142312  
C   -1.2676496   -0.0000874   -2.2584080  
O   -2.3355771   -0.0004102   -2.8557293  
C    0.0181558    0.0001758   -2.9516296  
H    2.9547349    0.0006075   -3.5989105  
H    0.0150787    0.0003317   -4.0331627  
H    2.7563626    0.0012824    0.6148060  
C    6.5739154    0.0018722   -4.3537893  
C    7.6280843    0.0019471   -3.4977501  
C    7.0842295    0.0017738   -2.1601936  
C    5.6162782    0.0015612   -2.3082161  
N    5.3720695    0.0020316   -3.6621922  
C    4.7390846    0.0009614   -1.2727282  
C    5.2766310    0.0007201    0.0776712  
O    4.5688487    0.0002470    1.0763428  
C    6.8281781    0.0011908    0.2579680  
O    7.2923833    0.0012996    1.3901228  
C    7.6713711    0.0015461   -0.9348765  
H    8.6679906    0.0022879   -3.7719914  
H    6.5739152    0.0019307   -5.4316990  
H    4.4610961    0.0004681   -4.0831100  
C   10.0567490    0.6880703   -1.4619216  
C    9.1301375    0.0017085   -0.7534890  
C    9.8917139   -0.7440646    0.2366235  
C   11.3007445   -0.3798285   -0.0251954  
N   11.4037211    0.4594428   -1.0196848  
C   12.3826409   -0.9163839    0.7537109  
C   12.0710489   -1.7773616    1.7491819  
O   12.9793191   -2.3539324    2.5545709  
C   10.6586436   -2.1642198    2.0383382  
O   10.4486622   -2.9530999    2.9596399  
C    9.5665622   -1.6002573    1.2251784  
H   13.4029330   -0.6329711    0.5401907  
H   12.4565033   -2.9111575    3.1589850  
H    8.5572299   -1.9055286    1.4666082  
H    9.8958673    1.3606959   -2.2893667  
C    2.5528530    2.1414826    2.8079335  
C    2.0663498    1.7338582    4.0032312  
C    0.9804344    0.8229586    3.6752840  
C    0.9495562    0.7966882    2.1971295  
N    1.8690446    1.5676019    1.6831036  
C    0.0000000    0.0000000    1.4700000  
C   -0.8785127   -0.7372425    2.1869543  
O   -1.8187535   -1.5261249    1.6395491  
C   -0.8723269   -0.7321790    3.6796354  
O   -1.7010379   -1.4274584    4.2670412  
C    0.1115397    0.0933559    4.4024240  
H    2.4028853    2.0163452    4.9860947  
H   -2.2861435   -1.9184361    2.3990168  
H    0.0832434    0.0693689    5.4835595  
H    3.3664920    2.8238276    2.6198634  
