60

C    1.1243406    0.0100271   -0.7919009  
C    0.7474067    0.0234775   -2.1148547  
C   -0.6787391    0.0234277   -2.1414699  
C   -1.1201748    0.0098244   -0.7935551  
N    0.0000000    0.0000000    0.0000000  
C   -2.4730817    0.0062939   -0.4408239  
C   -3.3971961    0.0169924   -1.4675061  
O   -4.7313523    0.0144787   -1.1793462  
C   -2.9763663    0.0302582   -2.8186321  
O   -4.0166494    0.0393869   -3.7247617  
C   -1.6418577    0.0334749   -3.1673480  
H    1.4178701    0.0311413   -2.9571216  
H   -2.8160163   -0.0041987    0.5845971  
H   -5.1938826    0.0229252   -2.0274381  
H   -3.6464693    0.0481160   -4.6127338  
H    2.1062464    0.0053472   -0.3505415  
C   -0.1936615   -0.6738984   -5.1271222  
C   -0.0848611   -0.4442883   -6.4611075  
C   -1.1308009    0.4861604   -6.8148175  
C   -1.8631077    0.7819431   -5.5686114  
N   -1.2456351    0.0471339   -4.5828768  
C   -2.9257429    1.6215964   -5.4820504  
C   -3.3785490    2.2776124   -6.6974291  
O   -4.3267464    3.0512799   -6.7231432  
C   -2.6179578    1.9788537   -8.0286122  
O   -2.9902637    2.5250802   -9.0583145  
C   -1.4864951    1.0554967   -7.9961199  
H   -3.4487728    1.8249014   -4.5579205  
H   -0.9650934    0.8541393   -8.9220355  
H    0.4060201   -1.3093520   -4.4958769  
C    0.9123628   -1.0363468   -7.3643852  
C    1.9108680   -1.9120477   -7.0811705  
C    2.6027306   -2.1768272   -8.3205465  
C    1.9205765   -1.3778512   -9.3564489  
N    0.9050148   -0.7098540   -8.7120082  
C    2.2756638   -1.3527770  -10.6660253  
C    3.4049319   -2.1672195  -11.0831236  
O    3.8021188   -2.2127201  -12.2400475  
C    4.1419560   -3.0214878  -10.0029260  
O    5.0938901   -3.7113572  -10.3422832  
C    3.6667994   -2.9658700   -8.6227143  
H    2.1368297   -2.3254902   -6.1144128  
H    1.7619784   -0.7596095  -11.4097917  
H    4.1826840   -3.5601656   -7.8808246  
H    0.2593557   -0.0803894   -9.1524019  
C    0.8175213    0.6860729    2.3021913  
C    0.0000000    0.0000000    1.4700000  
C   -0.8887526   -0.7456559    2.3478473  
C   -0.4549825   -0.3816753    3.7138435  
N    0.5448156    0.4573574    3.6934124  
C   -1.0945674   -0.9182058    4.8835240  
C   -2.1210866   -1.7789155    4.6970523  
O   -2.8083856   -2.3554314    5.6976972  
C   -2.5824069   -2.1655116    3.3310774  
O   -3.5227682   -2.9541547    3.2362962  
C   -1.9100805   -1.6015804    2.1470656  
H   -0.7567140   -0.6349833    5.8697035  
H   -3.4728268   -2.9124471    5.2533954  
H   -2.2742832   -1.9066565    1.1752040  
H    1.6189533    1.3585343    2.0405121  
