58

C   -4.7161345    0.0009935   -1.6923229  
C   -5.6957082    0.0016034   -0.7518389  
C   -6.9559355    0.0017237   -1.4565820  
C   -6.6279105    0.0011005   -2.8950499  
N   -5.2541477    0.0010770   -2.9703220  
C   -7.5472459    0.0006151   -3.8933113  
C   -8.9536547    0.0009393   -3.5265020  
O   -9.8573594    0.0006108   -4.3521040  
C   -9.3240222    0.0018516   -2.0090593  
O  -10.5048043    0.0024379   -1.6881013  
C   -8.2443375    0.0020337   -1.0251223  
H   -5.5518795    0.0021138    0.3139595  
H   -7.2854533    0.0000315   -4.9422986  
H   -4.7240399   -0.0008468   -3.8223957  
C   -3.2573684    0.0006028   -1.5109361  
C   -2.5379475    0.0004131   -0.3591947  
C   -1.1435048    0.0000759   -0.7338492  
C   -1.1092620    0.0001140   -2.2088470  
N   -2.4227582    0.0000402   -2.6182595  
C    0.0265510    0.0002498   -2.9515662  
C    1.3003018    0.0001398   -2.2514987  
O    2.3786768    0.0001862   -2.8306439  
C    1.2877719   -0.0001540   -0.6895613  
O    2.3539954   -0.0005553   -0.0892049  
C    0.0000000    0.0000000    0.0000000  
H   -2.9384094    0.0003172    0.6389255  
H    0.0296270    0.0004056   -4.0327229  
H   -2.7280517    0.0016009   -3.5742098  
C   -8.0154188    0.6889793    1.4069186  
C   -8.6043394    0.0026151    0.4001139  
C   -9.6811182   -0.7426524    1.0338519  
C   -9.5950369   -0.3781516    2.4643463  
N   -8.6205614    0.4608267    2.6890746  
C  -10.5016750   -0.9141898    3.4419737  
C  -11.4513900   -1.7749257    3.0101072  
O  -12.3628993   -2.3510140    3.8121761  
C  -11.5641915   -2.1620408    1.5728946  
O  -12.4528171   -2.9506779    1.2509997  
C  -10.6222953   -1.5986089    0.5893805  
H  -10.4155841   -0.6305929    4.4807571  
H  -12.8983770   -2.9081749    3.2188903  
H  -10.7374424   -1.9040526   -0.4419658  
H   -7.1742111    1.3613002    1.3492279  
C    2.3971438    2.0127888    3.1728260  
C    1.9431056    1.6308205    1.9564670  
C    0.8496017    0.7127664    2.2356185  
C    0.7794028    0.6545384    3.7115134  
N    1.6840587    1.4146091    4.2663826  
C   -0.1885723   -0.1578550    4.3957118  
C   -1.0476298   -0.8789867    3.6398520  
O   -2.0015663   -1.6796266    4.1448486  
C   -1.0022026   -0.8410666    2.1483229  
O   -1.8147390   -1.5232959    1.5241687  
C    0.0000000    0.0000000    1.4700000  
H    2.3054237    1.9346118    0.9892483  
H   -0.2170646   -0.1815267    5.4753125  
H   -2.4487139   -2.0549881    3.3649027  
H    3.2048689    2.6911772    3.3971983  
