58

C   -1.1313486    0.0361426   -0.8009269  
C   -0.7966658    0.0230574   -2.1169401  
C    0.6448567   -0.0250666   -2.1842672  
C    1.1260065   -0.0390749   -0.7896029  
N    0.0000000    0.0000000    0.0000000  
C    2.4332152   -0.0824983   -0.4276294  
C    3.4330001   -0.1175673   -1.4820183  
O    4.6357835   -0.1576137   -1.2583919  
C    2.9460913   -0.1032490   -2.9661078  
O    3.7786321   -0.1321703   -3.8623777  
C    1.5103665   -0.0556537   -3.2312127  
H   -1.4814523    0.0448349   -2.9459193  
H    2.7649204   -0.0921803    0.6013445  
H   -2.1092919    0.0693649   -0.3488058  
C    1.0633367   -0.0428368   -4.6315339  
C   -0.2053118   -0.0021952   -5.1010638  
C   -0.0695520   -0.0083808   -6.5495224  
C    1.3891995   -0.0559537   -6.7869351  
N    2.0584250   -0.0764032   -5.6663519  
C    1.9440894   -0.0756186   -8.1123771  
C    1.0809129   -0.0493584   -9.1533250  
O    1.4593998   -0.0633017  -10.4427414  
C   -0.3965820   -0.0015983   -8.9462287  
O   -1.1227433    0.0204512   -9.9399207  
C   -0.9411905    0.0178408   -7.5769411  
H   -1.1202560    0.0281344   -4.5344661  
H    3.0141045   -0.1102692   -8.2565174  
H    0.6257063   -0.0372660  -10.9461594  
C   -3.5909135    2.2019998   -4.8011799  
C   -2.5150170    1.7037836   -5.4632242  
C   -3.0224377    0.8215087   -6.4874068  
C   -4.4926886    0.8467616   -6.3669290  
N   -4.7728618    1.7019035   -5.3261962  
C   -5.3411750    0.1424325   -7.1579384  
C   -4.7680856   -0.6966657   -8.1971771  
O   -5.4483342   -1.3694702   -8.9606532  
C   -3.2134592   -0.7388159   -8.3426606  
O   -2.7194583   -1.4418991   -9.2138080  
C   -2.4031587    0.0648588   -7.4308646  
H   -1.4836265    1.9285283   -5.2574644  
H   -6.4167285    0.1751608   -7.0529431  
H   -3.6197789    2.8922584   -3.9737747  
H   -5.6941319    1.9294048   -4.9997736  
C    2.3971438    2.0127888    3.1728260  
C    1.9431056    1.6308205    1.9564670  
C    0.8496017    0.7127664    2.2356185  
C    0.7794028    0.6545384    3.7115134  
N    1.6840587    1.4146091    4.2663826  
C   -0.1885723   -0.1578550    4.3957118  
C   -1.0476298   -0.8789867    3.6398520  
O   -2.0015663   -1.6796266    4.1448486  
C   -1.0022026   -0.8410666    2.1483229  
O   -1.8147390   -1.5232959    1.5241687  
C    0.0000000    0.0000000    1.4700000  
H    2.3054237    1.9346118    0.9892483  
H   -0.2170646   -0.1815267    5.4753125  
H   -2.4487139   -2.0549881    3.3649027  
H    3.2048689    2.6911772    3.3971983  
