58

C    3.9404948   -0.7293556   -4.5163115  
C    4.0976527   -0.5146864   -5.8479622  
C    3.0657856    0.4119867   -6.2496620  
C    2.2890370    0.7218361   -5.0341601  
N    2.8699640   -0.0020532   -4.0185825  
C    1.2244920    1.5626418   -4.9954966  
C    0.8163866    2.2051407   -6.2337135  
O   -0.1297731    2.9786848   -6.3023652  
C    1.6244750    1.8913596   -7.5330744  
O    1.2900273    2.4261317   -8.5816083  
C    2.7534400    0.9681704   -7.4493442  
H    0.6684828    1.7763748   -4.0932320  
H    3.3078881    0.7563649   -8.3534737  
H    4.5165357   -1.3578517   -3.8567213  
C    3.2573669   -0.0002920   -1.5109380  
C    2.5379466   -0.0001708   -0.3591961  
C    1.1435042    0.0000330   -0.7338502  
C    1.1092605   -0.0000086   -2.2088474  
N    2.4227561    0.0001905   -2.6182611  
C   -0.0265534   -0.0002528   -2.9515662  
C   -1.3003036   -0.0002642   -2.2514981  
O   -2.3786785   -0.0004138   -2.8306424  
C   -1.2877727    0.0000310   -0.6895608  
O   -2.3539955    0.0003305   -0.0892036  
C    0.0000000    0.0000000    0.0000000  
H    2.9384091   -0.0000368    0.6389240  
H   -0.0296294   -0.0004092   -4.0327231  
H    4.3270392   -0.0004765   -1.6439446  
C    5.9686935   -4.5435600   -6.2110393  
C    5.1840144   -3.5277381   -5.7821282  
C    5.5388537   -2.3974160   -6.6264982  
C    6.5816763   -2.9228037   -7.5337320  
N    6.8377831   -4.1803394   -7.2949808  
C    7.2015475   -2.1015450   -8.5369171  
C    6.7977107   -0.8140595   -8.6298204  
O    7.2901262    0.0646728   -9.5194253  
C    5.7472578   -0.2544435   -7.7289651  
O    5.4289161    0.9262400   -7.8699085  
C    5.1265464   -1.1170219   -6.7078869  
H    4.4544400   -3.5435334   -4.9905811  
H    7.9611924   -2.5116727   -9.1862598  
H    6.8093969    0.8932006   -9.3416769  
H    6.0077967   -5.5551075   -5.8392657  
C    2.5528530    2.1414826    2.8079335  
C    2.0663498    1.7338582    4.0032312  
C    0.9804344    0.8229586    3.6752840  
C    0.9495562    0.7966882    2.1971295  
N    1.8690446    1.5676019    1.6831036  
C    0.0000000    0.0000000    1.4700000  
C   -0.8785127   -0.7372425    2.1869543  
O   -1.8187535   -1.5261249    1.6395491  
C   -0.8723269   -0.7321790    3.6796354  
O   -1.7010379   -1.4274584    4.2670412  
C    0.1115397    0.0933559    4.4024240  
H    2.4028853    2.0163452    4.9860947  
H   -2.2861435   -1.9184361    2.3990168  
H    0.0832434    0.0693689    5.4835595  
H    3.3664920    2.8238276    2.6198634  
