64

C    5.9329386   -2.1252339   -4.5701444  
C    5.0131317   -1.6623126   -3.6579347  
C    4.1427217   -0.7751635   -4.3579009  
C    4.5839726   -0.7362133   -5.7053827  
N    5.6738273   -1.5656657   -5.7994102  
C    3.9561498    0.0394659   -6.6846422  
C    2.8627879    0.7892526   -6.2966248  
O    2.2121665    1.5642685   -7.2126250  
C    2.4077027    0.7638903   -4.9568224  
O    1.3079544    1.5648734   -4.7280803  
C    3.0267438   -0.0008951   -3.9901699  
H    4.9749619   -1.9301461   -2.6159169  
H    6.1938208   -1.7478107   -6.6387023  
H    4.2876439    0.0736084   -7.7133057  
H    1.4899369    1.9978186   -6.7396717  
H    1.0650888    1.4902880   -3.8001488  
C    7.4080676   -3.6564631   -3.2064120  
C    8.5114039   -4.4524811   -3.4100630  
C    8.8569589   -4.3401781   -4.7894033  
C    7.9211469   -3.4542521   -5.3821220  
N    7.0543389   -3.0591483   -4.3936108  
C    7.9585050   -3.1102516   -6.7367652  
C    8.9589657   -3.6705630   -7.5070287  
O    9.0419212   -3.3685055   -8.8355228  
C    9.9017236   -4.5569210   -6.9339730  
O   10.8357668   -5.0313190   -7.8316654  
C    9.8653095   -4.8969438   -5.5977147  
H    9.0056461   -5.0424716   -2.6573172  
H    7.2481245   -2.4357522   -7.1946005  
H    9.7995001   -3.8589154   -9.1802496  
H   11.4340113   -5.6223162   -7.3643020  
H   10.6008747   -5.5786941   -5.1870606  
H    6.8445843   -3.4686383   -2.3085440  
C    3.3003547    0.0005277   -1.4738986  
C    2.5232816    0.0003497   -2.6090746  
C    1.1623203   -0.0001319   -2.1820102  
C    1.1711884    0.0000584   -0.7636141  
N    2.4852301   -0.0014919   -0.3662359  
C    0.0000000    0.0000000    0.0000000  
C   -1.2020383    0.0000520   -0.6806479  
O   -2.3759248    0.0003493    0.0157745  
C   -1.2314655   -0.0005115   -2.0955511  
O   -2.5054388   -0.0008040   -2.6250184  
C   -0.0764513   -0.0007274   -2.8495195  
H    2.8036266    0.0088183    0.5858662  
H   -3.0835639    0.0000346   -0.6418822  
H   -2.4360043   -0.0011529   -3.5845924  
H   -0.1304091   -0.0013423   -3.9319089  
H    4.3715553    0.0004897   -1.3667133  
C    2.5528530    2.1414826    2.8079335  
C    2.0663498    1.7338582    4.0032312  
C    0.9804344    0.8229586    3.6752840  
C    0.9495562    0.7966882    2.1971295  
N    1.8690446    1.5676019    1.6831036  
C    0.0000000    0.0000000    1.4700000  
C   -0.8785127   -0.7372425    2.1869543  
O   -1.8187535   -1.5261249    1.6395491  
C   -0.8723269   -0.7321790    3.6796354  
O   -1.7010379   -1.4274584    4.2670412  
C    0.1115397    0.0933559    4.4024240  
H    2.4028853    2.0163452    4.9860947  
H   -2.2861435   -1.9184361    2.3990168  
H    0.0832434    0.0693689    5.4835595  
H    3.3664920    2.8238276    2.6198634  
