58

C    3.3321174    0.0004717   -1.3379335  
C    2.6974184    0.0000121   -2.5332312  
C    1.2800440   -0.0002115   -2.2052839  
C    1.2395035    0.0000645   -0.7271295  
N    2.4394064    0.0005461   -0.2131037  
C    0.0000000    0.0000000    0.0000000  
C   -1.1468696    0.0000636   -0.7169542  
O   -2.3742199    0.0000073   -0.1695491  
C   -1.1388768    0.0001610   -2.2096354  
O   -2.2206230    0.0000908   -2.7970413  
C    0.1454524    0.0001820   -2.9324241  
H    3.1367989   -0.0000646   -3.5160945  
H   -2.9844342    0.0001027   -0.9290167  
C    6.6781269    0.0000532   -4.1292979  
C    7.7444188    0.0009689   -3.2958712  
C    7.1743138    0.0014032   -1.9574093  
C    5.7117407    0.0007374   -2.1752734  
N    5.4148496   -0.0001358   -3.4464323  
C    4.7795904    0.0008677   -1.0815724  
C    5.2855490    0.0012392    0.1727563  
O    4.5324884    0.0014071    1.2858331  
C    6.7567497    0.0015424    0.4252021  
O    7.1465024    0.0019991    1.5928122  
C    7.6924433    0.0014451   -0.7133948  
H    8.7888466    0.0012176   -3.5571114  
H    5.1738998    0.0016451    2.0191439  
H    8.7505418    0.0015574   -0.4883235  
H    6.6781272   -0.0005120   -5.2077101  
C    0.8834475   -0.6856105   -5.2614098  
C    0.0950453    0.0004357   -4.4015596  
C   -0.8231754    0.7463701   -5.2482897  
C   -0.4365554    0.3825632   -6.6284180  
N    0.5632305   -0.4566160   -6.6424231  
C   -1.1157933    0.9193870   -7.7753885  
C   -2.1351865    1.7802113   -7.5536831  
O   -2.8563081    2.3569979   -8.5300748  
C   -2.5493380    2.1666375   -6.1726274  
O   -3.4857787    2.9553987   -6.0455245  
C   -1.8368906    1.6024060   -5.0124612  
H   -0.8119973    0.6362863   -8.7726206  
H   -3.5050402    2.9140321   -8.0631571  
H   -2.1675078    1.9073665   -4.0286311  
H    1.6932812   -1.3582316   -5.0274783  
C    0.0000000    0.0000000    1.4700000  
C    1.0541688    0.0001722    2.3260392  
C    0.5103138    0.0000454    3.6635956  
C   -0.9576371   -0.0002459    3.5155732  
N   -1.2018458    0.0001392    2.1615969  
C   -1.8348311   -0.0008317    4.5510609  
C   -1.2972847   -0.0009736    5.9014604  
O   -2.0050672   -0.0014265    6.9001319  
C    0.2542623   -0.0004184    6.0817573  
O    0.7184670   -0.0002256    7.2139121  
C    1.0974552   -0.0000873    4.8889129  
H    2.0940752    0.0005483    2.0517982  
H   -2.9081052   -0.0011668    4.4207061  
H    2.1707277    0.0000911    5.0223670  
H   -2.1128194   -0.0014912    1.7406791  
