62

C    1.1188643    0.0008226   -0.8003809  
C    0.0000000    0.0000000    0.0000000  
C   -1.1323862    0.0008893   -0.8673527  
C   -0.6382661    0.0019674   -2.1969282  
N    0.7324019    0.0038481   -2.1202243  
C   -1.4770916    0.0027306   -3.3154811  
C   -2.8395474    0.0020924   -3.0876858  
O   -3.7039196    0.0024401   -4.1440351  
C   -3.3517873    0.0013913   -1.7684329  
O   -4.7300492    0.0012340   -1.7073128  
C   -2.5248542    0.0009110   -0.6644820  
H   -1.1067564    0.0036975   -4.3313811  
H   -4.5940030    0.0021801   -3.7685135  
H   -4.9934603    0.0007236   -0.7819913  
H   -2.9462576    0.0005588    0.3339653  
H    2.1619897    0.0009363   -0.5342071  
C    4.5426446   -2.1280460   -2.8244673  
C    4.7840764   -1.6433654   -4.0890868  
C    3.7027654   -0.7718616   -4.4144297  
C    2.8248674   -0.7639989   -3.3003566  
N    3.3636328   -1.5993764   -2.3535230  
C    1.6478436   -0.0100096   -3.2703001  
C    1.3518117    0.7501216   -4.3850837  
O    0.2151945    1.5054722   -4.4087633  
C    2.2150333    0.7551145   -5.5065294  
O    1.7815966    1.5622772   -6.5380165  
C    3.3762254    0.0113188   -5.5369822  
H    2.9665981   -1.7854927   -1.4503587  
H    0.2007685    1.9502728   -5.2662070  
H    2.4205812    1.5086862   -7.2552545  
H    4.0176563    0.0350491   -6.4101841  
H    5.1174447   -2.8101409   -2.2217151  
C    5.9450624   -1.9783883   -4.9262080  
C    6.9760211   -2.8034839   -4.6296951  
C    7.8338412   -2.7689284   -5.8041952  
C    7.1504695   -1.8481544   -6.7378772  
N    6.0427829   -1.3815445   -6.2286687  
C    7.6884315   -1.5421483   -8.0348130  
C    8.8562039   -2.1290049   -8.3830150  
O    9.4720983   -1.9340516   -9.5614497  
C    9.5700971   -3.0625033   -7.4626360  
O   10.6286668   -3.5605169   -7.8455636  
C    8.9978876   -3.3604298   -6.1375926  
H    7.1348264   -3.3660098   -3.7255816  
H    7.1676847   -0.8658360   -8.6968808  
H   10.2756855   -2.4829089   -9.5150211  
H    9.5457536   -4.0416263   -5.5003769  
C    0.8175213    0.6860729    2.3021913  
C    0.0000000    0.0000000    1.4700000  
C   -0.8887526   -0.7456559    2.3478473  
C   -0.4549825   -0.3816753    3.7138435  
N    0.5448156    0.4573574    3.6934124  
C   -1.0945674   -0.9182058    4.8835240  
C   -2.1210866   -1.7789155    4.6970523  
O   -2.8083856   -2.3554314    5.6976972  
C   -2.5824069   -2.1655116    3.3310774  
O   -3.5227682   -2.9541547    3.2362962  
C   -1.9100805   -1.6015804    2.1470656  
H   -0.7567140   -0.6349833    5.8697035  
H   -3.4728268   -2.9124471    5.2533954  
H   -2.2742832   -1.9066565    1.1752040  
H    1.6189533    1.3585343    2.0405121  
