62

C    3.3003558    0.0005277   -1.4738965  
C    2.5232833    0.0003499   -2.6090730  
C    1.1623222   -0.0001318   -2.1820092  
C    1.1711891    0.0000584   -0.7636132  
N    2.4852306   -0.0014919   -0.3662342  
C    0.0000000    0.0000000    0.0000000  
C   -1.2020379    0.0000521   -0.6806485  
O   -2.3759245    0.0003495    0.0157732  
C   -1.2314636   -0.0005111   -2.0955515  
O   -2.5054372   -0.0008035   -2.6250194  
C   -0.0764493   -0.0007270   -2.8495195  
H    2.8919983   -0.0005617   -3.6205280  
H    2.8036262    0.0088181    0.5858683  
H   -3.0835632    0.0000348   -0.6418837  
H   -2.4360019   -0.0011525   -3.5845935  
H   -0.1304067   -0.0013419   -3.9319088  
C    6.5582239    0.0029729   -4.4647435  
C    7.6103908    0.0023861   -3.5785091  
C    7.0499451    0.0016139   -2.2668308  
C    5.6394797    0.0014822   -2.4168767  
N    5.3749078    0.0042717   -3.7639519  
C    4.7630518    0.0004756   -1.3275370  
C    5.3206374   -0.0007212   -0.0637039  
O    4.5107978   -0.0020884    1.0350105  
C    6.7255798   -0.0002355    0.1064516  
O    7.1255739   -0.0011496    1.4268105  
C    7.5908002    0.0010306   -0.9677543  
H    8.6535308    0.0036057   -3.8446851  
H    4.4592377   -0.0057078   -4.1755712  
H    5.0947313   -0.0024569    1.8046121  
H    8.0872931   -0.0007698    1.4532610  
H    6.5582248    0.0040135   -5.5412935  
C    9.9612243    0.7075331   -1.4596368  
C    9.0443948    0.0017445   -0.7487495  
C    9.7703493   -0.7408343    0.2544464  
C   11.1954831   -0.4073981    0.0684246  
N   11.2436091    0.4746503   -0.9863570  
C   12.2068487   -0.9069698    0.8229261  
C   11.8692447   -1.8351655    1.8892335  
O   12.7084861   -2.3397666    2.6236394  
C   10.3663664   -2.2026118    2.1040512  
O   10.0700214   -2.9832591    2.9984949  
C    9.3661023   -1.5993778    1.2268787  
H   13.2456597   -0.6493229    0.6699570  
H    8.3277181   -1.8588323    1.3823339  
H    9.8079716    1.3780363   -2.2895939  
H   12.0810888    0.8873698   -1.3542400  
C    0.0000000    0.0000000    1.4700000  
C    1.0662921    0.0000102    2.3034270  
C    0.4961870   -0.0000064    3.6418889  
C   -0.9663858    0.0000850    3.4240247  
N   -1.2632773    0.0000084    2.1528658  
C   -1.8985362    0.0000517    4.5177257  
C   -1.3925775   -0.0004564    5.7720543  
O   -2.1456383   -0.0005410    6.8851312  
C    0.0786232   -0.0009323    6.0245000  
O    0.4683759   -0.0012588    7.1921102  
C    1.0143166   -0.0008442    4.8859032  
H    2.1107198   -0.0000632    2.0421868  
H   -2.9622183    0.0003270    4.3293377  
H   -1.5042274   -0.0009692    7.6184419  
H    2.0724152   -0.0013148    5.1109744  
