64

C    3.3003552    0.0005277   -1.4738975  
C    2.5232823    0.0003499   -2.6090738  
C    1.1623209   -0.0001317   -2.1820098  
C    1.1711889    0.0000585   -0.7636139  
N    2.4852303   -0.0014919   -0.3662348  
C    0.0000000    0.0000000    0.0000000  
C   -1.2020380    0.0000521   -0.6806489  
O   -2.3759250    0.0003494    0.0157737  
C   -1.2314649   -0.0005110   -2.0955512  
O   -2.5054378   -0.0008035   -2.6250191  
C   -0.0764505   -0.0007270   -2.8495197  
H    2.8036265    0.0088180    0.5858674  
H   -3.0835637    0.0000348   -0.6418826  
H   -2.4360035   -0.0011524   -3.5845931  
H   -0.1304079   -0.0013417   -3.9319086  
H    4.3715557    0.0004894   -1.3667119  
C    5.9339406   -2.1239628   -4.5697786  
C    5.0139160   -1.6613190   -3.6576479  
C    4.1430878   -0.7747004   -4.3577668  
C    4.5843202   -0.7357737   -5.7052550  
N    5.6745662   -1.5647286   -5.7991402  
C    3.9561325    0.0394410   -6.6846482  
C    2.8624174    0.7887790   -6.2967603  
O    2.2114302    1.5633307   -7.2128923  
C    2.4073436    0.7634327   -4.9569529  
O    1.3072178    1.5639368   -4.7283487  
C    3.0267451   -0.0008949   -3.9901692  
H    4.9758723   -1.9289913   -2.6155839  
H    6.1946456   -1.7467726   -6.6384015  
H    1.4889968    1.9966214   -6.7400143  
H    1.0643876    1.4893958   -3.8004040  
H    6.7555171   -2.8075029   -4.4403766  
C    4.8500958   -0.9897875   -8.8172531  
C    4.4067695    0.0858293   -8.0831023  
C    4.4739149    1.2276801   -8.9353158  
C    4.9695993    0.7835872  -10.1879151  
N    5.1894192   -0.5673095  -10.0812630  
C    5.1653729    1.6444644  -11.2720519  
C    4.8548166    2.9778889  -11.0884445  
O    5.0266300    3.8618703  -12.1141501  
C    4.3594559    3.4402040   -9.8459881  
O    4.0976587    4.7945269   -9.8211771  
C    4.1663273    2.5915400   -8.7759425  
H    5.5315539   -1.1594366  -10.8163213  
H    5.5429778    1.3122646  -12.2292668  
H    4.7543946    4.7258609  -11.7784820  
H    3.7670936    5.0244465   -8.9474110  
H    3.7856474    2.9746527   -7.8363758  
H    4.9524517   -2.0246546   -8.5388067  
C    0.8175213    0.6860729    2.3021913  
C    0.0000000    0.0000000    1.4700000  
C   -0.8887526   -0.7456559    2.3478473  
C   -0.4549825   -0.3816753    3.7138435  
N    0.5448156    0.4573574    3.6934124  
C   -1.0945674   -0.9182058    4.8835240  
C   -2.1210866   -1.7789155    4.6970523  
O   -2.8083856   -2.3554314    5.6976972  
C   -2.5824069   -2.1655116    3.3310774  
O   -3.5227682   -2.9541547    3.2362962  
C   -1.9100805   -1.6015804    2.1470656  
H   -0.7567140   -0.6349833    5.8697035  
H   -3.4728268   -2.9124471    5.2533954  
H   -2.2742832   -1.9066565    1.1752040  
H    1.6189533    1.3585343    2.0405121  
