58

C    4.8833646    0.1895904   -7.9802429  
C    5.9634920   -0.4770877   -8.4497601  
C    6.0707055   -0.0816790   -9.8457026  
C    4.9442173    0.8528882  -10.0559233  
N    4.2447168    1.0158825   -8.9659134  
C    4.6993638    1.4755031  -11.3277263  
C    5.5418134    1.1783079  -12.3432489  
O    5.4321179    1.6863581  -13.5825604  
C    6.6879518    0.2392487  -12.1624267  
O    7.4141580    0.0146586  -13.1306231  
C    6.9180681   -0.3866642  -10.8481944  
H    6.6079536   -1.1535595   -7.9148479  
H    3.8684912    2.1543701  -11.4530265  
H    6.1711367    1.2907261  -14.0790278  
H    7.7591530   -1.0609944  -10.7582780  
C    6.1812373   -2.0122605   -4.4510963  
C    5.2702187   -1.6303461   -3.5260204  
C    4.3856200   -0.7126510   -4.2273195  
C    4.9238565   -0.6545500   -5.6033682  
N    5.9763881   -1.4143797   -5.7405736  
C    4.3191902    0.1574946   -6.6231959  
C    3.2262690    0.8784138   -6.2838837  
O    2.5612864    1.6787220   -7.1343809  
C    2.6590319    0.8406141   -4.9036753  
O    1.6623422    1.5226360   -4.6656073  
C    3.2973506   -0.0000934   -3.8752374  
H    5.2063283   -1.9339562   -2.4950917  
H    1.8346675    2.0540005   -6.6049052  
H    7.0103754   -2.6904142   -4.3261564  
C    3.3321174    0.0004714   -1.3379332  
C    2.6974186    0.0000115   -2.5332308  
C    1.2800441   -0.0002119   -2.2052838  
C    1.2395035    0.0000643   -0.7271293  
N    2.4394063    0.0005458   -0.2131034  
C    0.0000000    0.0000000    0.0000000  
C   -1.1468701    0.0000634   -0.7169542  
O   -2.3742201    0.0000072   -0.1695492  
C   -1.1388767    0.0001606   -2.2096354  
O   -2.2206229    0.0000903   -2.7970413  
C    0.1454526    0.0001815   -2.9324239  
H   -2.9844344    0.0001023   -0.9290168  
H    0.1083580    0.0003680   -4.0135594  
H    4.3940040    0.0007617   -1.1498630  
C    2.3971438    2.0127888    3.1728260  
C    1.9431056    1.6308205    1.9564670  
C    0.8496017    0.7127664    2.2356185  
C    0.7794028    0.6545384    3.7115134  
N    1.6840587    1.4146091    4.2663826  
C   -0.1885723   -0.1578550    4.3957118  
C   -1.0476298   -0.8789867    3.6398520  
O   -2.0015663   -1.6796266    4.1448486  
C   -1.0022026   -0.8410666    2.1483229  
O   -1.8147390   -1.5232959    1.5241687  
C    0.0000000    0.0000000    1.4700000  
H    2.3054237    1.9346118    0.9892483  
H   -0.2170646   -0.1815267    5.4753125  
H   -2.4487139   -2.0549881    3.3649027  
H    3.2048689    2.6911772    3.3971983  
