64

C    2.3027750   -2.1230394   -5.9144743  
C    1.6515182   -1.6244167   -7.0188784  
C    0.6310522   -0.7498916   -6.5409088  
C    0.7085809   -0.7546405   -5.1246134  
N    1.7328874   -1.6001003   -4.7773242  
C   -0.1496415   -0.0015615   -4.3176961  
C   -1.1033074    0.7706085   -4.9520869  
O   -1.9667112    1.5256558   -4.2121874  
C   -1.1966333    0.7882861   -6.3641049  
O   -2.1980387    1.6065087   -6.8447736  
C   -0.3504839    0.0453976   -7.1607688  
H    1.8827173   -1.8626514   -8.0429797  
H    2.0305491   -1.7962858   -3.8387665  
H   -2.5411493    1.9798215   -4.8422822  
H   -2.1929078    1.5610739   -7.8057695  
H   -0.4460588    0.0789897   -8.2397570  
C    3.4292971   -3.0630302   -5.8235581  
C    4.1378844   -3.6959877   -6.8184131  
C    5.1278133   -4.4989587   -6.1781956  
C    4.9734315   -4.3141297   -4.7803651  
N    3.9347087   -3.4348904   -4.5997821  
C    5.7838990   -4.9553114   -3.8386551  
C    6.7679467   -5.7986708   -4.3167475  
O    7.5872242   -6.4503226   -3.4408776  
C    6.9378250   -5.9957236   -5.7078367  
O    7.9610247   -6.8650147   -6.0252276  
C    6.1388195   -5.3633012   -6.6374377  
H    3.9635235   -3.5909349   -7.8755582  
H    3.5871548   -3.1217988   -3.7114344  
H    5.6714377   -4.8185572   -2.7719530  
H    8.1934796   -6.9790417   -3.9758322  
H    8.0082951   -6.9423661   -6.9830304  
H    6.2927846   -5.5337131   -7.6965562  
C    3.3003543    0.0005276   -1.4738987  
C    2.5232814    0.0003497   -2.6090747  
C    1.1623200   -0.0001320   -2.1820103  
C    1.1711883    0.0000582   -0.7636140  
N    2.4852300   -0.0014919   -0.3662360  
C    0.0000000    0.0000000    0.0000000  
C   -1.2020384    0.0000519   -0.6806477  
O   -2.3759249    0.0003493    0.0157743  
C   -1.2314656   -0.0005115   -2.0955510  
O   -2.5054392   -0.0008039   -2.6250180  
C   -0.0764516   -0.0007274   -2.8495195  
H    2.8919955   -0.0005620   -3.6205304  
H    2.8036267    0.0088183    0.5858662  
H   -3.0835638    0.0000347   -0.6418818  
H   -2.4360047   -0.0011529   -3.5845921  
H    4.3715549    0.0004895   -1.3667136  
C    0.8175213    0.6860729    2.3021913  
C    0.0000000    0.0000000    1.4700000  
C   -0.8887526   -0.7456559    2.3478473  
C   -0.4549825   -0.3816753    3.7138435  
N    0.5448156    0.4573574    3.6934124  
C   -1.0945674   -0.9182058    4.8835240  
C   -2.1210866   -1.7789155    4.6970523  
O   -2.8083856   -2.3554314    5.6976972  
C   -2.5824069   -2.1655116    3.3310774  
O   -3.5227682   -2.9541547    3.2362962  
C   -1.9100805   -1.6015804    2.1470656  
H   -0.7567140   -0.6349833    5.8697035  
H   -3.4728268   -2.9124471    5.2533954  
H   -2.2742832   -1.9066565    1.1752040  
H    1.6189533    1.3585343    2.0405121  
