58

C   -3.2797450    0.0205751   -1.4499629  
C   -2.5570669    0.0159416   -2.5996540  
C   -1.1637221    0.0073536   -2.2210353  
C   -1.1336735    0.0073344   -0.7459465  
N   -2.4482997    0.0159391   -0.3402709  
C    0.0000000    0.0000000    0.0000000  
C    1.2757100   -0.0082120   -0.6964427  
O    2.3524103   -0.0151136   -0.1142329  
C    1.2676212   -0.0080911   -2.2584092  
O    2.3355287   -0.0146583   -2.8557313  
C   -0.0181585   -0.0000586   -2.9516297  
H   -2.9546801    0.0184560   -3.5989086  
H   -0.0150837   -0.0002343   -4.0331631  
H   -2.7563136    0.0165011    0.6148077  
C   -6.6316000    0.0433678   -4.3241550  
C   -5.4015458    0.0353565   -3.7488484  
C   -5.6053400    0.0358290   -2.3194069  
C   -7.0654206    0.0448077   -2.1075730  
N   -7.6301978    0.0494415   -3.3621230  
C   -7.6657713    0.0474727   -0.8904960  
C   -6.8172562    0.0412971    0.2895547  
O   -7.2621535    0.0431351    1.4298896  
C   -5.2682524    0.0320060    0.0887927  
O   -4.5437376    0.0270575    1.0748525  
C   -4.7389932    0.0296143   -1.2727253  
H   -4.4590065    0.0299377   -4.2667323  
H   -8.7386510    0.0539603   -0.7570877  
H   -6.8925978    0.0455625   -5.3699876  
C   -9.7419838   -0.6261227   -4.5962610  
C   -9.0742081    0.0564616   -3.6372333  
C  -10.0992813    0.8068376   -2.9282485  
C  -11.3616954    0.4491228   -3.6101099  
N  -11.1585447   -0.3906013   -4.5886714  
C  -12.6278160    0.9916192   -3.2005699  
C  -12.6326190    1.8520481   -2.1570311  
O  -13.7414298    2.4337509   -1.6689730  
C  -11.3752728    2.2323949   -1.4481033  
O  -11.4543666    3.0211440   -0.5063816  
C  -10.0890779    1.6624100   -1.8871324  
H  -13.5346911    0.7129056   -3.7171024  
H  -13.4266571    2.9890396   -0.9329532  
H   -9.2010944    1.9630612   -1.3473894  
H   -9.3381741   -1.3003099   -5.3347615  
C    0.8175213    0.6860729    2.3021913  
C    0.0000000    0.0000000    1.4700000  
C   -0.8887526   -0.7456559    2.3478473  
C   -0.4549825   -0.3816753    3.7138435  
N    0.5448156    0.4573574    3.6934124  
C   -1.0945674   -0.9182058    4.8835240  
C   -2.1210866   -1.7789155    4.6970523  
O   -2.8083856   -2.3554314    5.6976972  
C   -2.5824069   -2.1655116    3.3310774  
O   -3.5227682   -2.9541547    3.2362962  
C   -1.9100805   -1.6015804    2.1470656  
H   -0.7567140   -0.6349833    5.8697035  
H   -3.4728268   -2.9124471    5.2533954  
H   -2.2742832   -1.9066565    1.1752040  
H    1.6189533    1.3585343    2.0405121  
