58

C    3.2573672   -0.0002917   -1.5109378  
C    2.5379470   -0.0001709   -0.3591962  
C    1.1435042    0.0000332   -0.7338496  
C    1.1092607   -0.0000081   -2.2088474  
N    2.4227563    0.0001910   -2.6182606  
C   -0.0265531   -0.0002524   -2.9515660  
C   -1.3003036   -0.0002638   -2.2514978  
O   -2.3786786   -0.0004132   -2.8306429  
C   -1.2877725    0.0000312   -0.6895605  
O   -2.3539955    0.0003308   -0.0892036  
C    0.0000000    0.0000000    0.0000000  
H    2.9384092   -0.0000367    0.6389238  
H   -0.0296287   -0.0004085   -4.0327227  
H    4.3270397   -0.0004763   -1.6439438  
C    5.7040776   -2.1117454   -4.6322106  
C    5.5266124   -1.6490479   -5.8965255  
C    4.3947082   -0.7532601   -5.8619875  
C    3.9239255   -0.7318315   -4.4638835  
N    4.7594836   -1.5762333   -3.7698247  
C    2.8699644   -0.0020524   -4.0185821  
C    2.1511682    0.8167848   -4.9805454  
O    1.1885422    1.5096471   -4.6779000  
C    2.6322123    0.8091504   -6.4665948  
O    2.0346741    1.4943468   -7.2855670  
C    3.7812713   -0.0180914   -6.8260208  
H    4.1081499   -0.0176452   -7.8569790  
H    6.4453145   -2.7990533   -4.2579576  
H    4.6944966   -1.7716426   -2.7876646  
C    7.2096828   -5.4836922   -7.1007997  
C    7.8445375   -5.1668560   -8.2532550  
C    7.6072344   -3.7428120   -8.4329373  
C    6.7893163   -3.3509841   -7.2650057  
N    6.5531343   -4.3672667   -6.4805461  
C    6.3386557   -2.0003802   -7.0704302  
C    6.6894851   -1.0828380   -8.0001450  
O    6.3385924    0.2132745   -7.9453027  
C    7.5144537   -1.4471603   -9.1896218  
O    7.7961789   -0.5605141   -9.9956682  
C    7.9644501   -2.8392950   -9.3667923  
H    8.4047634   -5.8189420   -8.9013340  
H    6.7341195    0.6111406   -8.7418038  
H    8.5603715   -3.0624309  -10.2416172  
H    7.1479541   -6.4468796   -6.6197250  
C    0.8175213    0.6860729    2.3021913  
C    0.0000000    0.0000000    1.4700000  
C   -0.8887526   -0.7456559    2.3478473  
C   -0.4549825   -0.3816753    3.7138435  
N    0.5448156    0.4573574    3.6934124  
C   -1.0945674   -0.9182058    4.8835240  
C   -2.1210866   -1.7789155    4.6970523  
O   -2.8083856   -2.3554314    5.6976972  
C   -2.5824069   -2.1655116    3.3310774  
O   -3.5227682   -2.9541547    3.2362962  
C   -1.9100805   -1.6015804    2.1470656  
H   -0.7567140   -0.6349833    5.8697035  
H   -3.4728268   -2.9124471    5.2533954  
H   -2.2742832   -1.9066565    1.1752040  
H    1.6189533    1.3585343    2.0405121  
