62

C    1.1243402    0.0100689   -0.7919007  
C    0.7474053    0.0235052   -2.1148548  
C   -0.6787403    0.0234026   -2.1414698  
C   -1.1201753    0.0097828   -0.7935546  
N    0.0000000    0.0000000    0.0000000  
C   -2.4730829    0.0062023   -0.4408232  
C   -3.3971971    0.0168662   -1.4675058  
O   -4.7313532    0.0143033   -1.1793458  
C   -2.9763678    0.0301476   -2.8186313  
O   -4.0166516    0.0392378   -3.7247615  
C   -1.6418599    0.0334139   -3.1673478  
H   -2.8160155   -0.0043031    0.5845969  
H   -5.1938842    0.0227325   -2.0274367  
H   -3.6464717    0.0479802   -4.6127334  
H   -1.3497512    0.0434945   -4.2109229  
H    2.1062459    0.0054255   -0.3505413  
C    4.5591040   -2.0908367   -2.8627791  
C    4.8002487   -1.5799956   -4.1171146  
C    3.7183613   -0.7026895   -4.4244489  
C    2.8404238   -0.7184132   -3.3104903  
N    3.3797220   -1.5727930   -2.3810763  
C    1.6628917    0.0340035   -3.2649306  
C    1.3663827    0.8167827   -4.3638010  
O    0.2292580    1.5716967   -4.3719361  
C    2.2296355    0.8455015   -5.4848660  
O    1.7956875    1.6734903   -6.4994928  
C    3.3913290    0.1032736   -5.5306120  
H    2.9827848   -1.7777778   -1.4819636  
H    0.2145592    2.0340902   -5.2200169  
H    2.4347302    1.6351441   -7.2176555  
H    4.0327708    0.1454529   -6.4031093  
H    5.1343445   -2.7848405   -2.2742080  
C    6.8335116   -5.3756484   -4.7852170  
C    7.8127358   -5.0257003   -5.6513782  
C    7.6323019   -3.5979422   -5.8645680  
C    6.4670443   -3.2404222   -5.0273462  
N    5.9945991   -4.2783999   -4.3922185  
C    5.9614858   -1.8968882   -4.9609203  
C    6.5916215   -0.9533296   -5.6971001  
O    6.2273668    0.3398257   -5.7303916  
C    7.7703903   -1.2827463   -6.5515870  
O    8.2944878   -0.3736406   -7.1950699  
C    8.2700025   -2.6682726   -6.6028648  
H    8.5646916   -5.6582909   -6.0912273  
H    6.8612821    0.7603898   -6.3390204  
H    9.1262287   -2.8657832   -7.2338138  
H    6.6261104   -6.3517824   -4.3764131  
C    2.5528530    2.1414826    2.8079335  
C    2.0663498    1.7338582    4.0032312  
C    0.9804344    0.8229586    3.6752840  
C    0.9495562    0.7966882    2.1971295  
N    1.8690446    1.5676019    1.6831036  
C    0.0000000    0.0000000    1.4700000  
C   -0.8785127   -0.7372425    2.1869543  
O   -1.8187535   -1.5261249    1.6395491  
C   -0.8723269   -0.7321790    3.6796354  
O   -1.7010379   -1.4274584    4.2670412  
C    0.1115397    0.0933559    4.4024240  
H    2.4028853    2.0163452    4.9860947  
H   -2.2861435   -1.9184361    2.3990168  
H    0.0832434    0.0693689    5.4835595  
H    3.3664920    2.8238276    2.6198634  
