58

C   -3.2798029    0.0063919   -1.4499639  
C   -2.5571108    0.0048836   -2.5996547  
C   -1.1637416    0.0023210   -2.2210357  
C   -1.1336939    0.0024319   -0.7459466  
N   -2.4483458    0.0053516   -0.3402715  
C    0.0000000    0.0000000    0.0000000  
C    1.2757346   -0.0026954   -0.6964421  
O    2.3524543   -0.0049407   -0.1142321  
C    1.2676459   -0.0026095   -2.2584085  
O    2.3355707   -0.0045586   -2.8557302  
C   -0.0181573   -0.0001372   -2.9516295  
H   -2.9547309    0.0056785   -3.5989099  
H   -0.0150808   -0.0002997   -4.0331627  
H   -2.7563593    0.0045817    0.6148069  
C   -5.6938737    0.0108177   -2.2318610  
C   -4.7390768    0.0091207   -1.2727267  
C   -5.4706431    0.0104355   -0.0152260  
C   -6.8949440    0.0130857   -0.4126470  
N   -7.0320304    0.0132408   -1.7107983  
C   -7.9554355    0.0149724    0.5571164  
C   -7.6088093    0.0138557    1.8644737  
O   -8.4939924    0.0153761    2.8756557  
C   -6.1802327    0.0108136    2.2972787  
O   -5.9381702    0.0100655    3.5041863  
C   -5.1106619    0.0089649    1.2834049  
H   -7.9483958    0.0139753    3.6827956  
H   -4.0886110    0.0066589    1.6378569  
H   -5.5602417    0.0105648   -3.3019615  
C   -9.8893087   -2.1217724   -2.7112093  
C  -11.1741314   -1.7116399   -2.5989467  
C  -11.1794052   -0.8010477   -1.4643570  
C   -9.7761264   -0.7776814   -0.9986896  
N   -9.0151996   -1.5498954   -1.7257833  
C   -9.3599822    0.0178700    0.1233660  
C  -10.3027779    0.7568000    0.7514211  
O  -10.0556227    1.5448970    1.8115430  
C  -11.7271812    0.7546768    0.3050663  
O  -12.5315841    1.4513729    0.9237509  
C  -12.1291107   -0.0697405   -0.8484993  
H  -12.0144884   -1.9922948   -3.2105895  
H  -10.9184116    1.9388510    2.0341386  
H  -13.1704089   -0.0436136   -1.1404648  
H   -9.4708826   -2.8047421   -3.4333208  
C    2.5528530    2.1414826    2.8079335  
C    2.0663498    1.7338582    4.0032312  
C    0.9804344    0.8229586    3.6752840  
C    0.9495562    0.7966882    2.1971295  
N    1.8690446    1.5676019    1.6831036  
C    0.0000000    0.0000000    1.4700000  
C   -0.8785127   -0.7372425    2.1869543  
O   -1.8187535   -1.5261249    1.6395491  
C   -0.8723269   -0.7321790    3.6796354  
O   -1.7010379   -1.4274584    4.2670412  
C    0.1115397    0.0933559    4.4024240  
H    2.4028853    2.0163452    4.9860947  
H   -2.2861435   -1.9184361    2.3990168  
H    0.0832434    0.0693689    5.4835595  
H    3.3664920    2.8238276    2.6198634  
