64

C    2.3136490   -2.1180447   -5.9171365  
C    1.6624061   -1.6181598   -7.0209770  
C    0.6419646   -0.7441450   -6.5420229  
C    0.7194932   -0.7504916   -5.1257338  
N    1.7437762   -1.5963711   -4.7793969  
C   -0.1387079    0.0017019   -4.3179684  
C   -1.0923523    0.7746129   -4.9514888  
O   -1.9557347    1.5288503   -4.2107391  
C   -1.1856778    0.7938838   -6.3634861  
O   -2.1870601    1.6126755   -6.8432324  
C   -0.3395493    0.0518696   -7.1609864  
H    1.8935984   -1.8552471   -8.0453467  
H    2.0414324   -1.7936221   -3.8410614  
H   -2.5301601    1.9837417   -4.8403222  
H   -2.1819306    1.5683232   -7.8042790  
H   -0.4351233    0.0866799   -8.2399366  
C    4.0661114   -3.6488687   -6.8999339  
C    5.0627197   -4.4795805   -6.4425978  
C    5.0507361   -4.3994415   -5.0185071  
C    4.0164983   -3.4969162   -4.6611170  
N    3.4401445   -3.0581688   -5.8272790  
C    3.7177124   -3.1764928   -3.3333957  
C    4.4766115   -3.7783556   -2.3485045  
O    4.2270815   -3.5012838   -1.0355004  
C    5.5130583   -4.6812723   -2.6851587  
O    6.1779429   -5.1969239   -1.5918265  
C    5.8085511   -4.9976353   -3.9947864  
H    5.7184854   -5.0697716   -7.0595569  
H    2.9308510   -2.4893058   -3.0544221  
H    4.8610589   -4.0186410   -0.5220039  
H    6.8612255   -5.7967116   -1.9064437  
H    6.6084406   -5.6926476   -4.2219712  
H    3.7532070   -3.4298867   -7.9064616  
C    3.3041273    0.0001178   -1.5420428  
C    2.5845373   -0.0004780   -0.3695851  
C    1.2040007   -0.0000007   -0.7283589  
C    1.1422374    0.0006038   -2.1454372  
N    2.4348641    0.0026111   -2.6077464  
C   -0.0655179    0.0008799   -2.8497918  
C   -1.2321766    0.0002325   -2.1101402  
O   -2.4392814    0.0001148   -2.7472522  
C   -1.1911209   -0.0000007   -0.6955266  
O   -2.4371528   -0.0002320   -0.1032862  
C    0.0000000    0.0000000    0.0000000  
H    3.0031533   -0.0000660    0.6222584  
H    2.7054631   -0.0071097   -3.5745261  
H   -3.1132988   -0.0000648   -2.0551787  
H   -2.3200282   -0.0004072    0.8516409  
H    4.3686625    0.0004073   -1.7024290  
C    0.8175213    0.6860729    2.3021913  
C    0.0000000    0.0000000    1.4700000  
C   -0.8887526   -0.7456559    2.3478473  
C   -0.4549825   -0.3816753    3.7138435  
N    0.5448156    0.4573574    3.6934124  
C   -1.0945674   -0.9182058    4.8835240  
C   -2.1210866   -1.7789155    4.6970523  
O   -2.8083856   -2.3554314    5.6976972  
C   -2.5824069   -2.1655116    3.3310774  
O   -3.5227682   -2.9541547    3.2362962  
C   -1.9100805   -1.6015804    2.1470656  
H   -0.7567140   -0.6349833    5.8697035  
H   -3.4728268   -2.9124471    5.2533954  
H   -2.2742832   -1.9066565    1.1752040  
H    1.6189533    1.3585343    2.0405121  
