60

C   -1.1161981    0.1354435   -0.7919011  
C   -0.7441679    0.0733656   -2.1148550  
C    0.6700108   -0.1109971   -2.1414706  
C    1.1094998   -0.1545893   -0.7935551  
N    0.0000000    0.0000000    0.0000000  
C    2.4515050   -0.3260304   -0.4408249  
C    3.3664775   -0.4561343   -1.4675063  
O    4.6897574   -0.6261590   -1.1793473  
C    2.9474649   -0.4148716   -2.8186330  
O    3.9778337   -0.5584406   -3.7247629  
C    1.6237441   -0.2454987   -3.1673488  
H   -1.4099939    0.1524629   -2.9571211  
H    2.7929174   -0.3599703    0.5845955  
H    5.1473126   -0.6943433   -2.0274392  
H    3.6096329   -0.5192289   -4.6127349  
H   -2.0892548    0.2670523   -0.3505407  
C    1.2290815   -0.2078080   -4.5828772  
C   -0.0069890   -0.0516188   -5.1230711  
C    0.1530310   -0.0866173   -6.5576454  
C    1.5939785   -0.2773961   -6.8107563  
N    2.1906524   -0.3427887   -5.5727768  
C    2.1532295   -0.3629890   -8.0442944  
C    1.2775393   -0.2601401   -9.1997704  
O    1.6849788   -0.3249993  -10.3521965  
C   -0.2518360   -0.0576403   -8.9552088  
O   -0.9988798    0.0306170   -9.9202980  
C   -0.7364171    0.0193411   -7.5793066  
H   -0.9259636    0.0739784   -4.5787136  
H   -1.7967243    0.1594390   -7.4185425  
H    3.1730258   -0.4710556   -5.4129719  
C    5.3645159   -2.7936074   -6.1353223  
C    4.1533217   -2.2527175   -6.4036982  
C    4.3802526   -1.3679041   -7.5360000  
C    5.8234336   -1.5008324   -7.8295012  
N    6.4056560   -2.3352797   -7.0117578  
C    6.4525958   -0.7745310   -8.8980177  
C    5.6752765    0.0469186   -9.6398600  
O    6.1294374    0.7846620  -10.6672419  
C    4.2156559    0.2022527   -9.3686789  
O    3.5694015    0.9675973  -10.0840972  
C    3.5937185   -0.5535765   -8.2669344  
H    3.2210172   -2.4320889   -5.8960467  
H    7.5092755   -0.8907519   -9.0899282  
H    5.3460815    1.2623519  -10.9948380  
H    5.6187836   -3.5032640   -5.3641487  
C    0.8175213    0.6860729    2.3021913  
C    0.0000000    0.0000000    1.4700000  
C   -0.8887526   -0.7456559    2.3478473  
C   -0.4549825   -0.3816753    3.7138435  
N    0.5448156    0.4573574    3.6934124  
C   -1.0945674   -0.9182058    4.8835240  
C   -2.1210866   -1.7789155    4.6970523  
O   -2.8083856   -2.3554314    5.6976972  
C   -2.5824069   -2.1655116    3.3310774  
O   -3.5227682   -2.9541547    3.2362962  
C   -1.9100805   -1.6015804    2.1470656  
H   -0.7567140   -0.6349833    5.8697035  
H   -3.4728268   -2.9124471    5.2533954  
H   -2.2742832   -1.9066565    1.1752040  
H    1.6189533    1.3585343    2.0405121  
