60

C    0.0000000    0.0000000    0.0000000  
C    1.0541694   -0.0001722   -0.8560390  
C    0.5103145   -0.0000453   -2.1935954  
C   -0.9576361    0.0002459   -2.0455733  
N   -1.2018454   -0.0001391   -0.6915972  
C   -1.8348300    0.0008318   -3.0810613  
C   -1.2972833    0.0009738   -4.4314609  
O   -2.0050656    0.0014267   -5.4301325  
C    0.2542637    0.0004186   -4.6117574  
O    0.7184688    0.0002259   -5.7439120  
C    1.0974565    0.0000875   -3.4189127  
H    2.0940755   -0.0005483   -0.5817978  
H   -2.1128189    0.0014912   -0.2706798  
C   -4.4297970    2.1087668   -0.2339415  
C   -5.6380112    1.6447701   -0.6450383  
C   -5.3911858    0.7496342   -1.7507709  
C   -3.9296533    0.7300037   -1.9515867  
N   -3.4052338    1.5747186   -1.0006238  
C   -3.2941062    0.0012875   -2.9038250  
C   -4.1035790   -0.8182216   -3.7902190  
O   -3.6253046   -1.5102280   -4.6794218  
C   -5.6534073   -0.8124881   -3.5957863  
O   -6.3452671   -1.4982645   -4.3362606  
C   -6.2225088    0.0137341   -2.5340276  
H   -6.5931605    1.9005368   -0.2220880  
H   -7.2964256    0.0119729   -2.4058689  
H   -4.2016942    2.7960862    0.5644640  
H   -2.4284968    1.7712467   -0.8805879  
C    2.5562225   -0.0001551   -3.6002997  
C    3.5148529   -0.0005086   -2.6449951  
C    4.7727394   -0.0006028   -3.3758996  
C    4.3760697   -0.0003760   -4.8004125  
N    3.0779911   -0.0000323   -4.9381833  
C    5.3463920   -0.0003432   -5.8603939  
C    6.6535667   -0.0001398   -5.5130767  
O    7.6652156   -0.0000935   -6.3977280  
C    7.0856185    0.0000105   -4.0842686  
O    8.2923979    0.0000692   -3.8415688  
C    6.0711808   -0.0000703   -3.0152316  
H    3.3844839   -0.0005937   -1.5763137  
H    5.0281934   -0.0003822   -6.8927016  
H    8.4720676    0.0000899   -5.8517039  
H    6.4250933    0.0001590   -1.9929912  
C    1.1243417   -0.0099156    2.2619005  
C    0.7474090   -0.0234034    3.5848544  
C   -0.6787367   -0.0234952    3.6114698  
C   -1.1201739   -0.0099357    2.2635546  
N    0.0000000    0.0000000    1.4700000  
C   -2.4730812   -0.0065396    1.9108239  
C   -3.3971947   -0.0173298    2.9375057  
O   -4.7313508   -0.0149487    2.6493466  
C   -2.9763630   -0.0305536    4.2886322  
O   -4.0166453   -0.0397858    5.1947621  
C   -1.6418541   -0.0336380    4.6373480  
H    1.4178735   -0.0310004    4.4271209  
H   -2.8160170    0.0039190    0.8854031  
H   -5.1938803   -0.0234410    3.4974381  
H   -3.6464643   -0.0484781    6.0827341  
H   -1.3497443   -0.0436789    5.6809233  
H    2.1062470   -0.0051382    1.8205408  
