64

C    2.3020056   -2.1258164   -5.9826648  
C    1.8093619   -1.6631472   -4.7844546  
C    0.7354062   -0.7757529   -5.0906404  
C    0.6179773   -0.7364002   -6.5036468  
N    1.5853771   -1.5658594   -7.0142853  
C   -0.3411005    0.0396027   -7.1615059  
C   -1.1974273    0.7893054   -6.3786729  
O   -2.1529117    1.5646263   -6.9693846  
C   -1.0957281    0.7635435   -4.9673575  
O   -2.0198644    1.5644922   -4.3287676  
C   -0.1496415   -0.0015615   -4.3176961  
H    2.1793384   -1.9313020   -3.8096709  
H    1.7380675   -1.7477618   -7.9897736  
H   -0.4356787    0.0740527   -8.2381070  
H   -2.6343338    1.9980538   -6.2526986  
H   -1.8828076    1.4896276   -3.3794446  
C    5.0957046   -4.3576318   -3.2986546  
C    4.0998498   -3.5438521   -3.7870238  
C    4.1449417   -3.6385268   -5.2095579  
C    5.1972973   -4.5324983   -5.5340409  
N    5.7548702   -4.9491545   -4.3507715  
C    5.5292926   -4.8635370   -6.8512281  
C    4.7851926   -4.2817496   -7.8592042  
O    5.0666470   -4.5704278   -9.1632216  
C    3.7315614   -3.3870662   -7.5555264  
O    3.0853181   -2.8909797   -8.6689054  
C    3.4036594   -3.0598227   -6.2563273  
H    3.4247524   -2.9536446   -3.1912963  
H    6.5170821   -5.5969261   -4.2647146  
H    6.3302866   -5.5440707   -7.1051661  
H    4.4384689   -4.0659432   -9.6962815  
H    2.3885712   -2.2956501   -8.3761063  
H    5.3888824   -4.5618082   -2.2831164  
C    3.3003543    0.0005276   -1.4738987  
C    2.5232814    0.0003497   -2.6090747  
C    1.1623200   -0.0001320   -2.1820103  
C    1.1711883    0.0000582   -0.7636140  
N    2.4852300   -0.0014919   -0.3662360  
C    0.0000000    0.0000000    0.0000000  
C   -1.2020384    0.0000519   -0.6806477  
O   -2.3759249    0.0003493    0.0157743  
C   -1.2314656   -0.0005115   -2.0955510  
O   -2.5054392   -0.0008039   -2.6250180  
C   -0.0764516   -0.0007274   -2.8495195  
H    2.8919955   -0.0005620   -3.6205304  
H    2.8036267    0.0088183    0.5858662  
H   -3.0835638    0.0000347   -0.6418818  
H   -2.4360047   -0.0011529   -3.5845921  
H    4.3715549    0.0004895   -1.3667136  
C    0.8175213    0.6860729    2.3021913  
C    0.0000000    0.0000000    1.4700000  
C   -0.8887526   -0.7456559    2.3478473  
C   -0.4549825   -0.3816753    3.7138435  
N    0.5448156    0.4573574    3.6934124  
C   -1.0945674   -0.9182058    4.8835240  
C   -2.1210866   -1.7789155    4.6970523  
O   -2.8083856   -2.3554314    5.6976972  
C   -2.5824069   -2.1655116    3.3310774  
O   -3.5227682   -2.9541547    3.2362962  
C   -1.9100805   -1.6015804    2.1470656  
H   -0.7567140   -0.6349833    5.8697035  
H   -3.4728268   -2.9124471    5.2533954  
H   -2.2742832   -1.9066565    1.1752040  
H    1.6189533    1.3585343    2.0405121  
