58

C    1.7761541   -2.0808172   -5.3136694  
C    0.9000098   -1.6207329   -4.3837409  
C   -0.0050993   -0.7252870   -5.0647621  
C    0.4185757   -0.7012562   -6.4778125  
N    1.5032976   -1.5433414   -6.5624319  
C   -0.1857986    0.0284159   -7.4494171  
C   -1.3297800    0.8447303   -7.0786437  
O   -1.9418767    1.5373870   -7.8810563  
C   -1.7956192    0.8347030   -5.5877717  
O   -2.7573919    1.5182351   -5.2636784  
C   -1.0641728    0.0073893   -4.6315342  
H    0.8891415   -1.8790047   -3.3398100  
H    2.5983399   -2.7671371   -5.1917401  
H    2.0163266   -1.7390561   -7.4023993  
C    1.1319248    0.0015676   -0.8009268  
C    0.7969919    0.0034957   -2.1169401  
C   -0.6453334    0.0035701   -2.1842673  
C   -1.1266831    0.0015417   -0.7896029  
N    0.0000000    0.0000000    0.0000000  
C   -2.4346127    0.0013924   -0.4276300  
C   -3.4350108    0.0031351   -1.4820188  
O   -4.6384606    0.0030895   -1.2583924  
C   -2.9478954    0.0050456   -2.9661079  
O   -3.7809375    0.0062155   -3.8623779  
C   -1.5113816    0.0053066   -3.2312128  
H    1.4821243    0.0045434   -2.9459190  
H   -2.7664566    0.0000186    0.6013445  
H    2.1104317    0.0009430   -0.3488055  
C    0.6887692   -1.0151307   -9.5907404  
C    0.2582221    0.0330194   -8.8507469  
C    0.3284692    1.1779281   -9.7455921  
C    0.8361730    0.6247170  -11.0194754  
N    1.0491370   -0.6603757  -10.9347852  
C    1.0491683    1.4502695  -12.1762739  
C    0.7673951    2.7684854  -12.0656164  
O    0.9188394    3.6547918  -13.0643988  
C    0.2533507    3.3567195  -10.7936491  
O    0.0183022    4.5646666  -10.7647321  
C    0.0432494    2.4890981   -9.6210378  
H    1.4212853    1.0193525  -13.0942876  
H    0.6386470    4.5069505  -12.6843062  
H   -0.3304762    2.9537280   -8.7184431  
H    0.7854474   -2.0459432   -9.2889906  
C    2.3971438    2.0127888    3.1728260  
C    1.9431056    1.6308205    1.9564670  
C    0.8496017    0.7127664    2.2356185  
C    0.7794028    0.6545384    3.7115134  
N    1.6840587    1.4146091    4.2663826  
C   -0.1885723   -0.1578550    4.3957118  
C   -1.0476298   -0.8789867    3.6398520  
O   -2.0015663   -1.6796266    4.1448486  
C   -1.0022026   -0.8410666    2.1483229  
O   -1.8147390   -1.5232959    1.5241687  
C    0.0000000    0.0000000    1.4700000  
H    2.3054237    1.9346118    0.9892483  
H   -0.2170646   -0.1815267    5.4753125  
H   -2.4487139   -2.0549881    3.3649027  
H    3.2048689    2.6911772    3.3971983  
