60

C    3.3003537    0.0005280   -1.4739005  
C    2.5232797    0.0003504   -2.6090757  
C    1.1623187   -0.0001314   -2.1820106  
C    1.1711877    0.0000587   -0.7636145  
N    2.4852297   -0.0014918   -0.3662365  
C    0.0000000    0.0000000    0.0000000  
C   -1.2020391    0.0000523   -0.6806467  
O   -2.3759253    0.0003494    0.0157759  
C   -1.2314671   -0.0005108   -2.0955501  
O   -2.5054405   -0.0008032   -2.6250164  
C   -0.0764533   -0.0007266   -2.8495190  
H    2.8919932   -0.0005611   -3.6205313  
H    2.8036265    0.0088180    0.5858650  
H   -3.0835645    0.0000350   -0.6418796  
H   -2.4360066   -0.0011520   -3.5845904  
H    4.3715539    0.0004899   -1.3667151  
C    2.2697402   -2.0933920   -5.9499317  
C    1.7761623   -1.6308840   -4.7724167  
C    0.6896433   -0.7359130   -5.0938795  
C    0.5899503   -0.7148020   -6.5657511  
N    1.5756926   -1.5579525   -7.0243352  
C   -0.3170997    0.0136154   -7.2645881  
C   -1.2578099    0.8315640   -6.5172193  
O   -2.1126625    1.5232792   -7.0548608  
C   -1.1702549    0.8246330   -4.9577028  
O   -1.9567862    1.5095619   -4.3177794  
C   -0.1496439   -0.0015603   -4.3176956  
H    2.1326561   -1.8872528   -3.7906831  
H   -0.3733858    0.0148564   -8.3442826  
H    1.7609369   -1.7556224   -7.9905952  
C    4.9427701   -4.2117823   -3.1839468  
C    5.7054553   -4.8873950   -4.0816855  
C    5.2194387   -4.5366946   -5.3953192  
C    4.1031014   -3.5946096   -5.1878162  
N    3.9862703   -3.4397979   -3.8257321  
C    3.3778086   -3.0300013   -6.1862512  
C    3.7193218   -3.3732492   -7.5566836  
O    3.1256024   -2.9175042   -8.5252367  
C    4.8978328   -4.3691451   -7.7998075  
O    5.1943174   -4.6658433   -8.9492978  
C    5.6054364   -4.9119259   -6.6428549  
H    6.5158898   -5.5553549   -3.8500888  
H    6.4203410   -5.6006622   -6.8197644  
H    4.9988494   -4.2130644   -2.1074974  
H    3.3115480   -2.8544433   -3.3683952  
C    2.5528530    2.1414826    2.8079335  
C    2.0663498    1.7338582    4.0032312  
C    0.9804344    0.8229586    3.6752840  
C    0.9495562    0.7966882    2.1971295  
N    1.8690446    1.5676019    1.6831036  
C    0.0000000    0.0000000    1.4700000  
C   -0.8785127   -0.7372425    2.1869543  
O   -1.8187535   -1.5261249    1.6395491  
C   -0.8723269   -0.7321790    3.6796354  
O   -1.7010379   -1.4274584    4.2670412  
C    0.1115397    0.0933559    4.4024240  
H    2.4028853    2.0163452    4.9860947  
H   -2.2861435   -1.9184361    2.3990168  
H    0.0832434    0.0693689    5.4835595  
H    3.3664920    2.8238276    2.6198634  
