62

C    0.0000000    0.0000000    0.0000000  
C   -1.0521656   -0.0014290   -0.8862350  
C   -0.4917216   -0.0000283   -2.1979133  
C    0.9187425    0.0019722   -2.0478675  
N    1.1833124    0.0038866   -0.7007905  
C    1.7951693    0.0034336   -3.1372079  
C    1.2375846    0.0025582   -4.4010416  
O    2.0474231    0.0035605   -5.4997563  
C   -0.1673574    0.0009400   -4.5711965  
O   -0.5673515    0.0006565   -5.8915555  
C   -1.0325771   -0.0002291   -3.4969897  
H   -2.0953060   -0.0021508   -0.6200574  
H    2.0989970   -0.0050122   -0.2891811  
H    2.8710913    0.0051049   -3.0295496  
H    1.4634900    0.0029932   -6.2693585  
H   -1.5290702   -0.0004909   -5.9180056  
C   -2.4861707   -0.0016505   -3.7159938  
C   -3.4897085   -0.0027923   -2.8011243  
C   -4.7313121   -0.0039615   -3.5381819  
C   -4.3662435   -0.0034327   -4.9676979  
N   -2.9909960   -0.0016257   -5.0074624  
C   -5.2594874   -0.0046151   -5.9893716  
C   -6.6749000   -0.0063107   -5.6590099  
O   -7.5569788   -0.0074028   -6.5076780  
C   -7.0843378   -0.0066455   -4.1516394  
O   -8.2730161   -0.0077615   -3.8612867  
C   -6.0304272   -0.0055499   -3.1401440  
H   -3.3734557   -0.0026306   -1.7319662  
H   -6.3222905   -0.0059955   -2.0987316  
H   -2.4390555   -0.0024289   -5.8455606  
C   -2.0131015   -2.1245429   -8.2157018  
C   -2.8584303   -1.6634279   -7.2332256  
C   -3.7825124   -0.7768442   -7.8614307  
C   -3.4492534   -0.7363619   -9.2395553  
N   -2.3692733   -1.5643965   -9.4201630  
C   -4.1534640    0.0392560  -10.1654561  
C   -5.2135962    0.7874053   -9.6915683  
O   -5.9355314    1.5622859  -10.5526044  
C   -5.5612697    0.7604999   -8.3199937  
O   -6.6404247    1.5599542   -8.0043345  
C   -4.8668228   -0.0042263   -7.4059574  
H   -2.8137594   -1.9320707   -6.1916743  
H   -1.9170685   -1.7452839  -10.2980992  
H   -3.9043989    0.0745614  -11.2170843  
H   -6.6186045    1.9945954  -10.0236588  
H   -6.8090580    1.4843888   -7.0601649  
H   -1.1833923   -2.8075701   -8.1523352  
C    1.0672568    0.0000697    2.3021913  
C    0.0000000    0.0000000    1.4700000  
C   -1.1601224    0.0000736    2.3478473  
C   -0.5938729    0.0000769    3.7138435  
N    0.7113367    0.0001554    3.6934124  
C   -1.4286986    0.0001879    4.8835240  
C   -2.7683114    0.0006799    4.6970523  
O   -3.6653903    0.0008304    5.6976972  
C   -3.3702025    0.0010610    3.3310774  
O   -4.5974910    0.0013779    3.2362962  
C   -2.4926826    0.0008943    2.1470656  
H   -0.9878360   -0.0000190    5.8697035  
H   -4.5324246    0.0012261    5.2533954  
H   -2.9677772    0.0012974    1.1752040  
H    2.1134392    0.0000545    2.0405121  
