58

C    1.9999911   -2.1070887   -5.1447770  
C    1.9105656   -1.6426492   -6.4177162  
C    0.7784242   -0.7475269   -6.4606981  
C    0.2115573   -0.7283874   -5.0986829  
N    0.9973776   -1.5733442   -4.3494007  
C   -0.8712836    0.0001712   -4.7267108  
C   -1.5219810    0.8200166   -5.7351660  
O   -2.5037654    1.5119157   -5.4992064  
C   -0.9387713    0.8148046   -7.1841812  
O   -1.4783605    1.5008670   -8.0417491  
C    0.2330287   -0.0112899   -7.4640109  
H    0.6307979   -0.0091667   -8.4697437  
H    2.7138538   -2.7945379   -4.7208629  
H    0.8643837   -1.7702168   -3.3744132  
C    1.0965511    0.0001359   -0.8010309  
C    0.0000000    0.0000000    0.0000000  
C   -1.1546566    0.0001470   -0.8669509  
C   -0.6372021    0.0003521   -2.2486277  
N    0.7342865    0.0007338   -2.1395011  
C   -1.4147747    0.0001354   -3.3608713  
C   -2.8576055   -0.0001049   -3.1854454  
O   -3.6427790   -0.0002491   -4.1244894  
C   -3.4275846   -0.0000728   -1.7311654  
O   -4.6406834    0.0000330   -1.5710050  
C   -2.4891869   -0.0001093   -0.6116739  
H   -2.8919121   -0.0002921    0.3920870  
H    2.1388271    0.0000663   -0.5261654  
H    1.3735864   -0.0006096   -2.9130262  
C    3.8922591   -5.3697296   -7.8481721  
C    3.1439512   -4.5170489   -7.1102349  
C    3.2874475   -3.2270719   -7.7674014  
C    4.1808650   -3.4911295   -8.9157319  
N    4.5386061   -4.7454221   -8.9682850  
C    4.5729318   -2.4532711   -9.8290882  
C    4.0939264   -1.2082949   -9.6056524  
O    4.3776144   -0.1452563  -10.3773462  
C    3.1901449   -0.9101740   -8.4556691  
O    2.7922456    0.2459345   -8.3131558  
C    2.8024904   -1.9918329   -7.5328134  
H    2.5658998   -4.7363821   -6.2288582  
H    5.2271578   -2.6745709  -10.6597047  
H    3.8937732    0.5945823   -9.9678468  
H    4.0473582   -6.4250582   -7.6894305  
C    2.3971438    2.0127888    3.1728260  
C    1.9431056    1.6308205    1.9564670  
C    0.8496017    0.7127664    2.2356185  
C    0.7794028    0.6545384    3.7115134  
N    1.6840587    1.4146091    4.2663826  
C   -0.1885723   -0.1578550    4.3957118  
C   -1.0476298   -0.8789867    3.6398520  
O   -2.0015663   -1.6796266    4.1448486  
C   -1.0022026   -0.8410666    2.1483229  
O   -1.8147390   -1.5232959    1.5241687  
C    0.0000000    0.0000000    1.4700000  
H    2.3054237    1.9346118    0.9892483  
H   -0.2170646   -0.1815267    5.4753125  
H   -2.4487139   -2.0549881    3.3649027  
H    3.2048689    2.6911772    3.3971983  
