58

C   -4.5679453   -0.0009853   -2.0086716  
C   -5.6049850   -0.0015838   -1.1391154  
C   -6.7955413   -0.0015012   -1.9752219  
C   -6.2781447   -0.0006922   -3.3604599  
N   -4.9730328   -0.0004675   -3.3863795  
C   -7.1539706   -0.0004244   -4.4997649  
C   -8.4861182   -0.0013303   -4.2658519  
O   -9.4181568   -0.0012008   -5.2340177  
C   -9.0391351   -0.0025322   -2.8793701  
O  -10.2622847   -0.0031906   -2.7410774  
C   -8.1201331   -0.0027412   -1.7272587  
H   -5.5667627   -0.0021168   -0.0631904  
H  -10.2688707   -0.0020245   -4.7592145  
H   -8.5604242   -0.0037395   -0.7391429  
C   -3.1301143   -0.0007989   -1.7028264  
C   -2.5367761   -0.0012064   -0.4864674  
C   -1.1089895   -0.0007511   -0.7656185  
C   -1.0177866   -0.0001802   -2.2415135  
N   -2.1993565   -0.0001247   -2.7963827  
C    0.2459223    0.0004316   -2.9257115  
C    1.3675333    0.0008600   -2.1698516  
O    2.6129322    0.0014410   -2.6748481  
C    1.3083585    0.0006738   -0.6783228  
O    2.3693261    0.0009646   -0.0541684  
C    0.0000000    0.0000000    0.0000000  
H   -3.0096015   -0.0016589    0.4807518  
H    0.2829647    0.0006341   -4.0053123  
H    3.1967451    0.0016596   -1.8949019  
C   -5.5315392   -0.6845686   -6.3269990  
C   -6.6020613    0.0006656   -5.8622241  
C   -7.0966042    0.7467314   -7.0090952  
C   -6.1815131    0.3838813   -8.1125141  
N   -5.2620837   -0.4548955   -7.7186955  
C   -6.3354370    0.9211056   -9.4364410  
C   -7.3573251    1.7813986   -9.6485125  
O   -7.6189588    2.3584700  -10.8336613  
C   -8.2979553    2.1668568   -8.5554439  
O   -9.2055254    2.9551746   -8.8201925  
C   -8.1190513    1.6022299   -7.2059574  
H   -5.6518903    0.6387060  -10.2237935  
H   -8.4018988    2.9149763  -10.6710010  
H   -8.8216554    1.9064867   -6.4417551  
H   -4.8866284   -1.3570068   -5.7839605  
C    2.5528530    2.1414826    2.8079335  
C    2.0663498    1.7338582    4.0032312  
C    0.9804344    0.8229586    3.6752840  
C    0.9495562    0.7966882    2.1971295  
N    1.8690446    1.5676019    1.6831036  
C    0.0000000    0.0000000    1.4700000  
C   -0.8785127   -0.7372425    2.1869543  
O   -1.8187535   -1.5261249    1.6395491  
C   -0.8723269   -0.7321790    3.6796354  
O   -1.7010379   -1.4274584    4.2670412  
C    0.1115397    0.0933559    4.4024240  
H    2.4028853    2.0163452    4.9860947  
H   -2.2861435   -1.9184361    2.3990168  
H    0.0832434    0.0693689    5.4835595  
H    3.3664920    2.8238276    2.6198634  
