58

C    4.7207756    1.0595858   -1.3068123  
C    3.4838910    0.6726612   -1.7123748  
C    3.1187141    1.5236840   -2.8201842  
C    4.2523794    2.4447084   -3.0282880  
N    5.1904366    2.1114876   -2.0786028  
C    4.2961812    3.4063276   -3.9848832  
C    3.1502064    3.5434831   -4.8683232  
O    3.0935289    4.3791401   -5.7609410  
C    1.9384332    2.5789000   -4.6658613  
O    0.9678554    2.6850990   -5.4033984  
C    2.0077943    1.5820935   -3.6003016  
H    2.8945047   -0.1184912   -1.2842215  
H    5.1375761    4.0715414   -4.1207325  
H    5.3286234    0.6649225   -0.5089079  
C    0.0000000    0.0000000    0.0000000  
C    0.8280683    0.6523600   -0.8560397  
C    0.4008361    0.3158313   -2.1935958  
C   -0.7522979   -0.5925525   -2.0455726  
N   -0.9438650   -0.7440119   -0.6915963  
C   -1.4416244   -1.1350465   -3.0810598  
C   -1.0195149   -0.8022120   -4.4314598  
O   -1.5757002   -1.2399500   -5.4301309  
C    0.1994405    0.1577077   -4.6117574  
O    0.5641536    0.4448836   -5.7439123  
C    0.8619042    0.6793565   -3.4189134  
H    1.6450616    1.2957319   -0.5817992  
H   -2.2847998   -1.7991042   -2.9507045  
H   -1.6603680   -1.3065936   -0.2706780  
C    9.3389010    0.7571325   -1.1728394  
C    8.0072563    0.7380894   -1.4135446  
C    7.6455544    2.1302687   -1.6315084  
C    8.9152142    2.8731718   -1.4810320  
N    9.9113545    2.0735383   -1.2121827  
C    8.9826564    4.3014209   -1.6247064  
C    7.8339977    4.9576377   -1.9063036  
O    7.7503731    6.2892594   -2.0670242  
C    6.5368778    4.2361035   -2.0645128  
O    5.5308377    4.8975983   -2.3204972  
C    6.4936870    2.7708739   -1.9123231  
H    7.3514385   -0.1153025   -1.4400191  
H    9.9240224    4.8185384   -1.5092476  
H    6.8098131    6.4574543   -2.2573151  
H    9.9879095   -0.0782442   -0.9633006  
C    3.3321173   -0.0004715    2.8079335  
C    2.6974184   -0.0000116    4.0032312  
C    1.2800439    0.0002118    3.6752840  
C    1.2395035   -0.0000644    2.1971295  
N    2.4394063   -0.0005460    1.6831036  
C    0.0000000    0.0000000    1.4700000  
C   -1.1468701   -0.0000635    2.1869543  
O   -2.3742202   -0.0000073    1.6395491  
C   -1.1388768   -0.0001607    3.6796354  
O   -2.2206231   -0.0000905    4.2670412  
C    0.1454524   -0.0001816    4.4024240  
H    3.1367986    0.0000651    4.9860947  
H   -2.9844344   -0.0001026    2.3990168  
H    0.1083576   -0.0003682    5.4835595  
H    4.3940039   -0.0007619    2.6198634  
