60

C    3.3003543    0.0005276   -1.4738987  
C    2.5232814    0.0003497   -2.6090747  
C    1.1623201   -0.0001318   -2.1820100  
C    1.1711882    0.0000584   -0.7636144  
N    2.4852299   -0.0014918   -0.3662356  
C    0.0000000    0.0000000    0.0000000  
C   -1.2020383    0.0000521   -0.6806484  
O   -2.3759250    0.0003495    0.0157746  
C   -1.2314658   -0.0005110   -2.0955509  
O   -2.5054390   -0.0008035   -2.6250179  
C   -0.0764516   -0.0007271   -2.8495195  
H    2.8919951   -0.0005616   -3.6205302  
H    2.8036261    0.0088182    0.5858657  
H   -3.0835640    0.0000348   -0.6418822  
H   -2.4360046   -0.0011525   -3.5845922  
H    4.3715547    0.0004895   -1.3667137  
C    0.6778498   -0.7280274   -5.1604559  
C    0.3572099   -0.5121162   -6.4622422  
C   -0.7500349    0.4145349   -6.4749820  
C   -1.0503172    0.7230181   -5.0637914  
N   -0.1496415   -0.0015610   -4.3176962  
C   -2.0334658    1.5633981   -4.6528354  
C   -2.8505387    2.2068484   -5.6681675  
O   -3.7605409    2.9801052   -5.3993377  
C   -2.5503714    1.8945198   -7.1688856  
O   -3.2318468    2.4301019   -8.0326014  
C   -1.4639111    0.9716706   -7.4879570  
H   -2.2371053    1.7761244   -3.6125527  
H   -1.2623885    0.7608732   -8.5294351  
H    1.4488982   -1.3568984   -4.7458534  
C    1.0184830   -1.1133085   -7.6293690  
C    2.0556634   -1.9825798   -7.6436599  
C    2.3036836   -2.2474419   -9.0525013  
C    1.2972168   -1.4336169   -9.7675519  
N    0.5410413   -0.7665585   -8.9385634  
C    1.2102768   -1.4189494  -11.2018850  
C    2.0891078   -2.1822819  -11.8905899  
O    2.1221499   -2.2642498  -13.2315709  
C    3.1167368   -3.0142313  -11.1977694  
O    3.8842659   -3.6846501  -11.8881740  
C    3.1856455   -3.0123347   -9.7256369  
H    2.5868860   -2.3932607   -6.8021019  
H    0.4647025   -0.8149950  -11.6981386  
H    2.8506811   -2.8816853  -13.4243613  
H    3.9443789   -3.6283749   -9.2619045  
C    2.5528530    2.1414826    2.8079335  
C    2.0663498    1.7338582    4.0032312  
C    0.9804344    0.8229586    3.6752840  
C    0.9495562    0.7966882    2.1971295  
N    1.8690446    1.5676019    1.6831036  
C    0.0000000    0.0000000    1.4700000  
C   -0.8785127   -0.7372425    2.1869543  
O   -1.8187535   -1.5261249    1.6395491  
C   -0.8723269   -0.7321790    3.6796354  
O   -1.7010379   -1.4274584    4.2670412  
C    0.1115397    0.0933559    4.4024240  
H    2.4028853    2.0163452    4.9860947  
H   -2.2861435   -1.9184361    2.3990168  
H    0.0832434    0.0693689    5.4835595  
H    3.3664920    2.8238276    2.6198634  
