58

C    2.5229104   -2.1069161   -5.8790361  
C    1.9659599   -1.6422912   -7.0270794  
C    0.8993071   -0.7471218   -6.6452951  
C    0.8803722   -0.7281568   -5.1701439  
N    1.8886141   -1.5732495   -4.7674576  
C    0.0139741    0.0003876   -4.4216236  
C   -0.9653706    0.8204009   -5.1151637  
O   -1.7886285    1.5123013   -4.5305090  
C   -0.9636627    0.8153755   -6.6771425  
O   -1.7837160    1.5015801   -7.2720341  
C    0.0195993   -0.0107214   -7.3732829  
H    2.2677699   -1.8976625   -8.0272351  
H    3.3432283   -2.7944525   -5.7515060  
H    2.1282169   -1.7702568   -3.8130854  
C    0.5774485   -3.2111511  -10.3636818  
C    0.4567313   -2.5053238   -9.2098582  
C    0.2098586   -1.1318029   -9.5804385  
C    0.1965212   -1.0950281  -11.0553139  
N    0.4256887   -2.3871595  -11.4685559  
C   -0.0071253    0.0245839  -11.7947075  
C   -0.2276851    1.2770174  -11.0909319  
O   -0.4203304    2.3397616  -11.6669217  
C   -0.2174874    1.2614800   -9.5290557  
O   -0.4017371    2.3098841   -8.9255967  
C    0.0123494   -0.0076593   -8.8432614  
H    0.5322110   -2.9015988   -8.2129213  
H   -0.0131522    0.0298365  -12.8758393  
H    0.7647227   -4.2639037  -10.4998068  
H    0.4731550   -2.6859715  -12.4253762  
C    3.2798085    0.0005853   -1.4499648  
C    2.5571144    0.0005562   -2.5996554  
C    1.1637436    0.0001546   -2.2210360  
C    1.1336965   -0.0000201   -0.7459470  
N    2.4483513   -0.0001430   -0.3402717  
C    0.0000000    0.0000000    0.0000000  
C   -1.2757367   -0.0000188   -0.6964414  
O   -2.3524597   -0.0000640   -0.1142313  
C   -1.2676494   -0.0000875   -2.2584081  
O   -2.3355762   -0.0004102   -2.8557294  
C    0.0181562    0.0001757   -2.9516296  
H    2.9547357    0.0006072   -3.5989105  
H    4.3498550    0.0008609   -1.3200021  
H    2.7563627    0.0012824    0.6148063  
C    0.0000000    0.0000000    1.4700000  
C    1.0662921    0.0000102    2.3034270  
C    0.4961870   -0.0000064    3.6418889  
C   -0.9663858    0.0000850    3.4240247  
N   -1.2632773    0.0000084    2.1528658  
C   -1.8985362    0.0000517    4.5177257  
C   -1.3925775   -0.0004564    5.7720543  
O   -2.1456383   -0.0005410    6.8851312  
C    0.0786232   -0.0009323    6.0245000  
O    0.4683759   -0.0012588    7.1921102  
C    1.0143166   -0.0008442    4.8859032  
H    2.1107198   -0.0000632    2.0421868  
H   -2.9622183    0.0003270    4.3293377  
H   -1.5042274   -0.0009692    7.6184419  
H    2.0724152   -0.0013148    5.1109744  
