58

C    4.6190969   -2.0899188   -2.8279648  
C    3.4606683   -1.6280059   -2.2906058  
C    2.8761398   -0.7301695   -3.2586201  
C    3.7955633   -0.7067285   -4.4122677  
N    4.8319965   -1.5514033   -4.0878914  
C    3.5979912    0.0246975   -5.5381828  
C    2.3999526    0.8436572   -5.6190797  
O    2.1321345    1.5380346   -6.5908892  
C    1.4124499    0.8342974   -4.4088912  
O    0.4006156    1.5200497   -4.4654209  
C    1.7334695    0.0049281   -3.2500363  
H    3.0613134   -1.8865704   -1.3260992  
H    4.2848597    0.0276106   -6.3731161  
H    5.6204864   -1.7480986   -4.6766545  
C    4.7246785   -4.2181891    1.0116521  
C    5.8928523   -4.8942025    0.8618144  
C    6.4205811   -4.5405443   -0.4348211  
C    5.4572076   -3.5962861   -1.0323822  
N    4.4521454   -3.4431683   -0.1054012  
C    5.5958113   -3.0286415   -2.2572387  
C    6.7722265   -3.3706811   -3.0392821  
O    6.9877171   -2.9122339   -4.1535941  
C    7.8054882   -4.3688363   -2.4262066  
O    8.7996386   -4.6645432   -3.0754235  
C    7.5468978   -4.9148409   -1.0962210  
H    6.3343727   -5.5642884    1.5778159  
H    8.2673011   -5.6051268   -0.6787908  
H    4.0398466   -4.2211381    1.8440499  
H    3.6459563   -2.8569759   -0.2215277  
C    1.1319246    0.0015678   -0.8009268  
C    0.7969914    0.0034958   -2.1169401  
C   -0.6453340    0.0035696   -2.1842669  
C   -1.1266832    0.0015410   -0.7896025  
N    0.0000000    0.0000000    0.0000000  
C   -2.4346129    0.0013913   -0.4276292  
C   -3.4350111    0.0031335   -1.4820181  
O   -4.6384614    0.0030875   -1.2583914  
C   -2.9478961    0.0050442   -2.9661074  
O   -3.7809382    0.0062135   -3.8623773  
C   -1.5113825    0.0053055   -3.2312122  
H   -2.7664565    0.0000174    0.6013448  
H   -1.1823533    0.0068381   -4.2614848  
H    2.1104316    0.0009435   -0.3488059  
C    0.8175213    0.6860729    2.3021913  
C    0.0000000    0.0000000    1.4700000  
C   -0.8887526   -0.7456559    2.3478473  
C   -0.4549825   -0.3816753    3.7138435  
N    0.5448156    0.4573574    3.6934124  
C   -1.0945674   -0.9182058    4.8835240  
C   -2.1210866   -1.7789155    4.6970523  
O   -2.8083856   -2.3554314    5.6976972  
C   -2.5824069   -2.1655116    3.3310774  
O   -3.5227682   -2.9541547    3.2362962  
C   -1.9100805   -1.6015804    2.1470656  
H   -0.7567140   -0.6349833    5.8697035  
H   -3.4728268   -2.9124471    5.2533954  
H   -2.2742832   -1.9066565    1.1752040  
H    1.6189533    1.3585343    2.0405121  
