64

C    4.3172181   -2.1276217   -1.4346664  
C    5.3517546   -1.6299846   -2.1926633  
C    4.7753703   -0.7549588   -3.1605016  
C    3.3738274   -0.7584003   -2.9423468  
N    3.1294631   -1.6035969   -1.8885224  
C    2.4861704   -0.0045255   -3.7159919  
C    3.0231749    0.7671113   -4.7281088  
O    2.2016884    1.5228926   -5.5135825  
C    4.4189003    0.7834865   -4.9615571  
O    4.7982356    1.6013206   -6.0058726  
C    5.2951627    0.0398120   -4.1989043  
H    2.2250239   -1.7989300   -1.4988869  
H    2.7718802    1.9765073   -6.1479163  
H    5.7549254    1.5549953   -6.0964452  
H    6.3593041    0.0724103   -4.4014329  
H    4.3324687   -2.8160058   -0.6071078  
C    7.2685449   -3.2018964   -1.7074387  
C    8.6387870   -3.1338694   -1.6060653  
C    9.0087488   -1.7807724   -1.8646326  
C    7.8118780   -1.0634341   -2.1192887  
N    6.7742989   -1.9565961   -2.0177545  
C    7.7973164    0.3034381   -2.4129502  
C    9.0131133    0.9581511   -2.4499172  
O    9.0564390    2.2930176   -2.7314628  
C   10.2180902    0.2596648   -2.1989895  
O   11.3453789    1.0515395   -2.2731480  
C   10.2332294   -1.0888477   -1.9094876  
H    9.2914882   -3.9583340   -1.3753454  
H    6.8885284    0.8559003   -2.6081244  
H    9.9881717    2.5470872   -2.7071806  
H   12.1147066    0.5032898   -2.0910496  
H   11.1718831   -1.5969968   -1.7218918  
H    6.6047889   -4.0404884   -1.5843495  
C    0.0000000    0.0000000    0.0000000  
C    1.0521669   -0.0011848   -0.8862341  
C    0.4917221   -0.0011931   -2.1979130  
C   -0.9187427    0.0003100   -2.0478683  
N   -1.1833170   -0.0009472   -0.7007915  
C   -1.7951698    0.0010259   -3.1372090  
C   -1.2375835    0.0005161   -4.4010425  
O   -2.0474208    0.0015256   -5.4997580  
C    0.1673584   -0.0013557   -4.5711962  
O    0.5673529   -0.0020659   -5.8915551  
C    1.0325773   -0.0023359   -3.4969890  
H    2.0953059   -0.0030542   -0.6200560  
H   -2.0989777    0.0102265   -0.2891825  
H   -2.8710930    0.0020274   -3.0295514  
H   -1.4634881    0.0006427   -6.2693593  
H    1.5290715   -0.0033076   -5.9180042  
C    1.0672568    0.0000697    2.3021913  
C    0.0000000    0.0000000    1.4700000  
C   -1.1601224    0.0000736    2.3478473  
C   -0.5938729    0.0000769    3.7138435  
N    0.7113367    0.0001554    3.6934124  
C   -1.4286986    0.0001879    4.8835240  
C   -2.7683114    0.0006799    4.6970523  
O   -3.6653903    0.0008304    5.6976972  
C   -3.3702025    0.0010610    3.3310774  
O   -4.5974910    0.0013779    3.2362962  
C   -2.4926826    0.0008943    2.1470656  
H   -0.9878360   -0.0000190    5.8697035  
H   -4.5324246    0.0012261    5.2533954  
H   -2.9677772    0.0012974    1.1752040  
H    2.1134392    0.0000545    2.0405121  
