62

C    0.0000000    0.0000000    0.0000000  
C    1.0521660   -0.0011902   -0.8862349  
C    0.4917205   -0.0011958   -2.1979136  
C   -0.9187438    0.0003152   -2.0478680  
N   -1.1833175   -0.0009410   -0.7007909  
C   -1.7951715    0.0010353   -3.1372088  
C   -1.2375854    0.0005225   -4.4010421  
O   -2.0474238    0.0015362   -5.4997578  
C    0.1673565   -0.0013567   -4.5711966  
O    0.5673498   -0.0020687   -5.8915554  
C    1.0325757   -0.0023413   -3.4969896  
H    2.0953050   -0.0030651   -0.6200570  
H   -2.0989779    0.0102376   -0.2891817  
H   -1.4634912    0.0006500   -6.2693589  
H    1.5290687   -0.0033153   -5.9180049  
H    2.1042132   -0.0039613   -3.6584467  
C   -4.5382428    2.1273451   -0.3186938  
C   -3.4269656    1.6642221   -0.9843118  
C   -3.8900514    0.7769064   -2.0005905  
C   -5.3047977    0.7380671   -1.9061927  
N   -5.6653153    1.5677436   -0.8735837  
C   -6.0984779   -0.0377243   -2.7564913  
C   -5.4522268   -0.7877405   -3.7198258  
O   -6.1789727   -1.5628746   -4.5765752  
C   -4.0415012   -0.7624921   -3.8295247  
O   -3.5480042   -1.5637036   -4.8384179  
C   -3.2578666    0.0024045   -2.9908496  
H   -2.4078447    1.9320313   -0.7637129  
H   -6.6071045    1.7500077   -0.5772823  
H   -7.1771665   -0.0717833   -2.6896169  
H   -5.5421637   -1.9965791   -5.1593612  
H   -2.5888299   -1.4891816   -4.8443289  
C   -3.6422631    3.6927793    1.4661753  
C   -4.6443911    3.0614860    0.8113566  
C   -5.8624372    3.5080694    1.4697080  
C   -5.3974961    4.4304555    2.5278280  
N   -4.0969704    4.5427722    2.5305665  
C   -6.3128547    5.0937321    3.4151093  
C   -7.6327181    4.8470708    3.2524636  
O   -8.5978328    5.3969873    4.0088928  
C   -8.1331592    3.9215728    2.1936092  
O   -9.3478376    3.7438215    2.1031532  
C   -7.1742689    3.2532428    1.2959512  
H   -5.9452691    5.7625634    4.1796059  
H   -9.4287213    5.0317548    3.6548005  
H   -7.5769718    2.5903757    0.5418509  
H   -2.5821171    3.6268640    1.2798459  
C    1.0672568    0.0000697    2.3021913  
C    0.0000000    0.0000000    1.4700000  
C   -1.1601224    0.0000736    2.3478473  
C   -0.5938729    0.0000769    3.7138435  
N    0.7113367    0.0001554    3.6934124  
C   -1.4286986    0.0001879    4.8835240  
C   -2.7683114    0.0006799    4.6970523  
O   -3.6653903    0.0008304    5.6976972  
C   -3.3702025    0.0010610    3.3310774  
O   -4.5974910    0.0013779    3.2362962  
C   -2.4926826    0.0008943    2.1470656  
H   -0.9878360   -0.0000190    5.8697035  
H   -4.5324246    0.0012261    5.2533954  
H   -2.9677772    0.0012974    1.1752040  
H    2.1134392    0.0000545    2.0405121  
