60

C    3.3041275    0.0001181   -1.5420431  
C    2.5845370   -0.0004778   -0.3695856  
C    1.2040006   -0.0000007   -0.7283585  
C    1.1422375    0.0006038   -2.1454369  
N    2.4348641    0.0026112   -2.6077464  
C   -0.0655181    0.0008798   -2.8497918  
C   -1.2321766    0.0002325   -2.1101401  
O   -2.4392816    0.0001145   -2.7472520  
C   -1.1911210   -0.0000006   -0.6955259  
O   -2.4371524   -0.0002321   -0.1032861  
C    0.0000000    0.0000000    0.0000000  
H    3.0031534   -0.0000657    0.6222583  
H    2.7054630   -0.0071096   -3.5745259  
H   -3.1132987   -0.0000651   -2.0551784  
H   -2.3200282   -0.0004071    0.8516411  
H    4.3686621    0.0004075   -1.7024291  
C    0.6887310   -0.7238758   -5.1615446  
C    0.3681064   -0.5064781   -6.4630873  
C   -0.7390721    0.4202659   -6.4747850  
C   -1.0393320    0.7271839   -5.0632484  
N   -0.1387082    0.0017018   -4.3179684  
C   -2.0224202    1.5671714   -4.6513473  
C   -2.8394472    2.2118213   -5.6659552  
O   -3.7493945    2.9848410   -5.3962566  
C   -2.5393027    1.9011589   -7.1670238  
O   -3.2207395    2.4377604   -8.0301365  
C   -1.4529087    0.9785915   -7.4871325  
H   -2.2260443    1.7787425   -3.6108261  
H   -1.2514014    0.7689508   -8.5288476  
H    1.4597344   -1.3532678   -4.7476496  
C    1.8893684   -4.5603390   -7.1947373  
C    2.3608160   -4.3988453   -8.4579600  
C    2.1020843   -3.0284164   -8.8318834  
C    1.4365104   -2.4002368   -7.6746486  
N    1.3370111   -3.3820277   -6.7159641  
C    1.0293365   -1.1064055   -7.6308897  
C    1.2619610   -0.2772825   -8.8017766  
O    0.9319811    0.8999864   -8.8605355  
C    1.9650093   -0.9218191  -10.0387494  
O    2.1659106   -0.2336839  -11.0303987  
C    2.3583322   -2.3268042   -9.9668788  
H    2.8354735   -5.1536515   -9.0592763  
H    2.8447680   -2.7654658  -10.8275066  
H    1.8987840   -5.4410718   -6.5733590  
H    0.9281381   -3.2606716   -5.8075903  
C    0.0000000    0.0000000    1.4700000  
C    1.0662921    0.0000102    2.3034270  
C    0.4961870   -0.0000064    3.6418889  
C   -0.9663858    0.0000850    3.4240247  
N   -1.2632773    0.0000084    2.1528658  
C   -1.8985362    0.0000517    4.5177257  
C   -1.3925775   -0.0004564    5.7720543  
O   -2.1456383   -0.0005410    6.8851312  
C    0.0786232   -0.0009323    6.0245000  
O    0.4683759   -0.0012588    7.1921102  
C    1.0143166   -0.0008442    4.8859032  
H    2.1107198   -0.0000632    2.0421868  
H   -2.9622183    0.0003270    4.3293377  
H   -1.5042274   -0.0009692    7.6184419  
H    2.0724152   -0.0013148    5.1109744  
