58

C   -4.5679472    0.0002284   -2.0086696  
C   -5.6049860   -0.0000947   -1.1391126  
C   -6.7955425    0.0003043   -1.9752187  
C   -6.2781469    0.0009758   -3.3604572  
N   -4.9730346    0.0008537   -3.3863771  
C   -7.1539729    0.0014763   -4.4997616  
C   -8.4861207    0.0009243   -4.2658479  
O   -9.4181600    0.0013015   -5.2340133  
C   -9.0391375   -0.0001308   -2.8793658  
O  -10.2622871   -0.0004643   -2.7410725  
C   -8.1201348   -0.0005838   -1.7272548  
H   -5.5667635   -0.0006378   -0.0631876  
H   -6.7483999    0.0021694   -5.5009708  
H  -10.2688737    0.0007037   -4.7592098  
C   -3.1301156    0.0000327   -1.7028248  
C   -2.5367769   -0.0005325   -0.4864662  
C   -1.1089907   -0.0004564   -0.7656183  
C   -1.0177879    0.0000903   -2.2415131  
N   -2.1993583    0.0004597   -2.7963817  
C    0.2459205    0.0003663   -2.9257120  
C    1.3675313    0.0004968   -2.1698528  
O    2.6129309    0.0007469   -2.6748495  
C    1.3083582    0.0003263   -0.6783234  
O    2.3693254    0.0003351   -0.0541696  
C    0.0000000    0.0000000    0.0000000  
H   -3.0096020   -0.0008593    0.4807529  
H    0.2829623    0.0005591   -4.0053127  
H    3.1967435    0.0008104   -1.8949040  
C   -8.3107237    0.6837322    0.7088298  
C   -8.7184386   -0.0017815   -0.3845219  
C   -9.8871923   -0.7482818    0.0550828  
C  -10.0471187   -0.3853511    1.4796141  
N   -9.1259531    0.4538437    1.8684536  
C  -11.1071519   -0.9229275    2.2873430  
C  -11.9685032   -1.7836346    1.6986231  
O  -13.0033030   -2.3610655    2.3325032  
C  -11.8337405   -2.1691848    0.2628826  
O  -12.6537453   -2.9578874   -0.2069691  
C  -10.7379799   -1.6041912   -0.5445925  
H  -11.2000643   -0.6404594    3.3258461  
H  -13.4291256   -2.9178160    1.6558522  
H  -10.6749527   -1.9085285   -1.5807565  
H   -7.4724830    1.3565234    0.7964570  
C    0.8175213    0.6860729    2.3021913  
C    0.0000000    0.0000000    1.4700000  
C   -0.8887526   -0.7456559    2.3478473  
C   -0.4549825   -0.3816753    3.7138435  
N    0.5448156    0.4573574    3.6934124  
C   -1.0945674   -0.9182058    4.8835240  
C   -2.1210866   -1.7789155    4.6970523  
O   -2.8083856   -2.3554314    5.6976972  
C   -2.5824069   -2.1655116    3.3310774  
O   -3.5227682   -2.9541547    3.2362962  
C   -1.9100805   -1.6015804    2.1470656  
H   -0.7567140   -0.6349833    5.8697035  
H   -3.4728268   -2.9124471    5.2533954  
H   -2.2742832   -1.9066565    1.1752040  
H    1.6189533    1.3585343    2.0405121  
