60

C    1.1188649    0.0008221   -0.8003802  
C    0.0000000    0.0000000    0.0000000  
C   -1.1323859    0.0008896   -0.8673533  
C   -0.6382652    0.0019677   -2.1969281  
N    0.7324026    0.0038479   -2.1202233  
C   -1.4770899    0.0027312   -3.3154813  
C   -2.8395462    0.0020934   -3.0876865  
O   -3.7039184    0.0024415   -4.1440362  
C   -3.3517863    0.0013921   -1.7684342  
O   -4.7300485    0.0012355   -1.7073142  
C   -2.5248541    0.0009117   -0.6644823  
H    1.3576328   -0.0056170   -2.9057035  
H   -4.5940013    0.0021811   -3.7685148  
H   -4.9934594    0.0007251   -0.7819936  
H   -2.9462582    0.0005599    0.3339643  
H    2.1619894    0.0009359   -0.5342059  
C    0.0908008   -0.6992464   -5.1618156  
C   -0.9736275    0.0040455   -4.6965765  
C   -1.5084774    0.7463560   -5.8136025  
C   -0.6623457    0.4154826   -6.9760886  
N    0.2885861   -0.4649760   -6.5141241  
C   -0.8417373    0.9156024   -8.2248497  
C   -1.9414381    1.8417252   -8.4381333  
O   -2.1855815    2.3466256   -9.5261459  
C   -2.8501332    2.2064419   -7.2211451  
O   -3.7788887    2.9853289   -7.3885002  
C   -2.5575116    1.6028535   -5.9234911  
H   -3.1915414    1.8604119   -5.0859984  
H    0.7475173   -1.3688065   -4.6304947  
H    1.0132794   -0.8758185   -7.0736555  
C    0.0176259    0.5678670   -9.3656721  
C    1.0837097   -0.2656567   -9.3824479  
C    1.5566873   -0.2420238  -10.7580326  
C    0.6352673    0.6823091  -11.4531430  
N   -0.2689830    1.1602516  -10.6420381  
C    0.7686198    0.9799238  -12.8526885  
C    1.7768829    0.3816389  -13.5270756  
O    2.0188180    0.5678282  -14.8358316  
C    2.7234347   -0.5557288  -12.8536200  
O    3.6178060   -1.0642870  -13.5294078  
C    2.5657263   -0.8448795  -11.4171508  
H    1.4980319   -0.8271196   -8.5625863  
H    0.0808711    1.6590840  -13.3350291  
H    2.7959791    0.0118933  -15.0258568  
H    3.2720069   -1.5292355  -10.9665355  
C    0.8175213    0.6860729    2.3021913  
C    0.0000000    0.0000000    1.4700000  
C   -0.8887526   -0.7456559    2.3478473  
C   -0.4549825   -0.3816753    3.7138435  
N    0.5448156    0.4573574    3.6934124  
C   -1.0945674   -0.9182058    4.8835240  
C   -2.1210866   -1.7789155    4.6970523  
O   -2.8083856   -2.3554314    5.6976972  
C   -2.5824069   -2.1655116    3.3310774  
O   -3.5227682   -2.9541547    3.2362962  
C   -1.9100805   -1.6015804    2.1470656  
H   -0.7567140   -0.6349833    5.8697035  
H   -3.4728268   -2.9124471    5.2533954  
H   -2.2742832   -1.9066565    1.1752040  
H    1.6189533    1.3585343    2.0405121  
