58

C    3.2573669   -0.0002920   -1.5109381  
C    2.5379467   -0.0001711   -0.3591959  
C    1.1435042    0.0000331   -0.7338497  
C    1.1092607   -0.0000081   -2.2088471  
N    2.4227560    0.0001907   -2.6182608  
C   -0.0265533   -0.0002524   -2.9515661  
C   -1.3003036   -0.0002640   -2.2514977  
O   -2.3786787   -0.0004131   -2.8306425  
C   -1.2877726    0.0000311   -0.6895602  
O   -2.3539960    0.0003306   -0.0892029  
C    0.0000000    0.0000000    0.0000000  
H    2.9384089   -0.0000370    0.6389239  
H    4.3270393   -0.0004766   -1.6439442  
H    2.7280493   -0.0013408   -3.5742113  
C    2.5185217   -2.1418786   -5.7664421  
C    2.0285777   -1.7344768   -6.9604094  
C    0.9435060   -0.8236413   -6.6295056  
C    0.9168303   -0.7971604   -5.1512730  
N    1.8378567   -1.5679055   -4.6397538  
C   -0.0307354   -0.0004647   -4.4215603  
C   -0.9113601    0.7365842   -5.1361180  
O   -1.8501209    1.5254490   -4.5861544  
C   -0.9094202    0.7313055   -6.6288102  
O   -1.7398707    1.4264151   -7.2139561  
C    0.0724709   -0.0942327   -7.3542757  
H   -2.3197103    1.9176026   -5.3443459  
H    0.0410964   -0.0704048   -8.4353301  
H    3.3327626   -2.8241129   -5.5805892  
C    2.8743783   -3.3439281   -8.7305527  
C    2.4843050   -2.1203328   -8.3036624  
C    2.6127413   -1.2581694   -9.4684272  
C    3.1063337   -2.1500195  -10.5396669  
N    3.2615331   -3.3739186  -10.1130828  
C    3.3654859   -1.6708308  -11.8694431  
C    3.1413454   -0.3603414  -12.1178648  
O    3.3403483    0.2218387  -13.3126469  
C    2.6429843    0.5649896  -11.0578846  
O    2.4613424    1.7456612  -11.3549389  
C    2.3847281    0.0493647   -9.7016549  
H    3.7260012   -2.3448506  -12.6327488  
H    3.0948800    1.1549511  -13.1777431  
H    2.0242283    0.7518247   -8.9621820  
H    2.9228026   -4.2605315   -8.1644547  
C    0.0000000    0.0000000    1.4700000  
C    1.0662921    0.0000102    2.3034270  
C    0.4961870   -0.0000064    3.6418889  
C   -0.9663858    0.0000850    3.4240247  
N   -1.2632773    0.0000084    2.1528658  
C   -1.8985362    0.0000517    4.5177257  
C   -1.3925775   -0.0004564    5.7720543  
O   -2.1456383   -0.0005410    6.8851312  
C    0.0786232   -0.0009323    6.0245000  
O    0.4683759   -0.0012588    7.1921102  
C    1.0143166   -0.0008442    4.8859032  
H    2.1107198   -0.0000632    2.0421868  
H   -2.9622183    0.0003270    4.3293377  
H   -1.5042274   -0.0009692    7.6184419  
H    2.0724152   -0.0013148    5.1109744  
