60

C    1.1243404    0.0100774   -0.7919005  
C    0.7474057    0.0235105   -2.1148545  
C   -0.6787398    0.0233965   -2.1414699  
C   -1.1201750    0.0097737   -0.7935548  
N    0.0000000    0.0000000    0.0000000  
C   -2.4730822    0.0061825   -0.4408239  
C   -3.3971968    0.0168391   -1.4675063  
O   -4.7313527    0.0142657   -1.1793469  
C   -2.9763674    0.0301236   -2.8186325  
O   -4.0166505    0.0392055   -3.7247622  
C   -1.6418590    0.0334002   -3.1673482  
H   -2.8160158   -0.0043253    0.5845962  
H   -5.1938839    0.0226913   -2.0274378  
H   -3.6464708    0.0479508   -4.6127341  
H   -1.3497503    0.0434828   -4.2109233  
H    2.1062461    0.0054418   -0.3505411  
C    2.8195323   -0.6690162   -3.3744983  
C    1.6628925    0.0340155   -3.2649301  
C    1.5103291    0.7867448   -4.4876151  
C    2.6812795    0.4622690   -5.3245026  
N    3.4361213   -0.4248113   -4.5922511  
C    2.9074701    0.9727100   -6.5614315  
C    1.9326953    1.9039838   -7.1046431  
O    2.0464983    2.4181550   -8.2096217  
C    0.6851447    2.2620757   -6.2356248  
O   -0.1421574    3.0452134   -6.6823094  
C    0.5507751    1.6474254   -4.9172917  
H   -0.3159918    1.9004524   -4.3219629  
H    3.2734676   -1.3448072   -2.6680010  
H    4.3006311   -0.8335805   -4.8965170  
C    4.0840885    0.6311610   -7.3737200  
C    5.0999971   -0.2056107   -7.0585645  
C    5.9848372   -0.1727333   -8.2128942  
C    5.3319502    0.7599486   -9.1565187  
N    4.2174029    1.2344225   -8.6700529  
C    5.9024490    1.0680710  -10.4389682  
C    7.0722116    0.4718578  -10.7638067  
O    7.7168322    0.6675014  -11.9266603  
C    7.7557945   -0.4737696   -9.8328584  
O    8.8180396   -0.9798846  -10.1943881  
C    7.1504907   -0.7736391   -8.5230448  
H    5.2326001   -0.7747894   -6.1543918  
H    5.4035540    1.7531781  -11.1087753  
H    8.5138321    0.1105876  -11.8650914  
H    7.6770191   -1.4637527   -7.8774902  
C    0.8175213    0.6860729    2.3021913  
C    0.0000000    0.0000000    1.4700000  
C   -0.8887526   -0.7456559    2.3478473  
C   -0.4549825   -0.3816753    3.7138435  
N    0.5448156    0.4573574    3.6934124  
C   -1.0945674   -0.9182058    4.8835240  
C   -2.1210866   -1.7789155    4.6970523  
O   -2.8083856   -2.3554314    5.6976972  
C   -2.5824069   -2.1655116    3.3310774  
O   -3.5227682   -2.9541547    3.2362962  
C   -1.9100805   -1.6015804    2.1470656  
H   -0.7567140   -0.6349833    5.8697035  
H   -3.4728268   -2.9124471    5.2533954  
H   -2.2742832   -1.9066565    1.1752040  
H    1.6189533    1.3585343    2.0405121  
