58

C    3.1301135   -0.0010310   -1.7028268  
C    2.5367760   -0.0002766   -0.4864678  
C    1.1089896    0.0001028   -0.7656187  
C    1.0177856   -0.0004146   -2.2415137  
N    2.1993556   -0.0011609   -2.7963831  
C   -0.2459230   -0.0002875   -2.9257117  
C   -1.3675329   -0.0000603   -2.1698517  
O   -2.6129323    0.0000868   -2.6748480  
C   -1.3083600    0.0000911   -0.6783224  
O   -2.3693274    0.0004207   -0.0541677  
C    0.0000000    0.0000000    0.0000000  
H    3.0096013   -0.0001008    0.4807507  
H   -0.2829655   -0.0004685   -4.0053123  
H   -3.1967443    0.0002095   -1.8949021  
C    6.8847539    0.0010457    0.6986546  
C    5.5715649    0.0014847    0.3713743  
C    5.5475437   -0.0003218   -1.0832457  
C    6.9721645   -0.0016281   -1.4795249  
N    7.7607277   -0.0009151   -0.4392566  
C    7.3784650   -0.0036303   -2.8579307  
C    6.4057851   -0.0046862   -3.7977325  
O    6.6406148   -0.0065621   -5.1209457  
C    4.9592078   -0.0037853   -3.4295291  
O    4.1279690   -0.0047101   -4.3374177  
C    4.5679448   -0.0016852   -2.0086725  
H    4.7238874    0.0027738    1.0350893  
H    5.7562694   -0.0069354   -5.5297079  
H    7.3236793    0.0019889    1.6837014  
C    9.8097097   -0.6901805   -2.6195660  
C    8.8049629   -0.0046032   -3.2129005  
C    9.4424667    0.7393342   -4.2883747  
C   10.8726626    0.3750047   -4.1967871  
N   11.0939848   -0.4627348   -3.2204683  
C   11.8534624    0.9099425   -5.1006455  
C   11.4249152    1.7694617   -6.0529631  
O   12.2301729    2.3444357   -6.9623614  
C    9.9880954    2.1563715   -6.1713227  
O    9.6693062    2.9438737   -7.0620719  
C    9.0012861    1.5940843   -5.2321927  
H   12.8919466    0.6264997   -5.0105324  
H   11.6387585    2.9008952   -7.5006309  
H    7.9703403    1.8993374   -5.3513633  
H    9.7490779   -1.3614429   -1.7777204  
C    2.3971438    2.0127888    3.1728260  
C    1.9431056    1.6308205    1.9564670  
C    0.8496017    0.7127664    2.2356185  
C    0.7794028    0.6545384    3.7115134  
N    1.6840587    1.4146091    4.2663826  
C   -0.1885723   -0.1578550    4.3957118  
C   -1.0476298   -0.8789867    3.6398520  
O   -2.0015663   -1.6796266    4.1448486  
C   -1.0022026   -0.8410666    2.1483229  
O   -1.8147390   -1.5232959    1.5241687  
C    0.0000000    0.0000000    1.4700000  
H    2.3054237    1.9346118    0.9892483  
H   -0.2170646   -0.1815267    5.4753125  
H   -2.4487139   -2.0549881    3.3649027  
H    3.2048689    2.6911772    3.3971983  
