58

C   -0.9804205    0.5657140   -0.8009271  
C   -0.6915150    0.3962509   -2.1169404  
C    0.5567221   -0.3263881   -2.1842674  
C    0.9743268   -0.5657785   -0.7896026  
N    0.0000000    0.0000000    0.0000000  
C    2.1063612   -1.2208945   -0.4276293  
C    2.9712926   -1.7235812   -1.4820183  
O    4.0128524   -2.3264447   -1.2583917  
C    2.5487572   -1.4812000   -2.9661070  
O    3.2691357   -1.8995491   -3.8623773  
C    1.3053821   -0.7617630   -3.2312125  
H    2.3942461   -1.3859521    0.6013445  
H    1.0198532   -0.5982522   -4.2614851  
H   -1.8269655    1.0564661   -0.3488062  
C   -3.0369836    4.0731047   -3.0356157  
C   -2.2534970    3.1801584   -2.3872521  
C   -2.1362526    2.0525553   -3.2989892  
C   -2.9329369    2.4448686   -4.4813459  
N   -3.4632913    3.6283558   -4.3327800  
C   -3.0702191    1.5860756   -5.6253366  
C   -2.4399348    0.3899058   -5.5899299  
O   -2.4818256   -0.5103401   -6.5868471  
C   -1.6282325   -0.0345178   -4.4113014  
O   -1.0822475   -1.1371466   -4.4477816  
C   -1.5027158    0.8641672   -3.2500368  
H   -1.8098351    3.2749997   -1.4109095  
H   -3.6587898    1.8982437   -6.4756574  
H   -1.9404672   -1.2559946   -6.2704871  
C   -3.4787388    5.3955895   -2.5700132  
C   -3.1961483    6.0022367   -1.3937047  
C   -3.8833830    7.2829131   -1.4575486  
C   -4.5489768    7.2832998   -2.7779916  
N   -4.3154543    6.1795282   -3.4346077  
C   -5.3436574    8.3923747   -3.2291251  
C   -5.4680849    9.4526951   -2.3987196  
O   -6.1791030   10.5551377   -2.6904628  
C   -4.8088823    9.4821009   -1.0597841  
O   -4.9651935   10.4800811   -0.3563476  
C   -3.9988946    8.3321836   -0.6198614  
H   -2.5955927    5.6269669   -0.5827905  
H   -5.8185546    8.3658053   -4.1990098  
H   -6.0791799   11.1285731   -1.9092203  
H   -3.5379710    8.3924234    0.3569448  
C    2.5528530    2.1414826    2.8079335  
C    2.0663498    1.7338582    4.0032312  
C    0.9804344    0.8229586    3.6752840  
C    0.9495562    0.7966882    2.1971295  
N    1.8690446    1.5676019    1.6831036  
C    0.0000000    0.0000000    1.4700000  
C   -0.8785127   -0.7372425    2.1869543  
O   -1.8187535   -1.5261249    1.6395491  
C   -0.8723269   -0.7321790    3.6796354  
O   -1.7010379   -1.4274584    4.2670412  
C    0.1115397    0.0933559    4.4024240  
H    2.4028853    2.0163452    4.9860947  
H   -2.2861435   -1.9184361    2.3990168  
H    0.0832434    0.0693689    5.4835595  
H    3.3664920    2.8238276    2.6198634  
