62

C    1.1243418    0.0099229   -0.7919009  
C    0.7474090    0.0234085   -2.1148548  
C   -0.6787364    0.0234916   -2.1414702  
C   -1.1201739    0.0099289   -0.7935547  
N    0.0000000    0.0000000    0.0000000  
C   -2.4730813    0.0065243   -0.4408242  
C   -3.3971945    0.0173091   -1.4675058  
O   -4.7313507    0.0149194   -1.1793465  
C   -2.9763633    0.0305360   -2.8186327  
O   -4.0166457    0.0397618   -3.7247620  
C   -1.6418543    0.0336287   -3.1673482  
H   -2.8160166   -0.0039364    0.5845966  
H   -5.1938803    0.0234092   -2.0274379  
H   -3.6464645    0.0484567   -4.6127343  
H   -1.3497445    0.0436713   -4.2109236  
H    2.1062469    0.0051515   -0.3505410  
C    4.5588325   -2.0914295   -2.8627789  
C    4.8000438   -1.5806194   -4.1171142  
C    3.7182711   -0.7031725   -4.4244488  
C    2.8403310   -0.7187822   -3.3104900  
N    3.3795178   -1.5732322   -2.3810763  
C    1.6628969    0.0337879   -3.2649303  
C    1.3664901    0.8166058   -4.3638005  
O    0.2294637    1.5716681   -4.3719360  
C    2.2297468    0.8452125   -5.4848654  
O    1.7959066    1.6732583   -6.4994921  
C    3.3913434    0.1028338   -5.5306116  
H    5.6504542   -1.8128085   -4.7350814  
H    2.9825538   -1.7781657   -1.4819637  
H    0.2148247    2.0340638   -5.2200169  
H    2.4349449    1.6348289   -7.2176550  
H    4.0327912    0.1449298   -6.4031089  
C    8.3239932   -4.0910548   -3.7642002  
C    8.5313329   -4.8253574   -2.6464399  
C    7.3926745   -4.5333910   -1.7892860  
C    6.5752665   -3.5782992   -2.5678929  
N    7.1161263   -3.3152913   -3.7264642  
C    5.3441849   -3.0391759   -2.0591007  
C    4.9475196   -3.4364394   -0.8285833  
O    3.8207141   -3.0138840   -0.2304222  
C    5.7503743   -4.3993358   -0.0183894  
O    5.3288374   -4.7166666    1.0937385  
C    7.0096327   -4.9381691   -0.5623127  
H    9.3551705   -5.4838873   -2.4303246  
H    3.8115766   -3.4690077    0.6309323  
H    7.5619212   -5.6332438    0.0558127  
H    8.9452651   -4.0302278   -4.6435724  
C    2.3971438    2.0127888    3.1728260  
C    1.9431056    1.6308205    1.9564670  
C    0.8496017    0.7127664    2.2356185  
C    0.7794028    0.6545384    3.7115134  
N    1.6840587    1.4146091    4.2663826  
C   -0.1885723   -0.1578550    4.3957118  
C   -1.0476298   -0.8789867    3.6398520  
O   -2.0015663   -1.6796266    4.1448486  
C   -1.0022026   -0.8410666    2.1483229  
O   -1.8147390   -1.5232959    1.5241687  
C    0.0000000    0.0000000    1.4700000  
H    2.3054237    1.9346118    0.9892483  
H   -0.2170646   -0.1815267    5.4753125  
H   -2.4487139   -2.0549881    3.3649027  
H    3.2048689    2.6911772    3.3971983  
