64

C   -3.3038943    0.0393370   -1.5420411  
C   -2.5843474    0.0313399   -0.3695838  
C   -1.2039152    0.0143778   -0.7283583  
C   -1.1421651    0.0130359   -2.1454367  
N   -2.4347232    0.0264641   -2.6077452  
C    0.0655010   -0.0016619   -2.8497915  
C    1.2320853   -0.0149458   -2.1101404  
O    2.4391044   -0.0292420   -2.7472531  
C    1.1910344   -0.0142223   -0.6955271  
O    2.4369807   -0.0288701   -0.1032874  
C    0.0000000    0.0000000    0.0000000  
H   -3.0029384    0.0359268    0.6222598  
H   -2.7051871    0.0394155   -3.5745251  
H    0.1193268   -0.0029094   -3.9297474  
H    3.1130763   -0.0371110   -2.0551801  
H    2.3198683   -0.0272965    0.8516397  
C   -6.7063457    0.0835041    1.2828929  
C   -7.7130270    0.0942555    0.3453726  
C   -7.0880317    0.0853864   -0.9367751  
C   -5.6868838    0.0688582   -0.7166909  
N   -5.4896795    0.0700935    0.6418842  
C   -4.7573902    0.0562992   -1.7610435  
C   -5.2513492    0.0601949   -3.0510692  
O   -4.3878951    0.0480467   -4.1081002  
C   -6.6459767    0.0769890   -3.2909630  
O   -6.9797335    0.0792507   -4.6295988  
C   -7.5635209    0.0896583   -2.2611677  
H   -4.5958156    0.0498325    1.0985879  
H   -4.9327588    0.0536503   -4.9058197  
H   -7.9388724    0.0908978   -4.7038985  
H   -8.6257132    0.1025875   -2.4757799  
H   -6.7599221    0.0857865    2.3581062  
C  -10.0684542    2.2497874    3.4055240  
C  -11.3055852    1.7657093    3.0482539  
C  -11.1054628    0.8871119    1.9425333  
C   -9.7140215    0.8745014    1.6674735  
N   -9.1139753    1.7139891    2.5729139  
C   -9.1535942    0.1130726    0.6374563  
C  -10.0134469   -0.6497535   -0.1286555  
O   -9.5192563   -1.4123268   -1.1471209  
C  -11.4048070   -0.6500971    0.1300579  
O  -12.1280874   -1.4607642   -0.7202531  
C  -11.9584091    0.1010375    1.1458567  
H  -12.2377448    2.0160059    3.5251432  
H   -8.1286418    1.8982515    2.6290006  
H  -10.2773055   -1.8578480   -1.5472914  
H  -13.0573501   -1.4036486   -0.4777418  
H  -13.0278556    0.0807328    1.3200735  
H   -9.7915701    2.9359686    4.1874765  
C    2.5528530    2.1414826    2.8079335  
C    2.0663498    1.7338582    4.0032312  
C    0.9804344    0.8229586    3.6752840  
C    0.9495562    0.7966882    2.1971295  
N    1.8690446    1.5676019    1.6831036  
C    0.0000000    0.0000000    1.4700000  
C   -0.8785127   -0.7372425    2.1869543  
O   -1.8187535   -1.5261249    1.6395491  
C   -0.8723269   -0.7321790    3.6796354  
O   -1.7010379   -1.4274584    4.2670412  
C    0.1115397    0.0933559    4.4024240  
H    2.4028853    2.0163452    4.9860947  
H   -2.2861435   -1.9184361    2.3990168  
H    0.0832434    0.0693689    5.4835595  
H    3.3664920    2.8238276    2.6198634  
