60

C    1.1188641    0.0008220   -0.8003808  
C    0.0000000    0.0000000    0.0000000  
C   -1.1323866    0.0008906   -0.8673522  
C   -0.6382666    0.0019686   -2.1969277  
N    0.7324014    0.0038484   -2.1202240  
C   -1.4770914    0.0027331   -3.3154805  
C   -2.8395481    0.0020961   -3.0876854  
O   -3.7039204    0.0024448   -4.1440347  
C   -3.3517874    0.0013946   -1.7684327  
O   -4.7300495    0.0012386   -1.7073120  
C   -2.5248549    0.0009135   -0.6644811  
H   -1.1067577    0.0037001   -4.3313811  
H   -4.5940041    0.0021855   -3.7685124  
H   -4.9934602    0.0007280   -0.7819907  
H   -2.9462581    0.0005613    0.3339664  
H    2.1619892    0.0009349   -0.5342070  
C    4.4769653   -2.1470646   -2.7027291  
C    4.8409674   -1.7539562   -3.9455273  
C    3.7877256   -0.8472137   -4.3756423  
C    2.8430643   -0.8072144   -3.2387173  
N    3.2418487   -1.5671443   -2.2551183  
C    1.6478429   -0.0100098   -3.2703000  
C    1.4074689    0.7146095   -4.3867597  
O    0.3314538    1.5023762   -4.5530620  
C    2.3418713    0.6955153   -5.5506701  
O    2.0597581    1.3797252   -6.5342807  
C    3.5612144   -0.1302661   -5.4939936  
H    5.7161623   -2.0434626   -4.5016712  
H    0.4389875    1.8844071   -5.4428040  
H    4.2123683   -0.1166603   -6.3577324  
C    5.1844436   -3.0673590   -1.8008239  
C    6.3529411   -3.7303387   -1.9986778  
C    6.6063706   -4.5021966   -0.8050096  
C    5.4816567   -4.2326391    0.1110404  
N    4.6549801   -3.3552203   -0.5520070  
C    5.3502881   -4.7755216    1.3478609  
C    6.3858502   -5.6859059    1.8075857  
O    6.3583915   -6.2260777    2.9056575  
C    7.5862145   -5.9855519    0.8540956  
O    8.4642823   -6.7501975    1.2303609  
C    7.6173243   -5.3402495   -0.4560451  
H    6.9673288   -3.6838280   -2.8801415  
H    4.5172556   -4.5646777    2.0039941  
H    8.4517691   -5.5531547   -1.1103368  
H    3.7979119   -2.9830487   -0.1859873  
C    0.0000000    0.0000000    1.4700000  
C    1.0662921    0.0000102    2.3034270  
C    0.4961870   -0.0000064    3.6418889  
C   -0.9663858    0.0000850    3.4240247  
N   -1.2632773    0.0000084    2.1528658  
C   -1.8985362    0.0000517    4.5177257  
C   -1.3925775   -0.0004564    5.7720543  
O   -2.1456383   -0.0005410    6.8851312  
C    0.0786232   -0.0009323    6.0245000  
O    0.4683759   -0.0012588    7.1921102  
C    1.0143166   -0.0008442    4.8859032  
H    2.1107198   -0.0000632    2.0421868  
H   -2.9622183    0.0003270    4.3293377  
H   -1.5042274   -0.0009692    7.6184419  
H    2.0724152   -0.0013148    5.1109744  
