60

C    3.2798085    0.0005856   -1.4499646  
C    2.5571146    0.0005565   -2.5996553  
C    1.1637436    0.0001548   -2.2210360  
C    1.1336964   -0.0000200   -0.7459468  
N    2.4483512   -0.0001429   -0.3402719  
C    0.0000000    0.0000000    0.0000000  
C   -1.2757371   -0.0000187   -0.6964415  
O   -2.3524597   -0.0000640   -0.1142312  
C   -1.2676493   -0.0000873   -2.2584081  
O   -2.3355761   -0.0004101   -2.8557295  
C    0.0181561    0.0001759   -2.9516296  
H    2.9547354    0.0006074   -3.5989104  
H    2.7563628    0.0012823    0.6148064  
C    5.6938836    0.0012955   -2.2318621  
C    4.7390846    0.0009612   -1.2727278  
C    5.4706528    0.0012028   -0.0152273  
C    6.8949563    0.0015827   -0.4126486  
N    7.0320427    0.0017194   -1.7108000  
C    7.9554491    0.0019522    0.5571143  
C    7.6088223    0.0023314    1.8644720  
O    8.4940073    0.0026941    2.8756536  
C    6.1802421    0.0023343    2.2972775  
O    5.9381793    0.0025673    3.5041850  
C    5.1106701    0.0019076    1.2834041  
H    8.9875889    0.0020186    0.2383707  
H    7.9484087    0.0029342    3.6827935  
H    4.0886164    0.0020393    1.6378557  
H    5.5602507    0.0012642   -3.3019631  
C    2.4064703   -2.0119085   -6.1315532  
C    1.9558551   -1.6301623   -4.9138521  
C    0.8614673   -0.7121807   -5.1897589  
C    0.7870639   -0.6537471   -6.6654397  
N    1.6902156   -1.4136445   -7.2229906  
C   -0.1829371    0.1586453   -7.3467641  
C   -1.0399148    0.8795795   -6.5883597  
O   -1.9953663    1.6801939   -7.0905244  
C   -0.9902406    0.8414490   -5.0969710  
O   -1.8010680    1.5235046   -4.4704093  
C    0.0139740    0.0003878   -4.4216236  
H    2.3209547   -1.9340557   -3.9477121  
H   -0.2145031    0.1824697   -8.4262766  
H   -2.4403317    2.0553968   -6.3092554  
H    3.2136233   -2.6901813   -6.3583206  
C    2.5285572    2.1210227    2.9438989  
C    1.9331703    1.6216660    4.0790748  
C    0.8903039    0.7472258    3.6520102  
C    0.8972198    0.7527806    2.2336141  
N    1.9028376    1.5986179    1.8362361  
C    0.0000000    0.0000000    1.4700000  
C   -0.9207814   -0.7726952    2.1506477  
O   -1.8198395   -1.5274828    1.4542253  
C   -0.9436862   -0.7911793    3.5655508  
O   -1.9197945   -1.6098497    4.0950179  
C   -0.0590329   -0.0485852    4.3195194  
H    2.2150357    1.8593692    5.0905303  
H    2.1533708    1.7953814    0.8841339  
H   -2.3621246   -1.9821033    2.1118817  
H   -1.8668290   -1.5649508    5.0545920  
H   -0.1007624   -0.0827977    5.4019087  
H    3.3491200    2.8096064    2.8367138  
