60

C    3.3041270    0.0001178   -1.5420432  
C    2.5845372   -0.0004779   -0.3695853  
C    1.2040007   -0.0000006   -0.7283591  
C    1.1422373    0.0006039   -2.1454374  
N    2.4348636    0.0026110   -2.6077466  
C   -0.0655186    0.0008800   -2.8497915  
C   -1.2321770    0.0002326   -2.1101397  
O   -2.4392818    0.0001149   -2.7472515  
C   -1.1911209   -0.0000006   -0.6955262  
O   -2.4371522   -0.0002319   -0.1032858  
C    0.0000000    0.0000000    0.0000000  
H    3.0031535   -0.0000661    0.6222580  
H    2.7054625   -0.0071097   -3.5745263  
H   -3.1132993   -0.0000646   -2.0551781  
H   -2.3200286   -0.0004070    0.8516413  
C    6.6801368   -0.0033359    1.2661383  
C    7.7093283   -0.0019929    0.3802272  
C    7.1273472   -0.0004469   -0.9411851  
C    5.6642438   -0.0009741   -0.7511359  
N    5.4589564   -0.0031397    0.6092841  
C    4.7577214    0.0005130   -1.7610465  
C    5.2563290    0.0025581   -3.1263015  
O    4.5202041    0.0039399   -4.1042684  
C    6.8020688    0.0028974   -3.3510091  
O    7.2336226    0.0043062   -4.4960070  
C    7.6791155    0.0014558   -2.1828315  
H    8.7566702   -0.0022581    0.6245396  
H    8.7481207    0.0019069   -2.3470027  
H    6.7110419   -0.0046693    2.3436044  
H    4.5604250   -0.0024244    1.0561488  
C    2.1709832   -2.0097061   -6.1391756  
C    1.7780118   -1.6284991   -4.9015024  
C    0.6718272   -0.7104844   -5.1253423  
C    0.5282232   -0.6514436   -6.5958779  
N    1.4042452   -1.4110423   -7.1955324  
C   -0.4727393    0.1611593   -7.2305726  
C   -1.2932064    0.8817147   -6.4324695  
O   -2.2712237    1.6824665   -6.8888901  
C   -1.1735679    0.8429687   -4.9450735  
O   -1.9541231    1.5247038   -4.2808511  
C   -0.1387086    0.0017020   -4.3179679  
H    2.1880834   -1.9327664   -3.9536951  
H   -0.5549521    0.1854296   -8.3074022  
H   -2.6790404    2.0573119   -6.0874357  
H    2.9666372   -2.6878246   -6.4038700  
C    2.5128556    2.1077716    2.9199648  
C    1.9592212    1.6432552    4.0696553  
C    0.8915788    0.7479214    3.6910360  
C    0.8684491    0.7287414    2.2159470  
N    1.8754542    1.5738793    1.8102719  
C    0.0000000    0.0000000    1.4700000  
C   -0.9772830   -0.8200135    2.1664417  
O   -1.8021297   -1.5120829    1.5842315  
C   -0.9711318   -0.8147624    3.7284083  
O   -1.7894187   -1.5009653    4.3257297  
C    0.0140216    0.0115358    4.4216297  
H    2.2638494    1.8988021    5.0689105  
H    0.0117648    0.0094386    5.5031631  
H    3.3327358    2.7953732    2.7900019  
H    2.1123206    1.7707734    0.8551938  
