58

C    1.0965508    0.0001356   -0.8010304  
C    0.0000000    0.0000000    0.0000000  
C   -1.1546573    0.0001468   -0.8669500  
C   -0.6372028    0.0003516   -2.2486272  
N    0.7342859    0.0007336   -2.1395009  
C   -1.4147758    0.0001350   -3.3608706  
C   -2.8576066   -0.0001052   -3.1854445  
O   -3.6427802   -0.0002499   -4.1244889  
C   -3.4275856   -0.0000729   -1.7311647  
O   -4.6406840    0.0000328   -1.5710034  
C   -2.4891870   -0.0001095   -0.6116733  
H   -1.0150469    0.0001612   -4.3654236  
H   -2.8919124   -0.0002920    0.3920876  
H    2.1388268    0.0000663   -0.5261649  
C    4.4892964   -2.1441338   -2.6751670  
C    4.8760691   -1.7381812   -3.9069090  
C    3.8307824   -0.8270018   -4.3469401  
C    2.8653290   -0.7987569   -3.2272592  
N    3.2460484   -1.5688474   -2.2444047  
C    1.6707625   -0.0012345   -3.2725975  
C    1.4508800    0.7349192   -4.3857302  
O    0.3779831    1.5243966   -4.5636595  
C    2.4065700    0.7278580   -5.5323630  
O    2.1425146    1.4222294   -6.5138639  
C    3.6247965   -0.0985003   -5.4617881  
H    5.7614086   -2.0219348   -4.4498031  
H    0.5018282    1.9156217   -5.4472642  
H    4.2917507   -0.0759649   -6.3131961  
C    5.1801884   -3.0737424   -1.7699618  
C    6.3522407   -3.7346693   -1.9531109  
C    6.5837617   -4.5188593   -0.7630357  
C    5.4423181   -4.2587752    0.1348803  
N    4.6278543   -3.3745112   -0.5341607  
C    5.2882740   -4.8144385    1.3633805  
C    6.3153390   -5.7295656    1.8326513  
O    6.2677431   -6.2810840    2.9243766  
C    7.5331148   -6.0193508    0.8983857  
O    8.4042259   -6.7878778    1.2828233  
C    7.5882513   -5.3605109   -0.4042046  
H    6.9827561   -3.6790462   -2.8225764  
H    4.4432603   -4.6103802    2.0062034  
H    8.4346433   -5.5666494   -1.0451818  
H    3.7641277   -3.0061276   -0.1801582  
C    2.3971438    2.0127888    3.1728260  
C    1.9431056    1.6308205    1.9564670  
C    0.8496017    0.7127664    2.2356185  
C    0.7794028    0.6545384    3.7115134  
N    1.6840587    1.4146091    4.2663826  
C   -0.1885723   -0.1578550    4.3957118  
C   -1.0476298   -0.8789867    3.6398520  
O   -2.0015663   -1.6796266    4.1448486  
C   -1.0022026   -0.8410666    2.1483229  
O   -1.8147390   -1.5232959    1.5241687  
C    0.0000000    0.0000000    1.4700000  
H    2.3054237    1.9346118    0.9892483  
H   -0.2170646   -0.1815267    5.4753125  
H   -2.4487139   -2.0549881    3.3649027  
H    3.2048689    2.6911772    3.3971983  
