60

C    0.0000000    0.0000000    0.0000000  
C    1.0521670   -0.0011919   -0.8862342  
C    0.4917223   -0.0011964   -2.1979131  
C   -0.9187421    0.0003160   -2.0478687  
N   -1.1833164   -0.0009395   -0.7007918  
C   -1.7951689    0.0010375   -3.1372099  
C   -1.2375821    0.0005241   -4.4010433  
O   -2.0474197    0.0015388   -5.4997590  
C    0.1673600   -0.0013571   -4.5711965  
O    0.5673544   -0.0020698   -5.8915553  
C    1.0325779   -0.0023428   -3.4969889  
H    2.0953060   -0.0030681   -0.6200556  
H   -2.0989773    0.0102402   -0.2891833  
H   -1.4634865    0.0006518   -6.2693599  
H    1.5290736   -0.0033179   -5.9180045  
H    2.1042161   -0.0039640   -3.6584449  
C   -4.5107076    2.0951330   -0.3556552  
C   -3.4200295    1.6321287   -1.0190736  
C   -3.9000899    0.7371487   -2.0454207  
C   -5.3703952    0.7165734   -1.9247152  
N   -5.6767082    1.5600108   -0.8817983  
C   -6.1968221   -0.0116911   -2.7174027  
C   -5.5982295   -0.8300289   -3.7588177  
O   -6.2574702   -1.5216451   -4.5239124  
C   -4.0430709   -0.8236675   -3.9045812  
O   -3.5277081   -1.5089273   -4.7775535  
C   -3.2578642    0.0024087   -2.9908519  
H   -2.3960516    1.8881747   -0.8128629  
H   -7.2728535   -0.0125376   -2.6122056  
H   -4.5607691    2.7820827    0.4734911  
C   -7.4453756    5.3159911    0.4418043  
C   -8.7082115    4.9420843    0.7532843  
C   -8.7569724    3.5154179    0.4726683  
C   -7.4003201    3.1846841   -0.0138427  
N   -6.6270252    4.2361575   -0.0340497  
C   -7.0358069    1.8501255   -0.4026493  
C   -7.9833959    0.8895559   -0.3092943  
O   -7.7820291   -0.3978558   -0.6380238  
C   -9.3614524    1.1918091    0.1783176  
O  -10.1731359    0.2682767    0.2372927  
C   -9.7108354    2.5685932    0.5711559  
H   -9.5078578    5.5582843    1.1273661  
H   -8.6356754   -0.8343568   -0.4650858  
H  -10.7195620    2.7462812    0.9191876  
H   -7.0077675    6.2992084    0.5107685  
C    1.0672568    0.0000697    2.3021913  
C    0.0000000    0.0000000    1.4700000  
C   -1.1601224    0.0000736    2.3478473  
C   -0.5938729    0.0000769    3.7138435  
N    0.7113367    0.0001554    3.6934124  
C   -1.4286986    0.0001879    4.8835240  
C   -2.7683114    0.0006799    4.6970523  
O   -3.6653903    0.0008304    5.6976972  
C   -3.3702025    0.0010610    3.3310774  
O   -4.5974910    0.0013779    3.2362962  
C   -2.4926826    0.0008943    2.1470656  
H   -0.9878360   -0.0000190    5.8697035  
H   -4.5324246    0.0012261    5.2533954  
H   -2.9677772    0.0012974    1.1752040  
H    2.1134392    0.0000545    2.0405121  
