58

C    1.0343283   -0.0598044   -8.7440205  
C    2.1153465   -0.7251827   -9.2133303  
C    2.2224372   -0.3295329  -10.6092138  
C    1.0949100    0.6037367  -10.8196299  
N    0.3949556    0.7658240   -9.7297772  
C    0.8496389    1.2261716  -12.0914413  
C    1.6926811    0.9300443  -13.1067843  
O    1.5826936    1.4380693  -14.3460801  
C    2.8398704   -0.0076920  -12.9257617  
O    3.5665731   -0.2313538  -13.8938007  
C    3.0703984   -0.6334454  -11.6115256  
H    2.7604674   -1.4009464   -8.6783181  
H    0.0180050    1.9040789  -12.2168864  
H    2.3222934    1.0433414  -14.8424005  
H    3.9122479   -1.3068010  -11.5214615  
C    2.0485057   -2.1404841   -4.9352597  
C    2.0920575   -1.7327544   -6.2250030  
C    0.9665701   -0.8221932   -6.3687264  
C    0.3351124   -0.7962138   -5.0318758  
N    0.9649966   -1.5669927   -4.1874018  
C   -0.8287665    0.0000939   -4.7555305  
C   -1.3384137    0.7372507   -5.7685430  
O   -2.4204377    1.5257894   -5.6524722  
C   -0.7235766    0.7324748   -7.1287316  
O   -1.2406167    1.4276566   -8.0031531  
C    0.4698625   -0.0926717   -7.3871127  
H    2.8005017   -2.0149674   -6.9849629  
H   -2.5373015    1.9181276   -6.5365349  
H    2.7147576   -2.8226586   -4.4315535  
C    1.0672569   -0.0000698   -0.8321910  
C    0.0000000    0.0000000    0.0000000  
C   -1.1601223   -0.0000736   -0.8778472  
C   -0.5938729   -0.0000768   -2.2438435  
N    0.7113367   -0.0001553   -2.2234123  
C   -1.4286985   -0.0001877   -3.4135239  
C   -2.7683113   -0.0006798   -3.2270524  
O   -3.6653902   -0.0008302   -4.2276970  
C   -3.3702024   -0.0010610   -1.8610774  
O   -4.5974910   -0.0013779   -1.7662963  
C   -2.4926825   -0.0008943   -0.6770658  
H   -4.5324245   -0.0012258   -3.7833954  
H   -2.9677772   -0.0012974    0.2947961  
H    2.1134391   -0.0000547   -0.5705119  
C    2.3971438    2.0127888    3.1728260  
C    1.9431056    1.6308205    1.9564670  
C    0.8496017    0.7127664    2.2356185  
C    0.7794028    0.6545384    3.7115134  
N    1.6840587    1.4146091    4.2663826  
C   -0.1885723   -0.1578550    4.3957118  
C   -1.0476298   -0.8789867    3.6398520  
O   -2.0015663   -1.6796266    4.1448486  
C   -1.0022026   -0.8410666    2.1483229  
O   -1.8147390   -1.5232959    1.5241687  
C    0.0000000    0.0000000    1.4700000  
H    2.3054237    1.9346118    0.9892483  
H   -0.2170646   -0.1815267    5.4753125  
H   -2.4487139   -2.0549881    3.3649027  
H    3.2048689    2.6911772    3.3971983  
