64

C    2.8320535   -0.6842462   -3.3638061  
C    1.6628945    0.0339172   -3.2649299  
C    1.5251283    0.7739972   -4.4765000  
C    2.6497195    0.4643214   -5.2835456  
N    3.4240287   -0.4223174   -4.5771929  
C    2.8441976    1.0160065   -6.5534315  
C    1.8857970    1.8961105   -7.0171810  
O    2.0260221    2.4635783   -8.2506025  
C    0.7569696    2.2178791   -6.2265923  
O   -0.1068563    3.1097690   -6.8279900  
C    0.5646030    1.6742142   -4.9736157  
H    3.6992250    0.7841691   -7.1734163  
H    1.2587970    3.0370522   -8.3761375  
H   -0.8411877    3.2733637   -6.2283245  
H   -0.3098401    1.9397123   -4.3910880  
H    3.2912523   -1.3614900   -2.6642093  
C    5.0706687   -2.3196003   -4.8404959  
C    6.3068140   -2.5217118   -5.4093232  
C    6.7012884   -1.2841394   -5.9987323  
C    5.6570287   -0.3556117   -5.7552548  
N    4.6817177   -1.0174624   -5.0514513  
C    5.7062995    0.9705140   -6.1954262  
C    6.8303554    1.3665926   -6.8938529  
O    6.9304389    2.6504311   -7.3463515  
C    7.8825833    0.4547120   -7.1470472  
O    8.9330752    1.0008693   -7.8552291  
C    7.8345320   -0.8537664   -6.7133400  
H    6.8561028   -3.4475695   -5.4014724  
H    4.9136729    1.6830773   -6.0132217  
H    7.7803785    2.7141760   -7.8011100  
H    9.6002148    0.3196389   -7.9835013  
H    8.6557503   -1.5293014   -6.9224614  
H    4.4350266   -3.0016488   -4.3022317  
C    1.1243410    0.0100105   -0.7919003  
C    0.7474072    0.0234665   -2.1148542  
C   -0.6787384    0.0234379   -2.1414698  
C   -1.1201748    0.0098411   -0.7935547  
N    0.0000000    0.0000000    0.0000000  
C   -2.4730818    0.0063307   -0.4408240  
C   -3.3971962    0.0170429   -1.4675058  
O   -4.7313520    0.0145490   -1.1793468  
C   -2.9763654    0.0303020   -2.8186325  
O   -4.0166484    0.0394464   -3.7247625  
C   -1.6418567    0.0334992   -3.1673480  
H   -2.8160166   -0.0041569    0.5845966  
H   -5.1938823    0.0230023   -2.0274386  
H   -3.6464680    0.0481700   -4.6127343  
H   -1.3497475    0.0435647   -4.2109234  
H    2.1062466    0.0053162   -0.3505405  
C    0.8175213    0.6860729    2.3021913  
C    0.0000000    0.0000000    1.4700000  
C   -0.8887526   -0.7456559    2.3478473  
C   -0.4549825   -0.3816753    3.7138435  
N    0.5448156    0.4573574    3.6934124  
C   -1.0945674   -0.9182058    4.8835240  
C   -2.1210866   -1.7789155    4.6970523  
O   -2.8083856   -2.3554314    5.6976972  
C   -2.5824069   -2.1655116    3.3310774  
O   -3.5227682   -2.9541547    3.2362962  
C   -1.9100805   -1.6015804    2.1470656  
H   -0.7567140   -0.6349833    5.8697035  
H   -3.4728268   -2.9124471    5.2533954  
H   -2.2742832   -1.9066565    1.1752040  
H    1.6189533    1.3585343    2.0405121  
