58

C   -2.7898012    1.7245737   -1.4499646  
C   -2.1751312    1.3444851   -2.5996552  
C   -0.9898512    0.6119592   -2.2210361  
C   -0.9642038    0.5963042   -0.7459475  
N   -2.0822594    1.2878743   -0.3402720  
C    0.0000000    0.0000000    0.0000000  
C    1.0850297   -0.6709800   -0.6964416  
O    2.0008119   -1.2372626   -0.1142317  
C    1.0781874   -0.6666680   -2.2584086  
O    1.9866339   -1.2280880   -2.8557302  
C   -0.0155348    0.0093995   -2.9516300  
H   -0.0129997    0.0076486   -4.0331632  
H   -3.7000256    2.2871492   -1.3200018  
H   -2.3449740    1.4486662    0.6148062  
C   -3.9891841    4.9220661   -4.4453418  
C   -3.4334311    4.0359821   -3.5792769  
C   -3.1760505    2.8253757   -4.3229315  
C   -3.6306445    3.0806443   -5.7031389  
N   -4.1131710    4.3690536   -5.7108634  
C   -3.5582265    2.1797785   -6.7155130  
C   -2.9951664    0.8713756   -6.4264092  
O   -2.8868574   -0.0084603   -7.2704824  
C   -2.5076179    0.5791349   -4.9715219  
O   -2.0320644   -0.5189897   -4.7161158  
C   -2.6374098    1.6302843   -3.9654948  
H   -3.2274741    4.2104471   -2.5382402  
H   -3.8972534    2.3872007   -7.7209714  
H   -4.4945848    4.8364072   -6.5128304  
C   -4.3953211    6.9954466   -3.0398995  
C   -4.4386983    6.2999952   -4.2000917  
C   -5.0307733    7.2148914   -5.1638928  
C   -5.2904834    8.4504247   -4.3940925  
N   -4.9199780    8.3277872   -3.1484299  
C   -5.8809984    9.6130888   -4.9979040  
C   -6.1973147    9.5447047   -6.3111451  
O   -6.7534742   10.5538716   -7.0027436  
C   -5.9472058    8.3121481   -7.1151419  
O   -6.2603786    8.3207437   -8.3055499  
C   -5.3404464    7.1326449   -6.4728498  
H   -6.0597408   10.5024670   -4.4114168  
H   -6.8591743   10.2062941   -7.9067178  
H   -5.1754551    6.2594689   -7.0897552  
H   -4.0234045    6.6671824   -2.0823538  
C    2.5528530    2.1414826    2.8079335  
C    2.0663498    1.7338582    4.0032312  
C    0.9804344    0.8229586    3.6752840  
C    0.9495562    0.7966882    2.1971295  
N    1.8690446    1.5676019    1.6831036  
C    0.0000000    0.0000000    1.4700000  
C   -0.8785127   -0.7372425    2.1869543  
O   -1.8187535   -1.5261249    1.6395491  
C   -0.8723269   -0.7321790    3.6796354  
O   -1.7010379   -1.4274584    4.2670412  
C    0.1115397    0.0933559    4.4024240  
H    2.4028853    2.0163452    4.9860947  
H   -2.2861435   -1.9184361    2.3990168  
H    0.0832434    0.0693689    5.4835595  
H    3.3664920    2.8238276    2.6198634  
