58

C    3.3321170    0.0004715   -1.3379343  
C    2.6974170    0.0000118   -2.5332318  
C    1.2800431   -0.0002116   -2.2052843  
C    1.2395030    0.0000645   -0.7271298  
N    2.4394059    0.0005460   -0.2131043  
C    0.0000000    0.0000000    0.0000000  
C   -1.1468695    0.0000636   -0.7169537  
O   -2.3742196    0.0000075   -0.1695480  
C   -1.1388784    0.0001610   -2.2096352  
O   -2.2206248    0.0000908   -2.7970407  
C    0.1454516    0.0001819   -2.9324240  
H    3.1367973   -0.0000649   -3.5160956  
H   -2.9844342    0.0001028   -0.9290158  
H    0.1083566    0.0003685   -4.0135594  
C    6.6781260    0.0000526   -4.1292996  
C    7.7444179    0.0009684   -3.2958731  
C    7.1743131    0.0014026   -1.9574113  
C    5.7117403    0.0007370   -2.1752749  
N    5.4148486   -0.0001363   -3.4464333  
C    4.7795902    0.0008673   -1.0815736  
C    5.2855489    0.0012390    0.1727547  
O    4.5324886    0.0014069    1.2858318  
C    6.7567501    0.0015420    0.4252000  
O    7.1465029    0.0019987    1.5928100  
C    7.6924431    0.0014446   -0.7133970  
H    8.7888451    0.0012169   -3.5571138  
H    5.1739003    0.0016449    2.0191424  
H    6.6781257   -0.0005127   -5.2077115  
C   10.1142852    0.6877085   -1.0340935  
C    9.1302746    0.0015972   -0.4075520  
C    9.8040657   -0.7439153    0.6444533  
C   11.2303861   -0.3798184    0.5043531  
N   11.4183425    0.4591535   -0.4778832  
C   12.2414473   -0.9161898    1.3733452  
C   11.8455585   -1.7768586    2.3386719  
O   12.6813592   -2.3532301    3.2191679  
C   10.4135287   -2.1635694    2.5057258  
O   10.1252429   -2.9521671    3.4058511  
C    9.3952589   -1.5998006    1.6017246  
H   13.2763134   -0.6328848    1.2480451  
H   12.1085881   -2.9102531    3.7766724  
H    8.3689178   -1.9049563    1.7557781  
H   10.0250162    1.3600957   -1.8724852  
C    2.5528530    2.1414826    2.8079335  
C    2.0663498    1.7338582    4.0032312  
C    0.9804344    0.8229586    3.6752840  
C    0.9495562    0.7966882    2.1971295  
N    1.8690446    1.5676019    1.6831036  
C    0.0000000    0.0000000    1.4700000  
C   -0.8785127   -0.7372425    2.1869543  
O   -1.8187535   -1.5261249    1.6395491  
C   -0.8723269   -0.7321790    3.6796354  
O   -1.7010379   -1.4274584    4.2670412  
C    0.1115397    0.0933559    4.4024240  
H    2.4028853    2.0163452    4.9860947  
H   -2.2861435   -1.9184361    2.3990168  
H    0.0832434    0.0693689    5.4835595  
H    3.3664920    2.8238276    2.6198634  
