58

C   -2.7898012    1.7245737   -1.4499646  
C   -2.1751312    1.3444851   -2.5996552  
C   -0.9898512    0.6119592   -2.2210361  
C   -0.9642038    0.5963042   -0.7459475  
N   -2.0822594    1.2878743   -0.3402720  
C    0.0000000    0.0000000    0.0000000  
C    1.0850297   -0.6709800   -0.6964416  
O    2.0008119   -1.2372626   -0.1142317  
C    1.0781874   -0.6666680   -2.2584086  
O    1.9866339   -1.2280880   -2.8557302  
C   -0.0155348    0.0093995   -2.9516300  
H   -0.0129997    0.0076486   -4.0331632  
H   -3.7000256    2.2871492   -1.3200018  
H   -2.3449740    1.4486662    0.6148062  
C   -3.9891841    4.9220661   -4.4453418  
C   -3.4334311    4.0359821   -3.5792769  
C   -3.1760505    2.8253757   -4.3229315  
C   -3.6306445    3.0806443   -5.7031389  
N   -4.1131710    4.3690536   -5.7108634  
C   -3.5582265    2.1797785   -6.7155130  
C   -2.9951664    0.8713756   -6.4264092  
O   -2.8868574   -0.0084603   -7.2704824  
C   -2.5076179    0.5791349   -4.9715219  
O   -2.0320644   -0.5189897   -4.7161158  
C   -2.6374098    1.6302843   -3.9654948  
H   -3.2274741    4.2104471   -2.5382402  
H   -3.8972534    2.3872007   -7.7209714  
H   -4.4945848    4.8364072   -6.5128304  
C   -4.0850902    7.6482781   -0.9207123  
C   -3.8793801    6.5549032   -1.6912930  
C   -4.3634761    6.9296754   -3.0110270  
C   -4.8397696    8.3205386   -2.8521981  
N   -4.6790773    8.7472013   -1.6290355  
C   -5.4017139    9.0620614   -3.9473918  
C   -5.4837426    8.4424184   -5.1468282  
O   -5.9857984    9.0145051   -6.2543926  
C   -5.0112718    7.0395637   -5.3390049  
O   -5.1167469    6.5385327   -6.4584081  
C   -4.4386983    6.2999952   -4.2000917  
H   -3.4518424    5.6107062   -1.4001238  
H   -5.7420184   10.0770430   -3.8027669  
H   -5.9103070    8.3296681   -6.9431980  
H   -3.8589451    7.7751056    0.1260671  
C    2.3971438    2.0127888    3.1728260  
C    1.9431056    1.6308205    1.9564670  
C    0.8496017    0.7127664    2.2356185  
C    0.7794028    0.6545384    3.7115134  
N    1.6840587    1.4146091    4.2663826  
C   -0.1885723   -0.1578550    4.3957118  
C   -1.0476298   -0.8789867    3.6398520  
O   -2.0015663   -1.6796266    4.1448486  
C   -1.0022026   -0.8410666    2.1483229  
O   -1.8147390   -1.5232959    1.5241687  
C    0.0000000    0.0000000    1.4700000  
H    2.3054237    1.9346118    0.9892483  
H   -0.2170646   -0.1815267    5.4753125  
H   -2.4487139   -2.0549881    3.3649027  
H    3.2048689    2.6911772    3.3971983  
