62

C    3.3041267    0.0001175   -1.5420439  
C    2.5845370   -0.0004782   -0.3695860  
C    1.2040003   -0.0000009   -0.7283592  
C    1.1422366    0.0006035   -2.1454375  
N    2.4348631    0.0026107   -2.6077472  
C   -0.0655191    0.0008795   -2.8497916  
C   -1.2321778    0.0002322   -2.1101394  
O   -2.4392824    0.0001145   -2.7472511  
C   -1.1911212   -0.0000009   -0.6955261  
O   -2.4371528   -0.0002321   -0.1032854  
C    0.0000000    0.0000000    0.0000000  
H    3.0031537   -0.0000662    0.6222575  
H   -0.1193561    0.0014840   -3.9297468  
H   -3.1132997   -0.0000649   -2.0551772  
H   -2.3200277   -0.0004071    0.8516418  
H    4.3686617    0.0004070   -1.7024307  
C    5.6718678   -2.1292829   -4.7374678  
C    5.4024558   -1.6450690   -5.9966031  
C    4.2795461   -0.7737664   -5.8761641  
C    3.9039350   -0.7655396   -4.5084013  
N    4.7686513   -1.6005167   -3.8453050  
C    2.8310651   -0.0116223   -4.0232761  
C    2.1246898    0.7480616   -4.9354667  
O    1.0681509    1.5033226   -4.5155605  
C    2.4839098    0.7526865   -6.3043187  
O    1.6833222    1.5594237   -7.0863539  
C    3.5420376    0.0089614   -6.7836564  
H    5.9474631   -1.8905999   -6.8919658  
H    4.7540920   -1.7863154   -2.8587714  
H    0.7213527    1.9477941   -5.3000615  
H    1.9931383    1.5056033   -7.9955959  
H    6.4359560   -2.8111065   -4.4054367  
C    4.8131122   -3.1527490   -9.5533668  
C    4.9490984   -2.4172743  -10.6867951  
C    4.6088988   -1.0554601  -10.3483249  
C    4.2611024   -1.0578537   -8.9145110  
N    4.4046223   -2.3593269   -8.4920672  
C    3.8830527    0.0407581   -8.2132013  
C    3.8138886    1.3102277   -8.9176147  
O    3.4840637    2.3563482   -8.3743386  
C    4.1776352    1.3360490  -10.4364391  
O    4.1227672    2.3989841  -11.0401099  
C    4.5712322    0.0867820  -11.0831731  
H    5.2528646   -2.7866243  -11.6500811  
H    4.8217220    0.1132295  -12.1349713  
H    4.9767373   -4.2076675   -9.4041575  
H    4.2401245   -2.6825899   -7.5563917  
C    2.3971438    2.0127888    3.1728260  
C    1.9431056    1.6308205    1.9564670  
C    0.8496017    0.7127664    2.2356185  
C    0.7794028    0.6545384    3.7115134  
N    1.6840587    1.4146091    4.2663826  
C   -0.1885723   -0.1578550    4.3957118  
C   -1.0476298   -0.8789867    3.6398520  
O   -2.0015663   -1.6796266    4.1448486  
C   -1.0022026   -0.8410666    2.1483229  
O   -1.8147390   -1.5232959    1.5241687  
C    0.0000000    0.0000000    1.4700000  
H    2.3054237    1.9346118    0.9892483  
H   -0.2170646   -0.1815267    5.4753125  
H   -2.4487139   -2.0549881    3.3649027  
H    3.2048689    2.6911772    3.3971983  
