58

C   -6.7218109    2.1175765    0.3721797  
C   -6.8671350    2.9611792    1.4204143  
C   -8.2960408    2.9777018    1.6932730  
C   -8.8781200    2.0631658    0.6875928  
N   -7.9601455    1.5558903   -0.0895699  
C  -10.2899576    1.8032607    0.6223973  
C  -11.0841514    2.4282529    1.5212711  
O  -12.4185441    2.2783867    1.5758344  
C  -10.5267146    3.3566161    2.5486791  
O  -11.3085619    3.8908890    3.3351194  
C   -9.0751137    3.6068743    2.5950596  
H   -6.0994745    3.5050050    1.9438909  
H  -10.6880228    1.1304609   -0.1231189  
H  -12.7018112    2.8463067    2.3150092  
H   -8.7109289    4.2858650    3.3543827  
C   -4.2186860    2.1401322   -0.0437259  
C   -5.4804245    1.7323143   -0.3144294  
C   -5.3466892    0.8217466   -1.4411418  
C   -3.8965662    0.7958598   -1.7293371  
N   -3.2302256    1.5666944   -0.9133754  
C   -3.3460097   -0.0004262   -2.7913647  
C   -4.2050299   -0.7376506   -3.5315798  
O   -3.8298208   -1.5261789   -4.5530897  
C   -5.6737591   -0.7329690   -3.2651707  
O   -6.3965397   -1.4282085   -3.9789286  
C   -6.2140638    0.0921571   -2.1701078  
H   -4.6590779   -1.9185769   -4.8809753  
H   -7.2835615    0.0679009   -2.0094319  
H   -3.8917471    2.8223391    0.7248295  
C    0.0000000    0.0000000    0.0000000  
C    1.0662919   -0.0000103   -0.8334272  
C    0.4961868    0.0000066   -2.1718889  
C   -0.9663860   -0.0000849   -1.9540248  
N   -1.2632775   -0.0000084   -0.6828659  
C   -1.8985364   -0.0000515   -3.0477258  
C   -1.3925778    0.0004567   -4.3020543  
O   -2.1456385    0.0005412   -5.4151314  
C    0.0786229    0.0009326   -4.5544999  
O    0.4683756    0.0012594   -5.7221104  
C    1.0143162    0.0008443   -3.4159034  
H    2.1107195    0.0000631   -0.5721869  
H   -1.5042277    0.0009692   -6.1484420  
H    2.0724151    0.0013151   -3.6409746  
C    1.0672568    0.0000697    2.3021913  
C    0.0000000    0.0000000    1.4700000  
C   -1.1601224    0.0000736    2.3478473  
C   -0.5938729    0.0000769    3.7138435  
N    0.7113367    0.0001554    3.6934124  
C   -1.4286986    0.0001879    4.8835240  
C   -2.7683114    0.0006799    4.6970523  
O   -3.6653903    0.0008304    5.6976972  
C   -3.3702025    0.0010610    3.3310774  
O   -4.5974910    0.0013779    3.2362962  
C   -2.4926826    0.0008943    2.1470656  
H   -0.9878360   -0.0000190    5.8697035  
H   -4.5324246    0.0012261    5.2533954  
H   -2.9677772    0.0012974    1.1752040  
H    2.1134392    0.0000545    2.0405121  
