58

C    6.5739137    0.0018721   -4.3537915  
C    7.6280829    0.0019470   -3.4977528  
C    7.0842286    0.0017737   -2.1601960  
C    5.6162776    0.0015611   -2.3082178  
N    5.3720684    0.0020316   -3.6621941  
C    4.7390840    0.0009613   -1.2727298  
C    5.2766310    0.0007201    0.0776699  
O    4.5688490    0.0002470    1.0763413  
C    6.8281778    0.0011907    0.2579657  
O    7.2923831    0.0012996    1.3901206  
C    7.6713704    0.0015461   -0.9348787  
H    8.6679891    0.0022879   -3.7719937  
H    8.7446421    0.0016655   -0.8014251  
H    4.4610946    0.0004680   -4.0831113  
C    7.6704639    0.0030613   -6.6248222  
C    6.5739134    0.0019520   -5.8237915  
C    5.4192571    0.0011669   -6.6907425  
C    5.9367106    0.0018857   -8.0724192  
N    7.3081985    0.0034248   -7.9632927  
C    5.1591383    0.0010702   -9.1846622  
C    3.7163081   -0.0004031   -9.0092359  
O    2.9311353   -0.0011624   -9.9482803  
C    3.1463298   -0.0009333   -7.5549570  
O    1.9332313   -0.0018648   -7.3947954  
C    4.0847273   -0.0002349   -6.4354653  
H    5.5588669    0.0014900  -10.1892152  
H    3.6820025   -0.0008137   -5.4317042  
H    8.7127389    0.0038608   -6.3499570  
H    7.9474993    0.0026654   -8.7368182  
C    3.2798077    0.0005856   -1.4499661  
C    2.5571132    0.0005565   -2.5996564  
C    1.1637425    0.0001547   -2.2210366  
C    1.1336959   -0.0000200   -0.7459475  
N    2.4483509   -0.0001429   -0.3402730  
C    0.0000000    0.0000000    0.0000000  
C   -1.2757370   -0.0000187   -0.6964411  
O   -2.3524597   -0.0000640   -0.1142306  
C   -1.2676502   -0.0000874   -2.2584078  
O   -2.3355774   -0.0004102   -2.8557287  
C    0.0181551    0.0001758   -2.9516297  
H    2.9547342    0.0006074   -3.5989118  
H    0.0150776    0.0003317   -4.0331632  
H    2.7563626    0.0012823    0.6148051  
C    0.8175213    0.6860729    2.3021913  
C    0.0000000    0.0000000    1.4700000  
C   -0.8887526   -0.7456559    2.3478473  
C   -0.4549825   -0.3816753    3.7138435  
N    0.5448156    0.4573574    3.6934124  
C   -1.0945674   -0.9182058    4.8835240  
C   -2.1210866   -1.7789155    4.6970523  
O   -2.8083856   -2.3554314    5.6976972  
C   -2.5824069   -2.1655116    3.3310774  
O   -3.5227682   -2.9541547    3.2362962  
C   -1.9100805   -1.6015804    2.1470656  
H   -0.7567140   -0.6349833    5.8697035  
H   -3.4728268   -2.9124471    5.2533954  
H   -2.2742832   -1.9066565    1.1752040  
H    1.6189533    1.3585343    2.0405121  
