60

C    1.1243413    0.0100079   -0.7919010  
C    0.7474070    0.0234651   -2.1148550  
C   -0.6787388    0.0234399   -2.1414702  
C   -1.1201747    0.0098438   -0.7935545  
N    0.0000000    0.0000000    0.0000000  
C   -2.4730817    0.0063369   -0.4408242  
C   -3.3971961    0.0170512   -1.4675056  
O   -4.7313521    0.0145605   -1.1793465  
C   -2.9763657    0.0303099   -2.8186320  
O   -4.0166484    0.0394565   -3.7247623  
C   -1.6418570    0.0335037   -3.1673482  
H    1.4178708    0.0311173   -2.9571212  
H   -2.8160165   -0.0041501    0.5845966  
H   -5.1938822    0.0230152   -2.0274380  
H   -3.6464686    0.0481796   -4.6127344  
H    2.1062466    0.0053110   -0.3505410  
C   -0.2339312   -0.6331207   -5.1704656  
C   -1.2456341    0.0471560   -4.5828766  
C   -1.8650203    0.8030657   -5.6605875  
C   -1.0790456    0.4507462   -6.8625437  
N   -0.1215984   -0.3908400   -6.5814426  
C   -1.3797858    0.9996517   -8.1561217  
C   -2.4187375    1.8610562   -8.2449812  
O   -2.8109953    2.4484903   -9.3882643  
C   -3.2312411    2.2360566   -7.0502540  
O   -4.1624961    3.0260431   -7.2048758  
C   -2.9028290    1.6595399   -5.7343140  
H   -3.5707074    3.0029504   -9.1341700  
H   -3.5155652    1.9564509   -4.8937021  
H    0.4674337   -1.3099070   -4.7089236  
C    0.4629267   -2.7660451   -9.6688618  
C   -0.2224573   -1.8956475   -8.8915352  
C   -0.1182012   -0.6172437   -9.5780583  
C    0.6860084   -0.9066923  -10.7847270  
N    1.0294858   -2.1646945  -10.8434099  
C    1.0173504    0.1135319  -11.7409920  
C    0.5654873    1.3659029  -11.5028278  
O    0.7993940    2.4144253  -12.3102489  
C   -0.2486812    1.6895251  -10.2942915  
O   -0.6263010    2.8510928  -10.1413732  
C   -0.5752495    0.6256153   -9.3281787  
H   -0.7354980   -2.0963575   -7.9665593  
H    1.6068014   -0.1261986  -12.6139101  
H    0.3526586    3.1646473  -11.8781075  
H    0.6214078   -3.8201041   -9.5051040  
C    0.8175213    0.6860729    2.3021913  
C    0.0000000    0.0000000    1.4700000  
C   -0.8887526   -0.7456559    2.3478473  
C   -0.4549825   -0.3816753    3.7138435  
N    0.5448156    0.4573574    3.6934124  
C   -1.0945674   -0.9182058    4.8835240  
C   -2.1210866   -1.7789155    4.6970523  
O   -2.8083856   -2.3554314    5.6976972  
C   -2.5824069   -2.1655116    3.3310774  
O   -3.5227682   -2.9541547    3.2362962  
C   -1.9100805   -1.6015804    2.1470656  
H   -0.7567140   -0.6349833    5.8697035  
H   -3.4728268   -2.9124471    5.2533954  
H   -2.2742832   -1.9066565    1.1752040  
H    1.6189533    1.3585343    2.0405121  
