58

C   -0.3742253   -0.0620426   -8.7963141  
C    0.3905873   -0.7280532   -9.6924567  
C   -0.1260953   -0.3326868  -10.9936955  
C   -1.2311104    0.6011280  -10.6878912  
N   -1.3812409    0.7637533   -9.4014228  
C   -2.0097753    1.2234809  -11.7229975  
C   -1.6984238    0.9267541  -13.0053182  
O   -2.3413146    1.4346329  -14.0705839  
C   -0.5886552   -0.0115421  -13.3461631  
O   -0.3610196   -0.2357359  -14.5349188  
C    0.1953954   -0.6371992  -12.2664665  
H    1.2048668   -1.4040612   -9.4948764  
H   -2.8117422    1.9017951  -11.4707112  
H   -1.8949887    1.0394438  -14.8411491  
H    0.9910032   -1.3109729  -12.5550272  
C    2.2088374   -2.1426207   -5.8191636  
C    1.6816912   -1.7351243   -6.9971456  
C    0.6077900   -0.8240080   -6.6323121  
C    0.6276206   -0.7974854   -5.1539730  
N    1.5640846   -1.5684500   -4.6716456  
C   -0.2963293   -0.0005341   -4.3948471  
C   -1.1988048    0.7367190   -5.0813825  
O   -2.1196089    1.5258328   -4.5021932  
C   -1.2438086    0.7314045   -6.5733969  
O   -2.0920751    1.4267088   -7.1321599  
C   -0.2854235   -0.0943978   -7.3293552  
H    1.9842852   -2.0178259   -7.9909228  
H   -2.6127107    1.9180866   -5.2452551  
H    3.0283492   -2.8250551   -5.6589865  
C    3.1301146   -0.0010313   -1.7028256  
C    2.5367765   -0.0002766   -0.4864669  
C    1.1089901    0.0001027   -0.7656184  
C    1.0177865   -0.0004150   -2.2415133  
N    2.1993571   -0.0011612   -2.7963824  
C   -0.2459219   -0.0002879   -2.9257116  
C   -1.3675326   -0.0000606   -2.1698520  
O   -2.6129318    0.0000865   -2.6748483  
C   -1.3083588    0.0000910   -0.6783229  
O   -2.3693264    0.0004206   -0.0541685  
C    0.0000000    0.0000000    0.0000000  
H    3.0096016   -0.0001007    0.4807518  
H   -3.1967444    0.0002093   -1.8949026  
H    4.1849275   -0.0015114   -1.9271979  
C    0.8175213    0.6860729    2.3021913  
C    0.0000000    0.0000000    1.4700000  
C   -0.8887526   -0.7456559    2.3478473  
C   -0.4549825   -0.3816753    3.7138435  
N    0.5448156    0.4573574    3.6934124  
C   -1.0945674   -0.9182058    4.8835240  
C   -2.1210866   -1.7789155    4.6970523  
O   -2.8083856   -2.3554314    5.6976972  
C   -2.5824069   -2.1655116    3.3310774  
O   -3.5227682   -2.9541547    3.2362962  
C   -1.9100805   -1.6015804    2.1470656  
H   -0.7567140   -0.6349833    5.8697035  
H   -3.4728268   -2.9124471    5.2533954  
H   -2.2742832   -1.9066565    1.1752040  
H    1.6189533    1.3585343    2.0405121  
