62

C    3.3003547    0.0005275   -1.4738980  
C    2.5232816    0.0003495   -2.6090742  
C    1.1623206   -0.0001320   -2.1820096  
C    1.1711889    0.0000583   -0.7636136  
N    2.4852300   -0.0014920   -0.3662353  
C    0.0000000    0.0000000    0.0000000  
C   -1.2020382    0.0000519   -0.6806479  
O   -2.3759247    0.0003494    0.0157745  
C   -1.2314650   -0.0005113   -2.0955508  
O   -2.5054383   -0.0008037   -2.6250181  
C   -0.0764510   -0.0007273   -2.8495192  
H    2.8919962   -0.0005621   -3.6205295  
H    2.8036265    0.0088181    0.5858667  
H   -3.0835641    0.0000347   -0.6418820  
H   -2.4360047   -0.0011529   -3.5845921  
C    6.5582218    0.0029724   -4.4647471  
C    7.6103889    0.0023857   -3.5785129  
C    7.0499440    0.0016137   -2.2668342  
C    5.6394785    0.0014820   -2.4168795  
N    5.3749057    0.0042714   -3.7639545  
C    4.7630506    0.0004754   -1.3275394  
C    5.3206369   -0.0007212   -0.0637066  
O    4.5107984   -0.0020883    1.0350081  
C    6.7255803   -0.0002355    0.1064484  
O    7.1255744   -0.0011494    1.4268070  
C    7.5907996    0.0010305   -0.9677582  
H    8.6535293    0.0036053   -3.8446895  
H    4.4592359   -0.0057082   -4.1755733  
H    5.0947319   -0.0024567    1.8046099  
H    8.0872944   -0.0007697    1.4532573  
H    8.6624386    0.0015568   -0.8063008  
H    6.5582220    0.0040130   -5.5412965  
C    2.1601073   -2.0149551   -6.1366355  
C    1.7671254   -1.6323652   -4.8993931  
C    0.6609150   -0.7146343   -5.1242671  
C    0.5173094   -0.6572543   -6.5948687  
N    1.3933527   -1.4175035   -7.1936666  
C   -0.4836758    0.1546050   -7.2304781  
C   -1.3041632    0.8760361   -6.4331874  
O   -2.2822029    1.6762457   -6.8905099  
C   -1.1845238    0.8389692   -4.9457491  
O   -1.9650982    1.5214302   -4.2822953  
C   -0.1496409   -0.0015614   -4.3176961  
H    2.1772052   -1.9355530   -3.9512435  
H   -0.5658892    0.1776598   -8.3073339  
H   -2.6900303    2.0519825   -6.0894778  
H    2.9557804   -2.6933490   -6.4005661  
C    2.5528530    2.1414826    2.8079335  
C    2.0663498    1.7338582    4.0032312  
C    0.9804344    0.8229586    3.6752840  
C    0.9495562    0.7966882    2.1971295  
N    1.8690446    1.5676019    1.6831036  
C    0.0000000    0.0000000    1.4700000  
C   -0.8785127   -0.7372425    2.1869543  
O   -1.8187535   -1.5261249    1.6395491  
C   -0.8723269   -0.7321790    3.6796354  
O   -1.7010379   -1.4274584    4.2670412  
C    0.1115397    0.0933559    4.4024240  
H    2.4028853    2.0163452    4.9860947  
H   -2.2861435   -1.9184361    2.3990168  
H    0.0832434    0.0693689    5.4835595  
H    3.3664920    2.8238276    2.6198634  
