58

C   -1.4376645    2.9479257   -1.4499647  
C   -1.1209701    2.2983171   -2.5996552  
C   -0.5100653    1.0460076   -2.2210362  
C   -0.4967420    1.0190751   -0.7459469  
N   -1.0726836    2.2008573   -0.3402715  
C    0.0000000    0.0000000    0.0000000  
C    0.5590157   -1.1467374   -0.6964417  
O    1.0308522   -2.1145712   -0.1142320  
C    0.5555338   -1.1394373   -2.2584080  
O    1.0237653   -2.0992433   -2.8557298  
C   -0.0081141    0.0162431   -2.9516297  
H   -0.0069058    0.0134090   -4.0331632  
H   -1.9067820    3.9096574   -1.3200018  
H   -1.2089282    2.4771006    0.6148067  
C   -0.8082768    6.2381431   -4.6598579  
C   -0.7684355    5.2870787   -3.6978450  
C   -1.1907428    4.0636489   -4.3622061  
C   -1.4534776    4.4699317   -5.7595206  
N   -1.2309337    5.7434628   -5.9400249  
C   -1.8978907    3.5323188   -6.7537369  
C   -2.0715508    2.2471684   -6.3695952  
O   -2.4821131    1.2668866   -7.1921083  
C   -1.8143855    1.8060886   -4.9669278  
O   -1.9934856    0.6206333   -4.6879306  
C   -1.3591784    2.7868243   -3.9654949  
H   -0.4871170    5.4015857   -2.6649734  
H   -2.0824373    3.8569043   -7.7673918  
H   -2.5098773    0.4695056   -6.6330324  
C    0.5323809    8.5203799   -1.1984236  
C    0.6662632    9.7651752   -1.7123679  
C    0.2907722    9.6355166   -3.1119015  
C   -0.0503829    8.2060142   -3.2753624  
N    0.0892716    7.5473177   -2.1570575  
C   -0.4778548    7.6651832   -4.5362575  
C   -0.5611148    8.5139239   -5.5860391  
O   -0.9456069    8.1459490   -6.8200573  
C   -0.2239838    9.9619379   -5.4527717  
O   -0.3223607   10.6762173   -6.4504427  
C    0.2121040   10.4925756   -4.1488640  
H    0.9808766   10.6607895   -1.2044596  
H   -0.9050002    8.9645017   -7.3468163  
H    0.4470376   11.5470940   -4.0938208  
H    0.7160785    8.1964547   -0.1863460  
C    0.0000000    0.0000000    1.4700000  
C    1.0662921    0.0000102    2.3034270  
C    0.4961870   -0.0000064    3.6418889  
C   -0.9663858    0.0000850    3.4240247  
N   -1.2632773    0.0000084    2.1528658  
C   -1.8985362    0.0000517    4.5177257  
C   -1.3925775   -0.0004564    5.7720543  
O   -2.1456383   -0.0005410    6.8851312  
C    0.0786232   -0.0009323    6.0245000  
O    0.4683759   -0.0012588    7.1921102  
C    1.0143166   -0.0008442    4.8859032  
H    2.1107198   -0.0000632    2.0421868  
H   -2.9622183    0.0003270    4.3293377  
H   -1.5042274   -0.0009692    7.6184419  
H    2.0724152   -0.0013148    5.1109744  
