60

C    0.0000000    0.0000000    0.0000000  
C    1.0521666   -0.0011908   -0.8862345  
C    0.4917224   -0.0011958   -2.1979133  
C   -0.9187422    0.0003157   -2.0478684  
N   -1.1833169   -0.0009403   -0.7007915  
C   -1.7951696    0.0010365   -3.1372093  
C   -1.2375833    0.0005235   -4.4010426  
O   -2.0474210    0.0015378   -5.4997584  
C    0.1673590   -0.0013564   -4.5711967  
O    0.5673531   -0.0020684   -5.8915553  
C    1.0325774   -0.0023415   -3.4969893  
H    2.0953060   -0.0030663   -0.6200562  
H   -2.0989773    0.0102386   -0.2891828  
H   -1.4634876    0.0006514   -6.2693596  
H    1.5290718   -0.0033159   -5.9180047  
H    2.1042148   -0.0039619   -3.6584454  
C   -3.9676849    0.7292831   -2.0471641  
C   -5.3027878    0.5138166   -2.1702462  
C   -5.4806683   -0.4129604   -3.2630766  
C   -4.1300709   -0.7220025   -3.7701961  
N   -3.2578650    0.0024062   -2.9908511  
C   -3.8704658   -1.5626511   -4.8034530  
C   -4.9964202   -2.2058215   -5.4600306  
O   -4.8664343   -2.9792853   -6.3997948  
C   -6.4355617   -1.8929007   -4.9396875  
O   -7.3913520   -2.4282425   -5.4847871  
C   -6.5888872   -0.9698050   -3.8179754  
H   -2.8722056   -1.7757872   -5.1597662  
H   -7.5886456   -0.7585976   -3.4635767  
H   -3.4426178    1.3580914   -1.3465969  
C   -5.8488588    4.5744620   -0.5242223  
C   -5.3740125    3.4756664   -1.1655054  
C   -6.3253558    2.4130205   -0.9406385  
C   -7.4010978    2.9869205   -0.1098508  
N   -7.0520866    4.2998089    0.1078762  
C   -8.4903349    2.3005744    0.3193304  
C   -8.6111284    0.9033220   -0.0622838  
O   -9.5547699    0.2000825    0.2743105  
C   -7.4834696    0.2748343   -0.9415985  
O   -7.5741284   -0.9007253   -1.2688610  
C   -6.3581619    1.1155199   -1.3425759  
H   -4.4613609    3.4162786   -1.7313265  
H   -9.2681250    2.7404759    0.9279679  
H   -5.4209246    5.5617019   -0.4600363  
H   -7.5897454    4.9577254    0.6418389  
C    1.0672568    0.0000697    2.3021913  
C    0.0000000    0.0000000    1.4700000  
C   -1.1601224    0.0000736    2.3478473  
C   -0.5938729    0.0000769    3.7138435  
N    0.7113367    0.0001554    3.6934124  
C   -1.4286986    0.0001879    4.8835240  
C   -2.7683114    0.0006799    4.6970523  
O   -3.6653903    0.0008304    5.6976972  
C   -3.3702025    0.0010610    3.3310774  
O   -4.5974910    0.0013779    3.2362962  
C   -2.4926826    0.0008943    2.1470656  
H   -0.9878360   -0.0000190    5.8697035  
H   -4.5324246    0.0012261    5.2533954  
H   -2.9677772    0.0012974    1.1752040  
H    2.1134392    0.0000545    2.0405121  
