64

C    3.3003547    0.0005275   -1.4738980  
C    2.5232816    0.0003495   -2.6090742  
C    1.1623206   -0.0001320   -2.1820096  
C    1.1711889    0.0000583   -0.7636136  
N    2.4852300   -0.0014920   -0.3662353  
C    0.0000000    0.0000000    0.0000000  
C   -1.2020382    0.0000519   -0.6806479  
O   -2.3759247    0.0003494    0.0157745  
C   -1.2314650   -0.0005113   -2.0955508  
O   -2.5054383   -0.0008037   -2.6250181  
C   -0.0764510   -0.0007273   -2.8495192  
H    2.8919962   -0.0005621   -3.6205295  
H    2.8036265    0.0088181    0.5858667  
H   -3.0835641    0.0000347   -0.6418820  
H   -2.4360047   -0.0011529   -3.5845921  
C    5.6629511   -0.0164394   -2.3673672  
C    6.9417950   -0.0276367   -1.8605133  
C    6.8262885   -0.0188866   -0.4388308  
C    5.4411301   -0.0025424   -0.1338823  
N    4.7630506    0.0004754   -1.3275394  
C    4.9554564    0.0092547    1.1771367  
C    5.8850238    0.0041584    2.1989272  
O    5.4654670    0.0148221    3.4977244  
C    7.2713270   -0.0117224    1.9147999  
O    8.0693761   -0.0145362    3.0401682  
C    7.7511738   -0.0230936    0.6216857  
H    7.8466234   -0.0394206   -2.4437276  
H    3.9009935    0.0218758    1.4162031  
H    6.2632887    0.0091679    4.0424383  
H    8.9897851   -0.0255550    2.7602965  
H    8.8186392   -0.0349826    0.4349970  
H    5.3215478   -0.0177349   -3.3883477  
C    2.1601073   -2.0149551   -6.1366355  
C    1.7671254   -1.6323652   -4.8993931  
C    0.6609150   -0.7146343   -5.1242671  
C    0.5173094   -0.6572543   -6.5948687  
N    1.3933527   -1.4175035   -7.1936666  
C   -0.4836758    0.1546050   -7.2304781  
C   -1.3041632    0.8760361   -6.4331874  
O   -2.2822029    1.6762457   -6.8905099  
C   -1.1845238    0.8389692   -4.9457491  
O   -1.9650982    1.5214302   -4.2822953  
C   -0.1496409   -0.0015614   -4.3176961  
H    2.1772052   -1.9355530   -3.9512435  
H   -0.5658892    0.1776598   -8.3073339  
H   -2.6900303    2.0519825   -6.0894778  
H    2.9557804   -2.6933490   -6.4005661  
C    2.5285572    2.1210227    2.9438989  
C    1.9331703    1.6216660    4.0790748  
C    0.8903039    0.7472258    3.6520102  
C    0.8972198    0.7527806    2.2336141  
N    1.9028376    1.5986179    1.8362361  
C    0.0000000    0.0000000    1.4700000  
C   -0.9207814   -0.7726952    2.1506477  
O   -1.8198395   -1.5274828    1.4542253  
C   -0.9436862   -0.7911793    3.5655508  
O   -1.9197945   -1.6098497    4.0950179  
C   -0.0590329   -0.0485852    4.3195194  
H    2.2150357    1.8593692    5.0905303  
H    2.1533708    1.7953814    0.8841339  
H   -2.3621246   -1.9821033    2.1118817  
H   -1.8668290   -1.5649508    5.0545920  
H   -0.1007624   -0.0827977    5.4019087  
H    3.3491200    2.8096064    2.8367138  
