58

C    1.1319244    0.0015679   -0.8009270  
C    0.7969906    0.0034958   -2.1169400  
C   -0.6453348    0.0035696   -2.1842663  
C   -1.1266837    0.0015411   -0.7896022  
N    0.0000000    0.0000000    0.0000000  
C   -2.4346133    0.0013914   -0.4276285  
C   -3.4350117    0.0031336   -1.4820169  
O   -4.6384613    0.0030876   -1.2583901  
C   -2.9478971    0.0050444   -2.9661061  
O   -3.7809387    0.0062136   -3.8623760  
C   -1.5113837    0.0053058   -3.2312116  
H   -2.7664563    0.0000175    0.6013457  
H   -1.1823545    0.0068381   -4.2614843  
H    2.1104310    0.0009435   -0.3488059  
C    4.6221939   -2.0851248   -2.8254002  
C    3.4630810   -1.6242706   -2.2886074  
C    2.8772259   -0.7284864   -3.2577202  
C    3.7966163   -0.7050959   -4.4113947  
N    4.8342984   -1.5478373   -4.0859846  
C    3.5979640    0.0246584   -5.5382047  
C    2.3987141    0.8417431   -5.6201041  
O    2.1298705    1.5345333   -6.5927634  
C    1.4112235    0.8324024   -4.4099060  
O    0.3983750    1.5165858   -4.4672755  
C    1.7334683    0.0049282   -3.2500365  
H    3.0641074   -1.8822459   -1.3237850  
H    5.3394087   -2.7718903   -2.4060600  
H    5.6230802   -1.7440852   -4.6745060  
C    4.5318597    0.0286127   -6.6734244  
C    5.6938914   -0.6536465   -6.7990553  
C    6.2060242   -0.2840611   -8.1096378  
C    5.1999247    0.6541638   -8.6519309  
N    4.2162663    0.8413890   -7.8144640  
C    5.3417912    1.2555142   -9.9493654  
C    6.4390727    0.9344839  -10.6720343  
O    6.6995164    1.4209613  -11.8974118  
C    7.4724502   -0.0088918  -10.1520981  
O    8.4456117   -0.2556976  -10.8643231  
C    7.3041358   -0.6126793   -8.8182934  
H    6.1475489   -1.3247509   -6.0899081  
H    4.5909623    1.9376143  -10.3207207  
H    7.5461079    1.0115163  -12.1519509  
H    8.0750544   -1.2909468   -8.4779002  
C    0.8175213    0.6860729    2.3021913  
C    0.0000000    0.0000000    1.4700000  
C   -0.8887526   -0.7456559    2.3478473  
C   -0.4549825   -0.3816753    3.7138435  
N    0.5448156    0.4573574    3.6934124  
C   -1.0945674   -0.9182058    4.8835240  
C   -2.1210866   -1.7789155    4.6970523  
O   -2.8083856   -2.3554314    5.6976972  
C   -2.5824069   -2.1655116    3.3310774  
O   -3.5227682   -2.9541547    3.2362962  
C   -1.9100805   -1.6015804    2.1470656  
H   -0.7567140   -0.6349833    5.8697035  
H   -3.4728268   -2.9124471    5.2533954  
H   -2.2742832   -1.9066565    1.1752040  
H    1.6189533    1.3585343    2.0405121  
