58

C    1.1319244    0.0015875   -0.8009273  
C    0.7969906    0.0035098   -2.1169405  
C   -0.6453346    0.0035588   -2.1842669  
C   -1.1266838    0.0015218   -0.7896022  
N    0.0000000    0.0000000    0.0000000  
C   -2.4346129    0.0013497   -0.4276287  
C   -3.4350118    0.0030750   -1.4820171  
O   -4.6384616    0.0030084   -1.2583901  
C   -2.9478971    0.0049942   -2.9661060  
O   -3.7809393    0.0061494   -3.8623760  
C   -1.5113839    0.0052801   -3.2312120  
H   -2.7664561   -0.0000297    0.6013455  
H   -1.1823550    0.0068183   -4.2614846  
H    2.1104314    0.0009799   -0.3488067  
C    2.9134402   -0.7204448   -3.3148111  
C    3.5548304   -0.5024372   -4.4917423  
C    2.7453554    0.4245473   -5.2469143  
C    1.5713936    0.7309419   -4.4074344  
N    1.7334681    0.0049582   -3.2500371  
C    0.5677453    1.5709677   -4.7662538  
C    0.6490885    2.2162137   -6.0660909  
O   -0.2046268    2.9893147   -6.4805608  
C    1.8833681    1.9061120   -6.9717375  
O    1.9626033    2.4432174   -8.0683228  
C    2.9013534    0.9834462   -6.4755052  
H   -0.2845692    1.7821493   -4.1354830  
H    3.7529104    0.7741960   -7.1085840  
H    3.2033929   -1.3501730   -2.4894270  
C    5.0599087   -4.5563149   -3.9547937  
C    6.2748994   -4.4899266   -4.5472199  
C    6.3867918   -3.1189541   -5.0209441  
C    5.1151627   -2.4805832   -4.6184203  
N    4.3333748   -3.3182256   -3.9929988  
C    4.8308401   -1.1020195   -4.9079167  
C    5.7741592   -0.3932953   -5.5691227  
O    5.6424451    0.9013561   -5.9046375  
C    7.0676591   -1.0090799   -5.9884395  
O    7.8802463   -0.3043999   -6.5870626  
C    7.3356519   -2.4250147   -5.6798401  
H    7.0050655   -5.2743848   -4.6499730  
H    6.4724966    1.1242853   -6.3634071  
H    8.2845717   -2.8335562   -6.0005825  
H    4.5996066   -5.4064802   -3.4769713  
C    2.5528530    2.1414826    2.8079335  
C    2.0663498    1.7338582    4.0032312  
C    0.9804344    0.8229586    3.6752840  
C    0.9495562    0.7966882    2.1971295  
N    1.8690446    1.5676019    1.6831036  
C    0.0000000    0.0000000    1.4700000  
C   -0.8785127   -0.7372425    2.1869543  
O   -1.8187535   -1.5261249    1.6395491  
C   -0.8723269   -0.7321790    3.6796354  
O   -1.7010379   -1.4274584    4.2670412  
C    0.1115397    0.0933559    4.4024240  
H    2.4028853    2.0163452    4.9860947  
H   -2.2861435   -1.9184361    2.3990168  
H    0.0832434    0.0693689    5.4835595  
H    3.3664920    2.8238276    2.6198634  
