58

C    2.0267553   -0.0000384   -8.1984929  
C    3.0930021    0.0010852   -7.3650080  
C    4.2541882    0.0009500   -8.2414487  
C    3.6895959   -0.0004610   -9.6081296  
N    2.3843622   -0.0009647   -9.5892799  
C    4.5258390   -0.0009548  -10.7767974  
C    5.8652240    0.0003100  -10.5887021  
O    6.7635159    0.0000272  -11.5882575  
C    6.4654582    0.0021218   -9.2219989  
O    7.6926310    0.0030825   -9.1257309  
C    5.5865035    0.0025524   -8.0390522  
H    3.0916965    0.0019948   -6.2884058  
H    4.0861727   -0.0021974  -11.7635093  
H    7.6300104    0.0011966  -11.1429065  
H    6.0604184    0.0039948   -7.0666161  
C   -0.2963294   -0.0005341   -4.3948471  
C    0.7407570   -0.0008425   -5.2643479  
C    0.1250904   -0.0009651   -6.5824732  
C   -1.3291515   -0.0008023   -6.3145850  
N   -1.5822797   -0.0004687   -5.0339928  
C   -2.2982577   -0.0008134   -7.3756785  
C   -1.8356081   -0.0005906   -8.6466189  
O   -2.6263942   -0.0005804   -9.7332175  
C   -0.3739289   -0.0003760   -8.9493653  
O   -0.0244437   -0.0003029  -10.1296538  
C    0.6002573   -0.0004128   -7.8435231  
H    1.7935284   -0.0008807   -5.0390753  
H   -3.3548545   -0.0008989   -7.1509265  
H   -2.0105061   -0.0003704  -10.4880924  
C    3.1301143   -0.0010313   -1.7028257  
C    2.5367765   -0.0002767   -0.4864669  
C    1.1089900    0.0001027   -0.7656184  
C    1.0177864   -0.0004150   -2.2415133  
N    2.1993571   -0.0011613   -2.7963824  
C   -0.2459220   -0.0002879   -2.9257116  
C   -1.3675327   -0.0000606   -2.1698519  
O   -2.6129319    0.0000866   -2.6748482  
C   -1.3083588    0.0000910   -0.6783229  
O   -2.3693264    0.0004206   -0.0541685  
C    0.0000000    0.0000000    0.0000000  
H    3.0096014   -0.0001008    0.4807517  
H   -3.1967445    0.0002093   -1.8949025  
H    4.1849272   -0.0015113   -1.9271980  
C    0.8175213    0.6860729    2.3021913  
C    0.0000000    0.0000000    1.4700000  
C   -0.8887526   -0.7456559    2.3478473  
C   -0.4549825   -0.3816753    3.7138435  
N    0.5448156    0.4573574    3.6934124  
C   -1.0945674   -0.9182058    4.8835240  
C   -2.1210866   -1.7789155    4.6970523  
O   -2.8083856   -2.3554314    5.6976972  
C   -2.5824069   -2.1655116    3.3310774  
O   -3.5227682   -2.9541547    3.2362962  
C   -1.9100805   -1.6015804    2.1470656  
H   -0.7567140   -0.6349833    5.8697035  
H   -3.4728268   -2.9124471    5.2533954  
H   -2.2742832   -1.9066565    1.1752040  
H    1.6189533    1.3585343    2.0405121  
