58

C   -0.2963290   -0.0005344   -4.3948469  
C    0.7407569   -0.0008430   -5.2643476  
C    0.1250905   -0.0009657   -6.5824731  
C   -1.3291515   -0.0008030   -6.3145848  
N   -1.5822793   -0.0004692   -5.0339926  
C   -2.2982574   -0.0008142   -7.3756784  
C   -1.8356082   -0.0005915   -8.6466190  
O   -2.6263942   -0.0005813   -9.7332185  
C   -0.3739291   -0.0003769   -8.9493645  
O   -0.0244438   -0.0003041  -10.1296536  
C    0.6002572   -0.0004135   -7.8435231  
H    1.7935285   -0.0008812   -5.0390748  
H   -2.0105062   -0.0003715  -10.4880924  
H    1.6500159   -0.0001381   -8.1047448  
C    3.1301146   -0.0010314   -1.7028254  
C    2.5367767   -0.0002767   -0.4864666  
C    1.1089901    0.0001026   -0.7656180  
C    1.0177863   -0.0004152   -2.2415132  
N    2.1993573   -0.0011615   -2.7963823  
C   -0.2459218   -0.0002881   -2.9257116  
C   -1.3675326   -0.0000608   -2.1698521  
O   -2.6129318    0.0000863   -2.6748487  
C   -1.3083589    0.0000909   -0.6783228  
O   -2.3693264    0.0004205   -0.0541689  
C    0.0000000    0.0000000    0.0000000  
H    3.0096010   -0.0001008    0.4807516  
H   -3.1967444    0.0002092   -1.8949026  
H    4.1849273   -0.0015113   -1.9271977  
C   -3.7360887   -0.0009304   -7.0698331  
C   -4.3294267   -0.0010813   -5.8534739  
C   -5.7572130   -0.0011529   -6.1326254  
C   -5.8484165   -0.0009136   -7.6085201  
N   -4.6668460   -0.0008632   -8.1633900  
C   -7.1121248   -0.0009501   -8.2927190  
C   -8.2337357   -0.0016026   -7.5368595  
O   -9.4791350   -0.0017080   -8.0418556  
C   -8.1745618   -0.0022299   -6.0453303  
O   -9.2355295   -0.0026835   -5.4211765  
C   -6.8662033   -0.0021353   -5.3670074  
H   -3.8566017   -0.0012274   -4.8862549  
H   -7.1491670   -0.0005649   -9.3723191  
H  -10.0629476   -0.0022514   -7.2619100  
H   -6.8662031   -0.0027182   -4.2852362  
C    2.3971438    2.0127888    3.1728260  
C    1.9431056    1.6308205    1.9564670  
C    0.8496017    0.7127664    2.2356185  
C    0.7794028    0.6545384    3.7115134  
N    1.6840587    1.4146091    4.2663826  
C   -0.1885723   -0.1578550    4.3957118  
C   -1.0476298   -0.8789867    3.6398520  
O   -2.0015663   -1.6796266    4.1448486  
C   -1.0022026   -0.8410666    2.1483229  
O   -1.8147390   -1.5232959    1.5241687  
C    0.0000000    0.0000000    1.4700000  
H    2.3054237    1.9346118    0.9892483  
H   -0.2170646   -0.1815267    5.4753125  
H   -2.4487139   -2.0549881    3.3649027  
H    3.2048689    2.6911772    3.3971983  
