60

C   -3.3003545   -0.0022218   -1.4738975  
C   -2.5232822   -0.0016451   -2.6090738  
C   -1.1623209   -0.0004649   -2.1820094  
C   -1.1711889   -0.0006596   -0.7636136  
N   -2.4852309    0.0002161   -0.3662348  
C    0.0000000    0.0000000    0.0000000  
C    1.2020379    0.0005650   -0.6806484  
O    2.3759245    0.0008701    0.0157740  
C    1.2314642    0.0011432   -2.0955513  
O    2.5054365    0.0020896   -2.6250185  
C    0.0764499    0.0007662   -2.8495195  
H   -2.8919966   -0.0009228   -3.6205290  
H   -2.8036219   -0.0102573    0.5858672  
H    3.0835634    0.0015480   -0.6418824  
H    2.4360022    0.0024030   -3.5845926  
H    0.1304074    0.0014088   -3.9319083  
C   -5.6692774   -0.0032614   -2.3388877  
C   -4.7630502   -0.0029207   -1.3275386  
C   -5.5107315   -0.0030851   -0.0923023  
C   -6.9370629   -0.0035821   -0.4696211  
N   -6.9650290   -0.0032680   -1.8451599  
C   -7.9663613   -0.0042596    0.4148273  
C   -7.6481534   -0.0042905    1.8330231  
O   -8.5043571   -0.0048129    2.7077896  
C   -6.1443507   -0.0035172    2.2553760  
O   -5.8642052   -0.0032294    3.4465016  
C   -5.1238522   -0.0031034    1.2101804  
H   -9.0057214   -0.0047458    0.1171013  
H   -4.0849818   -0.0027739    1.5109665  
H   -5.4995502   -0.0032910   -3.4033509  
C   -7.8711462   -2.1493266   -5.5276704  
C   -9.1354177   -1.7438771   -5.7899815  
C   -9.4695077   -0.8325567   -4.7062939  
C   -8.2592765   -0.8036880   -3.8571234  
N   -7.3189431   -1.5735639   -4.3336246  
C   -8.1857334   -0.0058565   -2.6641684  
C   -9.2716994    0.7299969   -2.3347263  
O   -9.3421989    1.5197075   -1.2496328  
C  -10.5077836    0.7223058   -3.1715034  
O  -11.4583597    1.4164313   -2.8112037  
C  -10.5585621   -0.1043598   -4.3905072  
H   -9.7636622   -2.0280463   -6.6168021  
H  -10.2338804    1.9106138   -1.2849811  
H  -11.4721513   -0.0822806   -4.9693835  
H   -7.2606002   -2.8312230   -6.0979548  
C    0.0000000    0.0000000    1.4700000  
C    1.0662921    0.0000102    2.3034270  
C    0.4961870   -0.0000064    3.6418889  
C   -0.9663858    0.0000850    3.4240247  
N   -1.2632773    0.0000084    2.1528658  
C   -1.8985362    0.0000517    4.5177257  
C   -1.3925775   -0.0004564    5.7720543  
O   -2.1456383   -0.0005410    6.8851312  
C    0.0786232   -0.0009323    6.0245000  
O    0.4683759   -0.0012588    7.1921102  
C    1.0143166   -0.0008442    4.8859032  
H    2.1107198   -0.0000632    2.0421868  
H   -2.9622183    0.0003270    4.3293377  
H   -1.5042274   -0.0009692    7.6184419  
H    2.0724152   -0.0013148    5.1109744  
