60

C    1.1243406    0.0100271   -0.7919009  
C    0.7474067    0.0234775   -2.1148547  
C   -0.6787391    0.0234277   -2.1414699  
C   -1.1201748    0.0098244   -0.7935551  
N    0.0000000    0.0000000    0.0000000  
C   -2.4730817    0.0062939   -0.4408239  
C   -3.3971961    0.0169924   -1.4675061  
O   -4.7313523    0.0144787   -1.1793462  
C   -2.9763663    0.0302582   -2.8186321  
O   -4.0166494    0.0393869   -3.7247617  
C   -1.6418577    0.0334749   -3.1673480  
H    1.4178701    0.0311413   -2.9571216  
H   -2.8160163   -0.0041987    0.5845971  
H   -5.1938826    0.0229252   -2.0274381  
H   -3.6464693    0.0481160   -4.6127338  
H    2.1062464    0.0053472   -0.3505415  
C   -0.1936615   -0.6738984   -5.1271222  
C   -0.0848611   -0.4442883   -6.4611075  
C   -1.1308009    0.4861604   -6.8148175  
C   -1.8631077    0.7819431   -5.5686114  
N   -1.2456351    0.0471339   -4.5828768  
C   -2.9257429    1.6215964   -5.4820504  
C   -3.3785490    2.2776124   -6.6974291  
O   -4.3267464    3.0512799   -6.7231432  
C   -2.6179578    1.9788537   -8.0286122  
O   -2.9902637    2.5250802   -9.0583145  
C   -1.4864951    1.0554967   -7.9961199  
H   -3.4487728    1.8249014   -4.5579205  
H   -0.9650934    0.8541393   -8.9220355  
H    0.4060201   -1.3093520   -4.4958769  
C    1.3504966   -2.3512625   -7.3222477  
C    2.2761305   -2.5870461   -8.2874850  
C    2.4573643   -1.3491655   -9.0083455  
C    1.5549914   -0.3658173   -8.3794262  
N    0.9123628   -1.0363468   -7.3643852  
C    1.4322058    0.9270402   -8.7733155  
C    2.2427433    1.3802194   -9.8914356  
O    2.2040695    2.5257502  -10.3210450  
C    3.2051529    0.3557668  -10.5726620  
O    3.8922848    0.7257024  -11.5151374  
C    3.2502255   -1.0108196  -10.0585987  
H    2.7748919   -3.5215415   -8.4734157  
H    0.7643422    1.6321510   -8.2982509  
H    3.9193500   -1.7139441  -10.5356862  
H    0.9513991   -3.0275198   -6.5838120  
C    2.3971438    2.0127888    3.1728260  
C    1.9431056    1.6308205    1.9564670  
C    0.8496017    0.7127664    2.2356185  
C    0.7794028    0.6545384    3.7115134  
N    1.6840587    1.4146091    4.2663826  
C   -0.1885723   -0.1578550    4.3957118  
C   -1.0476298   -0.8789867    3.6398520  
O   -2.0015663   -1.6796266    4.1448486  
C   -1.0022026   -0.8410666    2.1483229  
O   -1.8147390   -1.5232959    1.5241687  
C    0.0000000    0.0000000    1.4700000  
H    2.3054237    1.9346118    0.9892483  
H   -0.2170646   -0.1815267    5.4753125  
H   -2.4487139   -2.0549881    3.3649027  
H    3.2048689    2.6911772    3.3971983  
