58

C   -3.2797363   -0.0217545   -1.4499652  
C   -2.5570576   -0.0170609   -2.5996558  
C   -1.1637184   -0.0076659   -2.2210362  
C   -1.1336727   -0.0072972   -0.7459471  
N   -2.4483014   -0.0156595   -0.3402723  
C    0.0000000    0.0000000    0.0000000  
C    1.2757106    0.0082526   -0.6964414  
O    2.3524096    0.0152475   -0.1142312  
C    1.2676218    0.0082691   -2.2584083  
O    2.3355254    0.0154846   -2.8557293  
C   -0.0181541   -0.0002931   -2.9516296  
H   -2.9546693   -0.0196783   -3.5989110  
H   -0.0150758   -0.0004292   -4.0331632  
H   -2.7562970   -0.0190727    0.6148059  
C   -5.6705277   -0.0363191   -2.2998286  
C   -6.9365427   -0.0428629   -1.8086684  
C   -6.8294820   -0.0419612   -0.3687473  
C   -5.3869750   -0.0342716   -0.0590629  
N   -4.7389798   -0.0315488   -1.2727285  
C   -4.8699578   -0.0308518    1.1956825  
C   -5.7960294   -0.0352494    2.3159092  
O   -5.4289435   -0.0327402    3.4836178  
C   -7.3280006   -0.0436579    2.0112828  
O   -8.1172836   -0.0477227    2.9463102  
C   -7.7643624   -0.0464342    0.6172123  
H   -7.8420666   -0.0479448   -2.3888536  
H   -3.8084951   -0.0250762    1.4010427  
H   -5.3396856   -0.0347971   -3.3257091  
C  -10.0336992   -2.2009450   -2.4152272  
C  -11.3010376   -1.7998350   -2.1611748  
C  -11.1868740   -0.8878986   -1.0334169  
C   -9.7407732   -0.8539617   -0.7264572  
N   -9.0597293   -1.6216369   -1.5332064  
C   -9.2083689   -0.0540773    0.3421014  
C  -10.0809078    0.6788968    1.0706336  
O   -9.7232662    1.4700467    2.0964090  
C  -11.5460109    0.6660761    0.7852034  
O  -12.2817530    1.3577913    1.4890748  
C  -12.0675781   -0.1626113   -0.3162359  
H  -12.2020653   -2.0872250   -2.6756001  
H  -10.5588250    1.8581214    2.4132572  
H  -13.1350185   -0.1442629   -0.4907836  
H   -9.6931200   -2.8818113   -3.1790336  
C    0.8175213    0.6860729    2.3021913  
C    0.0000000    0.0000000    1.4700000  
C   -0.8887526   -0.7456559    2.3478473  
C   -0.4549825   -0.3816753    3.7138435  
N    0.5448156    0.4573574    3.6934124  
C   -1.0945674   -0.9182058    4.8835240  
C   -2.1210866   -1.7789155    4.6970523  
O   -2.8083856   -2.3554314    5.6976972  
C   -2.5824069   -2.1655116    3.3310774  
O   -3.5227682   -2.9541547    3.2362962  
C   -1.9100805   -1.6015804    2.1470656  
H   -0.7567140   -0.6349833    5.8697035  
H   -3.4728268   -2.9124471    5.2533954  
H   -2.2742832   -1.9066565    1.1752040  
H    1.6189533    1.3585343    2.0405121  
