58

C    3.2573673   -0.0002917   -1.5109377  
C    2.5379468   -0.0001707   -0.3591959  
C    1.1435046    0.0000331   -0.7338499  
C    1.1092609   -0.0000082   -2.2088471  
N    2.4227566    0.0001911   -2.6182607  
C   -0.0265527   -0.0002523   -2.9515661  
C   -1.3003032   -0.0002640   -2.2514977  
O   -2.3786784   -0.0004133   -2.8306429  
C   -1.2877727    0.0000311   -0.6895607  
O   -2.3539950    0.0003303   -0.0892036  
C    0.0000000    0.0000000    0.0000000  
H    2.9384091   -0.0000367    0.6389243  
H   -0.0296287   -0.0004085   -4.0327233  
H    4.3270397   -0.0004762   -1.6439437  
C    5.7077630   -2.0955287   -4.6950671  
C    4.8321771   -1.6318727   -3.7663859  
C    3.9281504   -0.7371772   -4.4498268  
C    4.3518510   -0.7174787   -5.8629368  
N    5.4355537   -1.5611007   -5.9452787  
C    3.7483574    0.0102945   -6.8365106  
C    2.6053650    0.8289911   -6.4679470  
O    1.9941043    1.5202159   -7.2722292  
C    2.1395175    0.8235572   -4.9770536  
O    1.1785724    1.5091258   -4.6548099  
C    2.8699646   -0.0020524   -4.0185822  
H    4.8209993   -1.8873086   -2.7217615  
H    4.0749288    0.0104993   -7.8671710  
H    6.5291178   -2.7825099   -4.5712820  
C    6.6707307   -3.0640701   -7.5500918  
C    6.1867132   -1.8520267   -7.1749218  
C    6.5513123   -0.9142110   -8.2104914  
C    7.2927088   -1.6847748   -9.2270311  
N    7.3305528   -2.9807946   -8.7668247  
C    7.8079861   -1.1578679  -10.3665763  
C    7.6200070    0.2630390  -10.6078703  
O    8.0463258    0.8315400  -11.6045454  
C    6.8381417    1.0984817   -9.5446072  
O    6.6738845    2.2957140   -9.7367394  
C    6.3298823    0.4184435   -8.3558803  
H    8.3485149   -1.7407221  -11.0993923  
H    5.7894199    1.0039897   -7.6246069  
H    6.6011054   -4.0110770   -7.0399743  
H    7.7681485   -3.7483664   -9.2426307  
C    2.5528530    2.1414826    2.8079335  
C    2.0663498    1.7338582    4.0032312  
C    0.9804344    0.8229586    3.6752840  
C    0.9495562    0.7966882    2.1971295  
N    1.8690446    1.5676019    1.6831036  
C    0.0000000    0.0000000    1.4700000  
C   -0.8785127   -0.7372425    2.1869543  
O   -1.8187535   -1.5261249    1.6395491  
C   -0.8723269   -0.7321790    3.6796354  
O   -1.7010379   -1.4274584    4.2670412  
C    0.1115397    0.0933559    4.4024240  
H    2.4028853    2.0163452    4.9860947  
H   -2.2861435   -1.9184361    2.3990168  
H    0.0832434    0.0693689    5.4835595  
H    3.3664920    2.8238276    2.6198634  
