60

C    0.0000000    0.0000000    0.0000000  
C    1.0521663   -0.0011985   -0.8862346  
C    0.4917215   -0.0011999   -2.1979134  
C   -0.9187428    0.0003217   -2.0478684  
N   -1.1833171   -0.0009320   -0.7007913  
C   -1.7951702    0.0010485   -3.1372091  
C   -1.2375839    0.0005316   -4.4010427  
O   -2.0474214    0.0015510   -5.4997580  
C    0.1673579   -0.0013586   -4.5711965  
O    0.5673522   -0.0020741   -5.8915554  
C    1.0325770   -0.0023497   -3.4969894  
H    2.0953053   -0.0030813   -0.6200564  
H   -2.0989774    0.0102535   -0.2891825  
H   -1.4634888    0.0006605   -6.2693593  
H    1.5290702   -0.0033279   -5.9180048  
H    2.1042143   -0.0039778   -3.6584458  
C   -4.4484545    2.1114145   -0.3461923  
C   -5.6479905    1.6480102   -0.7825920  
C   -5.3783926    0.7523835   -1.8825943  
C   -3.9129544    0.7318199   -2.0524736  
N   -3.4082397    1.5765178   -1.0908926  
C   -3.2578654    0.0024289   -2.9908507  
C   -4.0489190   -0.8168734   -3.8939084  
O   -3.5523770   -1.5094411   -4.7725990  
C   -5.6025063   -0.8101561   -3.7322732  
O   -6.2789761   -1.4957501   -4.4869983  
C   -6.1934210    0.0167354   -2.6830244  
H   -6.6117099    1.9044774   -0.3799969  
H   -4.2368607    2.7988459    0.4566501  
H   -2.4341395    1.7725013   -0.9503009  
C   -7.6564187    0.0152654   -2.5397186  
C   -8.4303297    0.6920174   -1.6525077  
C   -9.8017791    0.3410667   -1.9367551  
C   -9.7631447   -0.6024073   -3.0704018  
N   -8.4337264   -0.7577023   -3.3888670  
C  -10.8586181   -1.1676326   -3.6379950  
C  -12.1627699   -0.8236301   -3.0963456  
O  -13.2090675   -1.2798417   -3.5384259  
C  -12.2273523    0.1737381   -1.8959744  
O  -13.3197515    0.4710814   -1.4317429  
C  -10.9777730    0.7170743   -1.3694866  
H   -8.0804136    1.3608901   -0.8864909  
H  -10.8083396   -1.8575132   -4.4689254  
H  -11.0311262    1.4068310   -0.5381546  
H   -8.0821676   -1.3439807   -4.1235318  
C    1.0672568    0.0000697    2.3021913  
C    0.0000000    0.0000000    1.4700000  
C   -1.1601224    0.0000736    2.3478473  
C   -0.5938729    0.0000769    3.7138435  
N    0.7113367    0.0001554    3.6934124  
C   -1.4286986    0.0001879    4.8835240  
C   -2.7683114    0.0006799    4.6970523  
O   -3.6653903    0.0008304    5.6976972  
C   -3.3702025    0.0010610    3.3310774  
O   -4.5974910    0.0013779    3.2362962  
C   -2.4926826    0.0008943    2.1470656  
H   -0.9878360   -0.0000190    5.8697035  
H   -4.5324246    0.0012261    5.2533954  
H   -2.9677772    0.0012974    1.1752040  
H    2.1134392    0.0000545    2.0405121  
