60

C    1.1243417    0.0099285   -0.7919008  
C    0.7474085    0.0234122   -2.1148546  
C   -0.6787371    0.0234880   -2.1414700  
C   -1.1201742    0.0099232   -0.7935543  
N    0.0000000    0.0000000    0.0000000  
C   -2.4730814    0.0065120   -0.4408243  
C   -3.3971951    0.0172921   -1.4675059  
O   -4.7313513    0.0148958   -1.1793466  
C   -2.9763637    0.0305207   -2.8186324  
O   -4.0166460    0.0397417   -3.7247621  
C   -1.6418544    0.0336202   -3.1673481  
H   -2.8160167   -0.0039505    0.5845968  
H   -5.1938810    0.0233831   -2.0274377  
H   -3.6464650    0.0484379   -4.6127340  
H   -1.3497450    0.0436645   -4.2109235  
H    2.1062467    0.0051619   -0.3505410  
C    4.4931722   -2.1129673   -2.7414610  
C    4.8570005   -1.6940920   -3.9758643  
C    3.8032757   -0.7792425   -4.3872202  
C    2.8585541   -0.7632354   -3.2497545  
N    3.2577223   -1.5430862   -2.2820318  
C    1.6628965    0.0337961   -3.2649303  
C    1.4221626    0.7811727   -4.3662069  
O    0.3457209    1.5716142   -4.5162630  
C    2.3566147    0.7866175   -5.5302213  
O    2.0741593    1.4908286   -6.4995131  
C    3.5764089   -0.0394893   -5.4905459  
H    5.7323726   -1.9715782   -4.5378254  
H    0.4530749    1.9719869   -5.3979257  
H    4.2275842   -0.0077020   -6.3537902  
C    5.2011249   -3.0512929   -1.8587108  
C    6.3699930   -3.7094075   -2.0701533  
C    6.6238055   -4.5055988   -0.8926592  
C    5.4989124   -4.2556222    0.0287088  
N    4.6717772   -3.3651584   -0.6161252  
C    5.3678006   -4.8239892    1.2540548  
C    6.4038464   -5.7431002    1.6949380  
O    6.3766470   -6.3058359    2.7816256  
C    7.6044073   -6.0223445    0.7355206  
O    8.4828822   -6.7941121    1.0959629  
C    7.6352072   -5.3501216   -0.5610207  
H    6.9843847   -3.6443764   -2.9504418  
H    4.5346300   -4.6271889    1.9143622  
H    8.4697908   -5.5490196   -1.2195297  
H    3.8144925   -3.0010904   -0.2425407  
C    2.3971438    2.0127888    3.1728260  
C    1.9431056    1.6308205    1.9564670  
C    0.8496017    0.7127664    2.2356185  
C    0.7794028    0.6545384    3.7115134  
N    1.6840587    1.4146091    4.2663826  
C   -0.1885723   -0.1578550    4.3957118  
C   -1.0476298   -0.8789867    3.6398520  
O   -2.0015663   -1.6796266    4.1448486  
C   -1.0022026   -0.8410666    2.1483229  
O   -1.8147390   -1.5232959    1.5241687  
C    0.0000000    0.0000000    1.4700000  
H    2.3054237    1.9346118    0.9892483  
H   -0.2170646   -0.1815267    5.4753125  
H   -2.4487139   -2.0549881    3.3649027  
H    3.2048689    2.6911772    3.3971983  
