60

C    3.1301152   -0.0010311   -1.7028248  
C    2.5367767   -0.0002766   -0.4864663  
C    1.1089906    0.0001028   -0.7656180  
C    1.0177872   -0.0004148   -2.2415129  
N    2.1993581   -0.0011610   -2.7963816  
C   -0.2459210   -0.0002877   -2.9257117  
C   -1.3675316   -0.0000605   -2.1698524  
O   -2.6129307    0.0000866   -2.6748494  
C   -1.3083586    0.0000911   -0.6783233  
O   -2.3693263    0.0004206   -0.0541693  
C    0.0000000    0.0000000    0.0000000  
H    3.0096017   -0.0001007    0.4807526  
H   -3.1967436    0.0002093   -1.8949037  
C    5.6039779   -0.0014371   -1.1379120  
C    4.5679462   -0.0016852   -2.0086697  
C    5.1852106   -0.0028975   -3.3260469  
C    6.6391268   -0.0031436   -3.0563953  
N    6.8907017   -0.0023714   -1.7754976  
C    7.6095179   -0.0043134   -4.1163127  
C    7.1484104   -0.0055863   -5.3878123  
O    7.9405131   -0.0067605   -6.4734520  
C    5.6870991   -0.0057477   -5.6923302  
O    5.3390451   -0.0068138   -6.8730408  
C    4.7115731   -0.0044882   -4.5876710  
H    8.6658411   -0.0042611   -3.8902799  
H    7.3255410   -0.0075177   -7.2290714  
H    3.6621316   -0.0047652   -4.8501656  
H    5.5656912   -0.0006307   -0.0601797  
C    2.0407277   -2.0139644   -6.1785236  
C    1.6287205   -1.6317250   -4.9473766  
C    0.5264188   -0.7135550   -5.1890255  
C    0.4056604   -0.6555637   -6.6616553  
N    1.2906488   -1.4158619   -7.2470886  
C   -0.5850907    0.1568591   -7.3123992  
C   -1.4176212    0.8782452   -6.5276513  
O   -2.3881988    1.6789425   -6.9997778  
C   -1.3210809    0.8405682   -5.0385502  
O   -2.1116394    1.5230229   -4.3870186  
C   -0.2963280   -0.0005339   -4.3948472  
H    2.0239485   -1.9354082   -3.9930984  
H   -0.6505829    0.1803542   -8.3903926  
H   -2.8082851    2.0545013   -6.2050225  
H    2.8401868   -2.6925106   -6.4303443  
C    2.5311839    2.1237619    3.0120429  
C    1.9795631    1.6616747    1.8395852  
C    0.9223175    0.7739173    2.1983588  
C    0.8753926    0.7337535    3.6154372  
N    1.8668922    1.5631002    4.0777464  
C   -0.0496243   -0.0427881    4.3197917  
C   -0.9437528   -0.7922060    3.5801400  
O   -1.8685244   -1.5680278    4.2172520  
C   -0.9124520   -0.7656372    2.1655264  
O   -1.8671164   -1.5663939    1.5732860  
C    0.0000000    0.0000000    1.4700000  
H    2.3005065    1.9304404    0.8477417  
H    2.0679347    1.7444845    5.0445261  
H   -0.0904770   -0.0778569    5.3997470  
H   -2.3849669   -2.0011402    3.5251786  
H   -1.7775064   -1.4909735    0.6183591  
H    3.3468514    2.8078103    3.1724291  
