58

C    2.4602721   -2.0944455   -5.9392888  
C    1.9124732   -1.6318086   -4.7860506  
C    0.8432456   -0.7354855   -5.1577931  
C    0.8127885   -0.7137215   -6.6327131  
N    1.8180306   -1.5578234   -7.0448664  
C   -0.0596370    0.0159821   -7.3730582  
C   -1.0334827    0.8347252   -6.6703347  
O   -1.8613775    1.5276086   -7.2472268  
C   -1.0192493    0.8271229   -5.1084309  
O   -1.8341903    1.5127100   -4.5058515  
C   -0.0307352   -0.0004646   -4.4215603  
H    2.2221962   -1.8889424   -3.7887702  
H   -0.0651695    0.0176832   -8.4542048  
H    3.2792598   -2.7820945   -6.0745265  
C    2.9687916   -5.2850252   -9.0615599  
C    3.1266157   -4.8166719  -10.3263972  
C    2.8352819   -3.4029096  -10.2912333  
C    2.4923614   -3.0837147   -8.8921944  
N    2.5917616   -4.2675407   -8.1982450  
C    2.1552142   -1.8471688   -8.4461110  
C    2.1280741   -0.7580114   -9.4081577  
O    1.8367669    0.3915297   -9.1048481  
C    2.4874714   -1.0732460  -10.8951913  
O    2.4677427   -0.1643849  -11.7142414  
C    2.8350780   -2.4455668  -11.2554090  
H    3.4141143   -5.3955446  -11.1859693  
H    3.0828560   -2.6554616  -12.2870450  
H    3.0959866   -6.2879248   -8.6875230  
H    2.4191776   -4.3753357   -7.2155744  
C    3.2573670   -0.0002920   -1.5109380  
C    2.5379468   -0.0001709   -0.3591961  
C    1.1435043    0.0000332   -0.7338500  
C    1.1092609   -0.0000082   -2.2088477  
N    2.4227562    0.0001909   -2.6182613  
C   -0.0265532   -0.0002522   -2.9515663  
C   -1.3003035   -0.0002639   -2.2514981  
O   -2.3786784   -0.0004131   -2.8306429  
C   -1.2877725    0.0000312   -0.6895608  
O   -2.3539958    0.0003307   -0.0892036  
C    0.0000000    0.0000000    0.0000000  
H    2.9384091   -0.0000369    0.6389239  
H    4.3270394   -0.0004765   -1.6439446  
H    2.7280494   -0.0013406   -3.5742113  
C    0.8175213    0.6860729    2.3021913  
C    0.0000000    0.0000000    1.4700000  
C   -0.8887526   -0.7456559    2.3478473  
C   -0.4549825   -0.3816753    3.7138435  
N    0.5448156    0.4573574    3.6934124  
C   -1.0945674   -0.9182058    4.8835240  
C   -2.1210866   -1.7789155    4.6970523  
O   -2.8083856   -2.3554314    5.6976972  
C   -2.5824069   -2.1655116    3.3310774  
O   -3.5227682   -2.9541547    3.2362962  
C   -1.9100805   -1.6015804    2.1470656  
H   -0.7567140   -0.6349833    5.8697035  
H   -3.4728268   -2.9124471    5.2533954  
H   -2.2742832   -1.9066565    1.1752040  
H    1.6189533    1.3585343    2.0405121  
