62

C    3.8878169   -0.7221146   -4.5427241  
C    3.9719333   -0.4862744   -5.8954145  
C    2.9171610    0.4147690   -6.2273419  
C    2.2168608    0.6962708   -5.0263992  
N    2.8310663   -0.0116218   -4.0232754  
C    1.1122532    1.5520024   -4.9778755  
C    0.7074027    2.1344025   -6.1632375  
O   -0.3652176    2.9784457   -6.1726996  
C    1.3930192    1.8656308   -7.3717529  
O    0.8682187    2.5214018   -8.4662355  
C    2.4826536    1.0213232   -7.4204131  
H    0.5741178    1.7705382   -4.0658149  
H   -0.4758803    3.2691040   -7.0873238  
H    1.3885183    2.2856105   -9.2403767  
H    2.9875785    0.8344065   -8.3609397  
H    4.4971333   -1.3420427   -3.9076012  
C    3.3041273    0.0001179   -1.5420438  
C    2.5845372   -0.0004778   -0.3695858  
C    1.2040009   -0.0000008   -0.7283598  
C    1.1422372    0.0006037   -2.1454375  
N    2.4348637    0.0026111   -2.6077468  
C   -0.0655182    0.0008797   -2.8497921  
C   -1.2321770    0.0002322   -2.1101399  
O   -2.4392816    0.0001144   -2.7472523  
C   -1.1911211   -0.0000008   -0.6955263  
O   -2.4371524   -0.0002326   -0.1032861  
C    0.0000000    0.0000000    0.0000000  
H    3.0031535   -0.0000658    0.6222573  
H   -0.1193551    0.0014842   -3.9297475  
H   -3.1132989   -0.0000654   -2.0551787  
H   -2.3200281   -0.0004077    0.8516411  
H    4.3686625    0.0004074   -1.7024298  
C    4.9699744   -1.0678985   -6.8045495  
C    5.9740045   -1.9236156   -6.5024702  
C    6.6484666   -2.1719755   -7.7673489  
C    5.8994541   -1.3644252   -8.7539731  
N    4.9144544   -0.7149729   -8.1954258  
C    6.2589673   -1.3373493  -10.1450533  
C    7.3188121   -2.0828129  -10.5328005  
O    7.7651078   -2.1517002  -11.7985477  
C    8.0950822   -2.9080033   -9.5608814  
O    9.0481853   -3.5619773   -9.9841227  
C    7.7065111   -2.9191063   -8.1393291  
H    6.2258867   -2.3353638   -5.5401318  
H    5.6937791   -0.7383589  -10.8441115  
H    8.5268279   -2.7578907  -11.7602295  
H    8.2944292   -3.5297054   -7.4672051  
C    0.0000000    0.0000000    1.4700000  
C    1.0662921    0.0000102    2.3034270  
C    0.4961870   -0.0000064    3.6418889  
C   -0.9663858    0.0000850    3.4240247  
N   -1.2632773    0.0000084    2.1528658  
C   -1.8985362    0.0000517    4.5177257  
C   -1.3925775   -0.0004564    5.7720543  
O   -2.1456383   -0.0005410    6.8851312  
C    0.0786232   -0.0009323    6.0245000  
O    0.4683759   -0.0012588    7.1921102  
C    1.0143166   -0.0008442    4.8859032  
H    2.1107198   -0.0000632    2.0421868  
H   -2.9622183    0.0003270    4.3293377  
H   -1.5042274   -0.0009692    7.6184419  
H    2.0724152   -0.0013148    5.1109744  
