58

C   -4.5679453   -0.0009853   -2.0086716  
C   -5.6049850   -0.0015838   -1.1391154  
C   -6.7955413   -0.0015012   -1.9752219  
C   -6.2781447   -0.0006922   -3.3604599  
N   -4.9730328   -0.0004675   -3.3863795  
C   -7.1539706   -0.0004244   -4.4997649  
C   -8.4861182   -0.0013303   -4.2658519  
O   -9.4181568   -0.0012008   -5.2340177  
C   -9.0391351   -0.0025322   -2.8793701  
O  -10.2622847   -0.0031906   -2.7410774  
C   -8.1201331   -0.0027412   -1.7272587  
H   -5.5667627   -0.0021168   -0.0631904  
H  -10.2688707   -0.0020245   -4.7592145  
H   -8.5604242   -0.0037395   -0.7391429  
C   -3.1301143   -0.0007989   -1.7028264  
C   -2.5367761   -0.0012064   -0.4864674  
C   -1.1089895   -0.0007511   -0.7656185  
C   -1.0177866   -0.0001802   -2.2415135  
N   -2.1993565   -0.0001247   -2.7963827  
C    0.2459223    0.0004316   -2.9257115  
C    1.3675333    0.0008600   -2.1698516  
O    2.6129322    0.0014410   -2.6748481  
C    1.3083585    0.0006738   -0.6783228  
O    2.3693261    0.0009646   -0.0541684  
C    0.0000000    0.0000000    0.0000000  
H   -3.0096015   -0.0016589    0.4807518  
H    0.2829647    0.0006341   -4.0053123  
H    3.1967451    0.0016596   -1.8949019  
C   -5.5315392   -0.6845686   -6.3269990  
C   -6.6020613    0.0006656   -5.8622241  
C   -7.0966042    0.7467314   -7.0090952  
C   -6.1815131    0.3838813   -8.1125141  
N   -5.2620837   -0.4548955   -7.7186955  
C   -6.3354370    0.9211056   -9.4364410  
C   -7.3573251    1.7813986   -9.6485125  
O   -7.6189588    2.3584700  -10.8336613  
C   -8.2979553    2.1668568   -8.5554439  
O   -9.2055254    2.9551746   -8.8201925  
C   -8.1190513    1.6022299   -7.2059574  
H   -5.6518903    0.6387060  -10.2237935  
H   -8.4018988    2.9149763  -10.6710010  
H   -8.8216554    1.9064867   -6.4417551  
H   -4.8866284   -1.3570068   -5.7839605  
C    2.3971438    2.0127888    3.1728260  
C    1.9431056    1.6308205    1.9564670  
C    0.8496017    0.7127664    2.2356185  
C    0.7794028    0.6545384    3.7115134  
N    1.6840587    1.4146091    4.2663826  
C   -0.1885723   -0.1578550    4.3957118  
C   -1.0476298   -0.8789867    3.6398520  
O   -2.0015663   -1.6796266    4.1448486  
C   -1.0022026   -0.8410666    2.1483229  
O   -1.8147390   -1.5232959    1.5241687  
C    0.0000000    0.0000000    1.4700000  
H    2.3054237    1.9346118    0.9892483  
H   -0.2170646   -0.1815267    5.4753125  
H   -2.4487139   -2.0549881    3.3649027  
H    3.2048689    2.6911772    3.3971983  
