60

C    0.0000000    0.0000000    0.0000000  
C    1.0521661   -0.0011902   -0.8862344  
C    0.4917211   -0.0011956   -2.1979132  
C   -0.9187435    0.0003148   -2.0478678  
N   -1.1833170   -0.0009412   -0.7007910  
C   -1.7951711    0.0010351   -3.1372085  
C   -1.2375846    0.0005226   -4.4010421  
O   -2.0474229    0.0015361   -5.4997574  
C    0.1673569   -0.0013566   -4.5711963  
O    0.5673506   -0.0020687   -5.8915553  
C    1.0325765   -0.0023412   -3.4969895  
H    2.0953057   -0.0030649   -0.6200566  
H   -2.0989777    0.0102372   -0.2891821  
H   -1.4634903    0.0006498   -6.2693591  
H    1.5290693   -0.0033152   -5.9180049  
H    2.1042134   -0.0039609   -3.6584462  
C   -3.2578661    0.0024039   -2.9908499  
C   -4.0046944    0.0033125   -1.8566885  
C   -5.3897524    0.0044627   -2.2646688  
C   -5.3886204    0.0041180   -3.7400636  
N   -4.0656866    0.0032564   -4.1178659  
C   -6.5062997    0.0045471   -4.5098019  
C   -7.7964690    0.0056317   -3.8404755  
O   -8.8606472    0.0061495   -4.4453096  
C   -7.8213911    0.0062654   -2.2786869  
O   -8.9017022    0.0074857   -1.7040673  
C   -6.5505227    0.0054371   -1.5584479  
H   -3.6282787    0.0033734   -0.8492537  
H   -6.5764546    0.0056780   -0.4772210  
H   -3.7375619    0.0012866   -5.0662212  
C   -4.0439393   -2.0109244   -7.6305545  
C   -4.5233342   -1.6282234   -6.4241966  
C   -5.6101036   -0.7095758   -6.7267166  
C   -5.6490608   -0.6518418   -8.2037858  
N   -4.7333710   -1.4126904   -8.7391460  
C   -6.6018381    0.1609175   -8.9085724  
C   -7.4762120    0.8828715   -8.1712891  
O   -8.4187483    1.6839338   -8.6966128  
C   -7.4623383    0.8454669   -6.6791195  
O   -8.2874433    1.5284409   -6.0725153  
C   -6.4752356    0.0040105   -5.9794738  
H   -4.1817320   -1.9318921   -5.4494304  
H   -6.6074943    0.1842132   -9.9885429  
H   -8.8820359    2.0598645   -7.9264219  
H   -3.2320903   -2.6899084   -7.8375693  
C    1.0672568    0.0000697    2.3021913  
C    0.0000000    0.0000000    1.4700000  
C   -1.1601224    0.0000736    2.3478473  
C   -0.5938729    0.0000769    3.7138435  
N    0.7113367    0.0001554    3.6934124  
C   -1.4286986    0.0001879    4.8835240  
C   -2.7683114    0.0006799    4.6970523  
O   -3.6653903    0.0008304    5.6976972  
C   -3.3702025    0.0010610    3.3310774  
O   -4.5974910    0.0013779    3.2362962  
C   -2.4926826    0.0008943    2.1470656  
H   -0.9878360   -0.0000190    5.8697035  
H   -4.5324246    0.0012261    5.2533954  
H   -2.9677772    0.0012974    1.1752040  
H    2.1134392    0.0000545    2.0405121  
