62

C   -3.2981802    0.1197741   -1.4738994  
C   -2.5216166    0.0916266   -2.6090752  
C   -1.1615424    0.0424995   -2.1820105  
C   -1.1704126    0.0426327   -0.7636143  
N   -2.4835240    0.0920801   -0.3662364  
C    0.0000000    0.0000000    0.0000000  
C    1.2012382   -0.0438675   -0.6806477  
O    2.3743329   -0.0869542    0.0157750  
C    1.2306661   -0.0443775   -2.0955507  
O    2.5038037   -0.0905230   -2.6250172  
C    0.0764280   -0.0020603   -2.8495194  
H   -2.8900525    0.1059776   -3.6205313  
H   -2.8020850    0.0933829    0.5858655  
H    3.0815135   -0.1124340   -0.6418812  
H    2.4344290   -0.0876433   -3.5845914  
H    0.1303726   -0.0034127   -3.9319085  
C   -5.6585878    0.2228488   -2.3673695  
C   -6.9361731    0.2806538   -1.8605161  
C   -6.8210631    0.2676994   -0.4388333  
C   -5.4374208    0.2008757   -0.1338847  
N   -4.7599024    0.1731429   -1.3275415  
C   -4.9525005    0.1713832    1.1771345  
C   -5.8812648    0.2103599    2.1989250  
O   -5.4623760    0.1844102    3.4977224  
C   -7.2660674    0.2767623    1.9147970  
O   -8.0634843    0.3086641    3.0401652  
C   -7.7451806    0.3056168    0.6216826  
H   -7.8399712    0.3254118   -2.4437306  
H   -3.8991995    0.1203342    1.4162010  
H   -6.2594620    0.2191421    4.0424357  
H   -8.9828806    0.3532255    2.7602927  
H   -5.3173636    0.2116987   -3.3883502  
C  -10.3461089   -1.6542215   -2.3600345  
C   -9.2862134   -1.2444523   -1.6165387  
C   -9.7970142   -0.3280412   -0.6245165  
C  -11.2518141   -0.2368748   -0.8526312  
N  -11.5206798   -1.0640623   -1.9186337  
C  -12.0984594    0.5297625   -0.1197167  
C  -11.5395284    1.3178561    0.9661188  
O  -12.2193553    2.0398809    1.6836254  
C  -10.0013624    1.2368021    1.2255040  
O   -9.5193313    1.8960582    2.1367061  
C   -9.1915655    0.3745112    0.3684534  
H   -8.2632716   -1.5492206   -1.7481475  
H  -13.1625850    0.5822962   -0.3035329  
H  -10.3679275   -2.3375162   -3.1934144  
H  -12.4303660   -1.2171855   -2.3136935  
C    0.0000000    0.0000000    1.4700000  
C    1.0662921    0.0000102    2.3034270  
C    0.4961870   -0.0000064    3.6418889  
C   -0.9663858    0.0000850    3.4240247  
N   -1.2632773    0.0000084    2.1528658  
C   -1.8985362    0.0000517    4.5177257  
C   -1.3925775   -0.0004564    5.7720543  
O   -2.1456383   -0.0005410    6.8851312  
C    0.0786232   -0.0009323    6.0245000  
O    0.4683759   -0.0012588    7.1921102  
C    1.0143166   -0.0008442    4.8859032  
H    2.1107198   -0.0000632    2.0421868  
H   -2.9622183    0.0003270    4.3293377  
H   -1.5042274   -0.0009692    7.6184419  
H    2.0724152   -0.0013148    5.1109744  
