58

C   -3.3320777    0.0163517   -1.3379329  
C   -2.6973844    0.0136069   -2.5332308  
C   -1.2800270    0.0066743   -2.2052838  
C   -1.2394883    0.0061936   -0.7271295  
N   -2.4393777    0.0117701   -0.2131033  
C    0.0000000    0.0000000    0.0000000  
C    1.1468540   -0.0058540   -0.7169545  
O    2.3741890   -0.0119946   -0.1695500  
C    1.1388618   -0.0059110   -2.2096360  
O    2.2205947   -0.0113024   -2.7970423  
C   -0.1454522    0.0005524   -2.9324242  
H   -3.1367589    0.0159020   -3.5160938  
H    2.9843953   -0.0151708   -0.9290177  
H   -0.1083595    0.0001785   -4.0135593  
C   -6.6780431    0.0336640   -4.1292963  
C   -7.7443259    0.0381318   -3.2958695  
C   -7.1742299    0.0348191   -1.9574078  
C   -5.7116724    0.0281005   -2.1752722  
N   -5.4147808    0.0274748   -3.4464310  
C   -4.7795345    0.0232639   -1.0815715  
C   -5.2854880    0.0254468    0.1727573  
O   -4.5324376    0.0214769    1.2858341  
C   -6.7566713    0.0325717    0.4252032  
O   -7.1464216    0.0340828    1.5928130  
C   -7.6923530    0.0373933   -0.7133932  
H   -5.1738414    0.0244773    2.0191447  
H   -8.7504384    0.0426231   -0.4883215  
H   -6.6780407    0.0342292   -5.2077089  
C   -9.7825224   -0.6376898   -4.6479582  
C   -9.1703764    0.0449924   -3.6525679  
C  -10.2341479    0.7952814   -3.0029871  
C  -11.4557510    0.4374143   -3.7554508  
N  -11.1972510   -0.4023169   -4.7208621  
C  -12.7431481    0.9797896   -3.4185175  
C  -12.8073141    1.8402483   -2.3769668  
O  -13.9421201    2.4218488   -1.9527070  
C  -11.5923108    2.2207477   -1.5977691  
O  -11.7248561    3.0095157   -0.6620888  
C  -10.2831936    1.6508850   -1.9630025  
H  -13.6191866    0.7009658   -3.9857243  
H  -13.6697252    2.9771920   -1.2000133  
H   -9.4273370    1.9516451   -1.3736966  
H   -9.3373420   -1.3118560   -5.3623030  
C    2.3971438    2.0127888    3.1728260  
C    1.9431056    1.6308205    1.9564670  
C    0.8496017    0.7127664    2.2356185  
C    0.7794028    0.6545384    3.7115134  
N    1.6840587    1.4146091    4.2663826  
C   -0.1885723   -0.1578550    4.3957118  
C   -1.0476298   -0.8789867    3.6398520  
O   -2.0015663   -1.6796266    4.1448486  
C   -1.0022026   -0.8410666    2.1483229  
O   -1.8147390   -1.5232959    1.5241687  
C    0.0000000    0.0000000    1.4700000  
H    2.3054237    1.9346118    0.9892483  
H   -0.2170646   -0.1815267    5.4753125  
H   -2.4487139   -2.0549881    3.3649027  
H    3.2048689    2.6911772    3.3971983  
