64

C    1.1243360    0.0104729   -0.7919008  
C    0.7473961    0.0237738   -2.1148546  
C   -0.6787493    0.0231587   -2.1414697  
C   -1.1201791    0.0093805   -0.7935542  
N    0.0000000    0.0000000    0.0000000  
C   -2.4730849    0.0053139   -0.4408229  
C   -3.3972036    0.0156462   -1.4675045  
O   -4.7313589    0.0126039   -1.1793448  
C   -2.9763790    0.0290784   -2.8186310  
O   -4.0166667    0.0377949   -3.7247602  
C   -1.6418720    0.0328242   -3.1673474  
H   -2.8160147   -0.0053146    0.5845984  
H   -5.1938923    0.0208666   -2.0274362  
H   -3.6464903    0.0466707   -4.6127327  
H   -1.3497680    0.0430099   -4.2109226  
H    2.1062435    0.0061821   -0.3505413  
C    2.8391352   -0.6731832   -3.3474594  
C    3.4424187   -0.4113042   -4.5557374  
C    2.5988715    0.5037812   -5.2526214  
C    1.4864140    0.7666169   -4.4128110  
N    1.6628785    0.0346008   -3.2649305  
C    0.4490540    1.6292529   -4.7795966  
C    0.5364537    2.2378763   -6.0165751  
O   -0.4488771    3.0897382   -6.4245798  
C    1.6383160    1.9880241   -6.8688021  
O    1.5797963    2.6690827   -8.0671679  
C    2.6619237    1.1369214   -6.5077237  
H   -0.4016060    1.8336581   -4.1441451  
H   -0.1954441    3.3991944   -7.3039390  
H    2.3604083    2.4448339   -8.5828815  
H    3.4930263    0.9649327   -7.1816426  
H    3.1541141   -1.3099540   -2.5385895  
C    5.1247517   -2.2823237   -4.8305631  
C    4.7159987   -0.9821272   -5.0173171  
C    5.7563179   -0.3171336   -5.7315431  
C    6.7828209   -1.2701862   -5.9549463  
N    6.3679910   -2.4522385   -5.3934431  
C    7.9659357   -0.9624180   -6.6334059  
C    8.1153948    0.3309344   -7.0950111  
O    9.2509475    0.6853458   -7.7642851  
C    7.1026130    1.2961023   -6.8816059  
O    7.4007090    2.5388376   -7.4013100  
C    5.9353005    0.9932559   -6.2121353  
H    6.8851714   -3.3127018   -5.4038719  
H    8.7521630   -1.6842091   -6.8067983  
H    9.1522423    1.6183574   -7.9945274  
H    6.6659145    3.1310018   -7.2141679  
H    5.1774672    1.7535986   -6.0636534  
H    4.6284520   -3.1015553   -4.3391309  
C    2.3971438    2.0127888    3.1728260  
C    1.9431056    1.6308205    1.9564670  
C    0.8496017    0.7127664    2.2356185  
C    0.7794028    0.6545384    3.7115134  
N    1.6840587    1.4146091    4.2663826  
C   -0.1885723   -0.1578550    4.3957118  
C   -1.0476298   -0.8789867    3.6398520  
O   -2.0015663   -1.6796266    4.1448486  
C   -1.0022026   -0.8410666    2.1483229  
O   -1.8147390   -1.5232959    1.5241687  
C    0.0000000    0.0000000    1.4700000  
H    2.3054237    1.9346118    0.9892483  
H   -0.2170646   -0.1815267    5.4753125  
H   -2.4487139   -2.0549881    3.3649027  
H    3.2048689    2.6911772    3.3971983  
