62

C   -3.3040234    0.0261240   -1.5420444  
C   -2.5844517    0.0210047   -0.3695864  
C   -1.2039624    0.0095630   -0.7283594  
C   -1.1422053    0.0084678   -2.1454379  
N   -2.4348069    0.0167269   -2.6077477  
C    0.0655102   -0.0014005   -2.8497916  
C    1.2321371   -0.0100189   -2.1101397  
O    2.4392047   -0.0194882   -2.7472511  
C    1.1910837   -0.0094594   -0.6955261  
O    2.4370773   -0.0191244   -0.1032853  
C    0.0000000    0.0000000    0.0000000  
H   -3.0030580    0.0239176    0.6222569  
H   -2.7053194    0.0285965   -3.5745274  
H    0.1193411   -0.0024328   -3.9297473  
H    3.1132018   -0.0246618   -2.0551771  
H    2.3199583   -0.0180189    0.8516415  
C   -5.7181727    0.0445172   -0.7610782  
C   -6.9695819    0.0517609   -1.2883332  
C   -6.8212960    0.0487106   -2.7245913  
C   -5.3705151    0.0389974   -2.9927910  
N   -4.7575752    0.0372734   -1.7610478  
C   -4.8177517    0.0332393   -4.2321957  
C   -5.7113293    0.0370756   -5.3785110  
O   -5.3109293    0.0325157   -6.5352134  
C   -7.2513925    0.0475990   -5.1179333  
O   -8.0135468    0.0512133   -6.0752041  
C   -7.7275274    0.0528214   -3.7369477  
H   -3.7508463    0.0260064   -4.4070387  
H   -8.7952988    0.0598988   -3.5650812  
H   -5.4168716    0.0440781    0.2738646  
C   -8.2334446    2.1896112    2.4294489  
C   -7.5157068    1.7211447    1.3534111  
C   -8.3736254    0.8378706    0.6334090  
C   -9.6126347    0.8068906    1.3232070  
N   -9.4927144    1.6371548    2.4098984  
C  -10.6979088    0.0367753    0.8943816  
C  -10.5294402   -0.7155395   -0.2518367  
O  -11.5569497   -1.4853667   -0.7150905  
C   -9.3006796   -0.6981063   -0.9537360  
O   -9.2900755   -1.5006897   -2.0758287  
C   -8.2295158    0.0611870   -0.5311165  
H   -6.4985174    1.9828877    1.1171697  
H  -10.2165920    1.8243231    3.0799362  
H  -11.6448103    0.0087160    1.4157203  
H  -11.2326369   -1.9218506   -1.5135691  
H   -8.4249563   -1.4315777   -2.4910347  
H   -7.9462718    2.8730041    3.2101316  
C    2.5528530    2.1414826    2.8079335  
C    2.0663498    1.7338582    4.0032312  
C    0.9804344    0.8229586    3.6752840  
C    0.9495562    0.7966882    2.1971295  
N    1.8690446    1.5676019    1.6831036  
C    0.0000000    0.0000000    1.4700000  
C   -0.8785127   -0.7372425    2.1869543  
O   -1.8187535   -1.5261249    1.6395491  
C   -0.8723269   -0.7321790    3.6796354  
O   -1.7010379   -1.4274584    4.2670412  
C    0.1115397    0.0933559    4.4024240  
H    2.4028853    2.0163452    4.9860947  
H   -2.2861435   -1.9184361    2.3990168  
H    0.0832434    0.0693689    5.4835595  
H    3.3664920    2.8238276    2.6198634  
