64

C    3.3003550    0.0005276   -1.4738975  
C    2.5232820    0.0003499   -2.6090737  
C    1.1623204   -0.0001317   -2.1820092  
C    1.1711886    0.0000584   -0.7636135  
N    2.4852302   -0.0014919   -0.3662348  
C    0.0000000    0.0000000    0.0000000  
C   -1.2020384    0.0000521   -0.6806477  
O   -2.3759248    0.0003495    0.0157741  
C   -1.2314652   -0.0005110   -2.0955506  
O   -2.5054382   -0.0008034   -2.6250183  
C   -0.0764511   -0.0007269   -2.8495189  
H    2.8036264    0.0088181    0.5858673  
H   -3.0835638    0.0000349   -0.6418814  
H   -2.4360037   -0.0011524   -3.5845926  
H   -0.1304085   -0.0013419   -3.9319083  
H    4.3715551    0.0004897   -1.3667120  
C    5.9080451   -2.1212785   -4.5066903  
C    5.7372501   -1.6233274   -5.7776507  
C    4.6108303   -0.7493040   -5.7345060  
C    4.1315415   -0.7536525   -4.3995192  
N    4.9405890   -1.5984030   -3.6808702  
C    3.0267444   -0.0008948   -3.9901686  
C    2.3944499    0.7705369   -4.9458224  
O    1.3109375    1.5252433   -4.6002322  
C    2.8575152    0.7878059   -6.2830173  
O    2.1214428    1.6052997   -7.1156311  
C    3.9471981    0.0452335   -6.6876202  
H    6.3485808   -1.8616767   -6.6311481  
H    4.8499642   -1.7941733   -2.7003387  
H    1.0265043    1.9789025   -5.4043193  
H    2.4998696    1.5596278   -7.9989837  
H    6.6425533   -2.8091590   -4.1242283  
C    5.4288887   -3.1121404   -9.4068962  
C    5.6392138   -2.3126219  -10.5064416  
C    5.2686613   -0.9865135  -10.1339807  
C    4.8365450   -1.0387448   -8.7839906  
N    4.9447622   -2.3443417   -8.3737194  
C    4.3968374    0.0903546   -8.0864368  
C    4.3935718    1.2941635   -8.7639404  
O    3.9742751    2.4280430   -8.1302829  
C    4.8206535    1.3664540  -10.1112318  
O    4.7581652    2.6363526  -10.6467657  
C    5.2543078    0.2529275  -10.8000917  
H    6.0126204   -2.6445810  -11.4600473  
H    4.7192073   -2.6850911   -7.4566604  
H    4.0506277    3.1445512   -8.7737513  
H    5.0635679    2.5974160  -11.5582569  
H    5.5753161    0.3391426  -11.8315945  
H    5.5845542   -4.1695891   -9.2783285  
C    2.5528530    2.1414826    2.8079335  
C    2.0663498    1.7338582    4.0032312  
C    0.9804344    0.8229586    3.6752840  
C    0.9495562    0.7966882    2.1971295  
N    1.8690446    1.5676019    1.6831036  
C    0.0000000    0.0000000    1.4700000  
C   -0.8785127   -0.7372425    2.1869543  
O   -1.8187535   -1.5261249    1.6395491  
C   -0.8723269   -0.7321790    3.6796354  
O   -1.7010379   -1.4274584    4.2670412  
C    0.1115397    0.0933559    4.4024240  
H    2.4028853    2.0163452    4.9860947  
H   -2.2861435   -1.9184361    2.3990168  
H    0.0832434    0.0693689    5.4835595  
H    3.3664920    2.8238276    2.6198634  
