58

C    1.0965515    0.0001356   -0.8010307  
C    0.0000000    0.0000000    0.0000000  
C   -1.1546563    0.0001468   -0.8669512  
C   -0.6372016    0.0003517   -2.2486279  
N    0.7342870    0.0007334   -2.1395011  
C   -1.4147742    0.0001349   -3.3608716  
C   -2.8576053   -0.0001051   -3.1854457  
O   -3.6427781   -0.0002497   -4.1244906  
C   -3.4275840   -0.0000727   -1.7311662  
O   -4.6406828    0.0000330   -1.5710056  
C   -2.4891866   -0.0001093   -0.6116745  
H   -1.0150453    0.0001612   -4.3654247  
H   -2.8919122   -0.0002920    0.3920863  
H    2.1388274    0.0000661   -0.5261649  
C    4.5298623   -2.1105790   -2.7870400  
C    4.8358777   -1.6476832   -4.0264580  
C    3.7723835   -0.7519991   -4.4157721  
C    2.8148500   -0.7308474   -3.2935098  
N    3.3319992   -1.5752944   -2.3383367  
C    1.6707642   -0.0012348   -3.2725975  
C    1.3617418    0.8177029   -4.4329343  
O    0.3555482    1.5104306   -4.5104138  
C    2.3615446    0.8103613   -5.6329952  
O    2.1118346    1.4956444   -6.6154883  
C    3.5619266   -0.0167206   -5.5388085  
H    5.7070853   -1.9045233   -4.6023437  
H    4.2491891   -0.0160716   -6.3739092  
H    2.9059923   -1.7708750   -1.4510300  
C    6.4815783   -3.6487049   -2.2738748  
C    6.9147942   -4.4630020   -1.2772208  
C    5.9340359   -4.3926912   -0.2198636  
C    4.8864015   -3.4640468   -0.6855581  
N    5.2781144   -3.0478945   -1.9370644  
C    3.7818104   -3.1303876    0.0287632  
C    3.6136473   -3.7254498    1.3441177  
O    2.6529497   -3.4882911    2.0646154  
C    4.7109159   -4.7114766    1.8574960  
O    4.5803237   -5.2184246    2.9634842  
C    5.8566313   -4.9935559    0.9963224  
H    7.8183786   -5.0462045   -1.2821086  
H    3.0252033   -2.4471637   -0.3313209  
H    6.6118402   -5.6775082    1.3590798  
H    6.9403456   -3.4368035   -3.2259885  
C    0.0000000    0.0000000    1.4700000  
C    1.0662921    0.0000102    2.3034270  
C    0.4961870   -0.0000064    3.6418889  
C   -0.9663858    0.0000850    3.4240247  
N   -1.2632773    0.0000084    2.1528658  
C   -1.8985362    0.0000517    4.5177257  
C   -1.3925775   -0.0004564    5.7720543  
O   -2.1456383   -0.0005410    6.8851312  
C    0.0786232   -0.0009323    6.0245000  
O    0.4683759   -0.0012588    7.1921102  
C    1.0143166   -0.0008442    4.8859032  
H    2.1107198   -0.0000632    2.0421868  
H   -2.9622183    0.0003270    4.3293377  
H   -1.5042274   -0.0009692    7.6184419  
H    2.0724152   -0.0013148    5.1109744  
