60

C    3.3003534    0.0005274   -1.4739007  
C    2.5232795    0.0003494   -2.6090763  
C    1.1623184   -0.0001321   -2.1820108  
C    1.1711881    0.0000583   -0.7636147  
N    2.4852294   -0.0014920   -0.3662374  
C    0.0000000    0.0000000    0.0000000  
C   -1.2020395    0.0000519   -0.6806471  
O   -2.3759253    0.0003495    0.0157761  
C   -1.2314670   -0.0005113   -2.0955500  
O   -2.5054410   -0.0008038   -2.6250164  
C   -0.0764538   -0.0007274   -2.8495193  
H    2.8919930   -0.0005622   -3.6205318  
H    2.8036263    0.0088181    0.5858648  
H   -3.0835646    0.0000348   -0.6418799  
H   -2.4360077   -0.0011529   -3.5845907  
H   -0.1304117   -0.0013424   -3.9319085  
C    6.4260906    0.0030627   -4.5098945  
C    7.5522563    0.0028886   -3.7593416  
C    7.0848206    0.0018023   -2.3816614  
C    5.6099745    0.0015407   -2.4884923  
N    5.2179684    0.0021959   -3.7336108  
C    4.7630492    0.0004753   -1.3275432  
C    5.3622555   -0.0006827   -0.1149899  
O    4.6953718   -0.0017513    1.0517601  
C    6.8483156   -0.0008253    0.0256720  
O    7.3251007   -0.0017844    1.1605269  
C    7.6953843    0.0003255   -1.1803121  
H    8.5739818    0.0033401   -4.0986817  
H    5.3903108   -0.0024424    1.7345566  
H    6.3446794    0.0037689   -5.5852290  
C   10.9251418    2.1100930   -3.2781417  
C   11.9904990    1.6447068   -2.5763550  
C   11.4725263    0.7483182   -1.5698617  
C   10.0075734    0.7294672   -1.7440689  
N    9.7401770    1.5757828   -2.7953242  
C    9.1522011   -0.0000271   -0.9838840  
C    9.7117306   -0.8212563    0.0767973  
O    9.0244570   -1.5140711    0.8156903  
C   11.2605122   -0.8163732    0.2794242  
O   11.7430688   -1.5035974    1.1694371  
C   12.0792362    0.0108158   -0.6033567  
H   13.0215218    1.9003408   -2.7444458  
H   13.1507687    0.0084567   -0.4566029  
H   10.9059656    2.7986054   -4.1072818  
H    8.8253339    1.7731602   -3.1574730  
C    2.5528530    2.1414826    2.8079335  
C    2.0663498    1.7338582    4.0032312  
C    0.9804344    0.8229586    3.6752840  
C    0.9495562    0.7966882    2.1971295  
N    1.8690446    1.5676019    1.6831036  
C    0.0000000    0.0000000    1.4700000  
C   -0.8785127   -0.7372425    2.1869543  
O   -1.8187535   -1.5261249    1.6395491  
C   -0.8723269   -0.7321790    3.6796354  
O   -1.7010379   -1.4274584    4.2670412  
C    0.1115397    0.0933559    4.4024240  
H    2.4028853    2.0163452    4.9860947  
H   -2.2861435   -1.9184361    2.3990168  
H    0.0832434    0.0693689    5.4835595  
H    3.3664920    2.8238276    2.6198634  
