60

C    3.3041267    0.0001175   -1.5420439  
C    2.5845368   -0.0004781   -0.3695855  
C    1.2040004   -0.0000009   -0.7283591  
C    1.1422366    0.0006033   -2.1454373  
N    2.4348631    0.0026106   -2.6077468  
C   -0.0655195    0.0008790   -2.8497916  
C   -1.2321775    0.0002319   -2.1101396  
O   -2.4392826    0.0001138   -2.7472509  
C   -1.1911215   -0.0000009   -0.6955257  
O   -2.4371529   -0.0002324   -0.1032853  
C    0.0000000    0.0000000    0.0000000  
H    3.0031533   -0.0000656    0.6222577  
H   -0.1193557    0.0014834   -3.9297466  
H   -3.1132997   -0.0000652   -2.0551780  
H   -2.3200283   -0.0004072    0.8516422  
H    4.3686616    0.0004071   -1.7024304  
C    5.6502431   -2.1159097   -4.7187993  
C    5.4250913   -1.6663857   -5.9802706  
C    4.2912953   -0.7748314   -5.9133920  
C    3.8713705   -0.7415302   -4.4994102  
N    4.7351834   -1.5757177   -3.8279578  
C    2.8310651   -0.0116226   -4.0232758  
C    2.0743447    0.7948327   -4.9664298  
O    1.1203075    1.4867869   -4.6358048  
C    2.5012788    0.7745008   -6.4688011  
O    1.8714958    1.4492139   -7.2721669  
C    3.6401530   -0.0516395   -6.8616244  
H    5.9888030   -1.9294834   -6.8575520  
H    3.9294718   -0.0600297   -7.9037130  
H    4.7066616   -1.7617126   -2.8422400  
C    8.9974889   -4.3883624   -6.5886515  
C    7.9306311   -3.5697492   -6.4361168  
C    7.6167575   -3.6232263   -5.0165660  
C    8.6214074   -4.5468910   -4.4472628  
N    9.4335443   -4.9985333   -5.3640195  
C    8.6508364   -4.8700768   -3.0473443  
C    7.7192205   -4.2962923   -2.2522360  
O    7.6292752   -4.5079181   -0.9281647  
C    6.6923765   -3.3597121   -2.7968191  
O    5.8748789   -2.8743968   -2.0149067  
C    6.6829948   -3.0441132   -4.2363450  
H    7.4198123   -2.9999120   -7.1933655  
H    9.3961989   -5.5484379   -2.6585359  
H    6.8728101   -3.9652041   -0.6411545  
H    9.5320142   -4.6205967   -7.4960226  
C    0.0000000    0.0000000    1.4700000  
C    1.0662921    0.0000102    2.3034270  
C    0.4961870   -0.0000064    3.6418889  
C   -0.9663858    0.0000850    3.4240247  
N   -1.2632773    0.0000084    2.1528658  
C   -1.8985362    0.0000517    4.5177257  
C   -1.3925775   -0.0004564    5.7720543  
O   -2.1456383   -0.0005410    6.8851312  
C    0.0786232   -0.0009323    6.0245000  
O    0.4683759   -0.0012588    7.1921102  
C    1.0143166   -0.0008442    4.8859032  
H    2.1107198   -0.0000632    2.0421868  
H   -2.9622183    0.0003270    4.3293377  
H   -1.5042274   -0.0009692    7.6184419  
H    2.0724152   -0.0013148    5.1109744  
