62

C    3.3041269    0.0001179   -1.5420437  
C    2.5845370   -0.0004780   -0.3695855  
C    1.2040003   -0.0000006   -0.7283588  
C    1.1422370    0.0006040   -2.1454376  
N    2.4348635    0.0026113   -2.6077471  
C   -0.0655191    0.0008803   -2.8497918  
C   -1.2321772    0.0002328   -2.1101395  
O   -2.4392820    0.0001150   -2.7472512  
C   -1.1911212   -0.0000006   -0.6955261  
O   -2.4371525   -0.0002319   -0.1032859  
C    0.0000000    0.0000000    0.0000000  
H    3.0031534   -0.0000662    0.6222577  
H   -0.1193554    0.0014851   -3.9297468  
H   -3.1132993   -0.0000643   -2.0551784  
H   -2.3200279   -0.0004071    0.8516418  
H    4.3686619    0.0004073   -1.7024300  
C    5.6928642   -2.1325511   -4.8023243  
C    4.8437646   -1.6629831   -3.8271308  
C    3.9187201   -0.7861184   -4.4674439  
C    4.2553064   -0.7600043   -5.8451067  
N    5.3381020   -1.5868696   -6.0138210  
C    3.5511940    0.0032266   -6.7813186  
C    2.4877412    0.7535316   -6.3184051  
O    1.7657442    1.5166953   -7.1897918  
C    2.1367180    0.7408789   -4.9474789  
O    1.0544917    1.5406705   -4.6434017  
C    2.8310655   -0.0116212   -4.0232755  
H    4.8866006   -1.9198936   -2.7825466  
H    3.8027850    0.0275524   -7.8326568  
H    1.0801148    1.9528847   -6.6673782  
H    0.8837157    1.4751247   -3.6988683  
H    6.5243657   -2.8124287   -4.7293116  
C    6.9161679   -5.3229252   -7.6072742  
C    7.3991990   -4.9376320   -8.8113553  
C    7.1205205   -3.5118379   -8.8884871  
C    6.4472844   -3.1940170   -7.6108618  
N    6.3247572   -4.2516984   -6.8556887  
C    6.0041731   -1.8640850   -7.2946021  
C    6.2239922   -0.8956009   -8.2127809  
O    5.8634369    0.3887441   -8.0499976  
C    6.9011593   -1.1847670   -9.5112376  
O    7.0681279   -0.2545493  -10.2999308  
C    7.3463728   -2.5570262   -9.8122602  
H    7.8847390   -5.5458294   -9.5552777  
H    6.1517253    0.8327730   -8.8678493  
H    7.8330116   -2.7251745  -10.7636473  
H    6.9285176   -6.3092951   -7.1715053  
C    0.0000000    0.0000000    1.4700000  
C    1.0662921    0.0000102    2.3034270  
C    0.4961870   -0.0000064    3.6418889  
C   -0.9663858    0.0000850    3.4240247  
N   -1.2632773    0.0000084    2.1528658  
C   -1.8985362    0.0000517    4.5177257  
C   -1.3925775   -0.0004564    5.7720543  
O   -2.1456383   -0.0005410    6.8851312  
C    0.0786232   -0.0009323    6.0245000  
O    0.4683759   -0.0012588    7.1921102  
C    1.0143166   -0.0008442    4.8859032  
H    2.1107198   -0.0000632    2.0421868  
H   -2.9622183    0.0003270    4.3293377  
H   -1.5042274   -0.0009692    7.6184419  
H    2.0724152   -0.0013148    5.1109744  
