60

C   -3.3003308   -0.0121629   -1.4739010  
C   -2.5232623   -0.0092455   -2.6090765  
C   -1.1623112   -0.0039658   -2.1820107  
C   -1.1711803   -0.0041874   -0.7636147  
N   -2.4852194   -0.0072698   -0.3662376  
C    0.0000000    0.0000000    0.0000000  
C    1.2020323    0.0041857   -0.6806468  
O    2.3759119    0.0080268    0.0157763  
C    1.2314571    0.0048526   -2.0955500  
O    2.5054229    0.0096365   -2.6250155  
C    0.0764511    0.0009967   -2.8495191  
H   -2.8919764   -0.0096338   -3.6205321  
H   -2.8035780   -0.0187023    0.5858645  
H    3.0835459    0.0108362   -0.6418796  
H    2.4359887    0.0097408   -3.5845903  
H    0.1304072    0.0018018   -3.9319082  
C   -6.4260389   -0.0257183   -4.5098949  
C   -7.5521987   -0.0295144   -3.7593424  
C   -7.0847699   -0.0267801   -2.3816621  
C   -5.6099337   -0.0213189   -2.4884927  
N   -5.2179277   -0.0205921   -3.7336114  
C   -4.7630180   -0.0172677   -1.3275436  
C   -5.3622243   -0.0182221   -0.1149905  
O   -4.6953486   -0.0148023    1.0517597  
C   -6.8482756   -0.0233185    0.0256712  
O   -7.3250620   -0.0240403    1.1605255  
C   -7.6953354   -0.0274557   -1.1803130  
H   -5.3902864   -0.0165612    1.7345560  
H   -8.7673997   -0.0309758   -1.0357616  
H   -6.3446258   -0.0261375   -5.5852301  
C   -8.9472575   -0.0350493   -4.2226791  
C   -9.4273857   -0.0378589   -5.4929326  
C  -10.8681732   -0.0430704   -5.3983907  
C  -11.1903899   -0.0430374   -3.9586105  
N   -9.9824120   -0.0384602   -3.3000832  
C  -12.4495769   -0.0468378   -3.4525107  
C  -13.5617013   -0.0514817   -4.3882959  
O  -14.7325504   -0.0551823   -4.0313678  
C  -13.2437634   -0.0518537   -5.9175835  
O  -14.1718851   -0.0560514   -6.7149757  
C  -11.8459593   -0.0472250   -6.3418173  
H   -8.8393503   -0.0366246   -6.3933918  
H  -12.6641596   -0.0466082   -2.3928580  
H  -11.6343199   -0.0473096   -7.4024461  
H   -9.8700928   -0.0357511   -2.3028745  
C    2.5528530    2.1414826    2.8079335  
C    2.0663498    1.7338582    4.0032312  
C    0.9804344    0.8229586    3.6752840  
C    0.9495562    0.7966882    2.1971295  
N    1.8690446    1.5676019    1.6831036  
C    0.0000000    0.0000000    1.4700000  
C   -0.8785127   -0.7372425    2.1869543  
O   -1.8187535   -1.5261249    1.6395491  
C   -0.8723269   -0.7321790    3.6796354  
O   -1.7010379   -1.4274584    4.2670412  
C    0.1115397    0.0933559    4.4024240  
H    2.4028853    2.0163452    4.9860947  
H   -2.2861435   -1.9184361    2.3990168  
H    0.0832434    0.0693689    5.4835595  
H    3.3664920    2.8238276    2.6198634  
