58

C    3.2573671   -0.0002920   -1.5109380  
C    2.5379468   -0.0001709   -0.3591959  
C    1.1435043    0.0000332   -0.7338499  
C    1.1092610   -0.0000082   -2.2088475  
N    2.4227563    0.0001909   -2.6182607  
C   -0.0265531   -0.0002522   -2.9515662  
C   -1.3003035   -0.0002639   -2.2514981  
O   -2.3786784   -0.0004130   -2.8306426  
C   -1.2877724    0.0000312   -0.6895602  
O   -2.3539954    0.0003307   -0.0892032  
C    0.0000000    0.0000000    0.0000000  
H    2.9384090   -0.0000368    0.6389242  
H    4.3270396   -0.0004764   -1.6439440  
H    2.7280497   -0.0013406   -3.5742110  
C   -0.0307351   -0.0004646   -4.4215605  
C    1.0331817   -0.0004858   -5.2580174  
C    0.4592712   -0.0007210   -6.5948514  
C   -1.0026760   -0.0009310   -6.3728277  
N   -1.2959498   -0.0007012   -5.1008291  
C   -1.9379340   -0.0011513   -7.4638723  
C   -1.4355459   -0.0007724   -8.7196350  
O   -2.1917699   -0.0009259   -9.8305655  
C    0.0349308   -0.0001820   -8.9762650  
O    0.4213603    0.0000158  -10.1449791  
C    0.9738596   -0.0000097   -7.8403353  
H    2.0783484   -0.0002675   -4.9997493  
H   -3.0010756   -0.0015084   -7.2724587  
H   -1.5524479   -0.0005378  -10.5656979  
C    4.3589470   -2.1068077   -6.0002476  
C    5.3658552   -1.6415997   -6.7836965  
C    4.7702412   -0.7462440   -7.7472410  
C    3.3234260   -0.7278048   -7.4588376  
N    3.1395689   -1.5733487   -6.3891925  
C    2.4108148    0.0007331   -8.1502695  
C    2.8851801    0.8212937   -9.2521742  
O    2.1418348    1.5132337   -9.9355166  
C    4.4133342    0.8168307   -9.5754873  
O    4.8243908    1.5034990  -10.5011115  
C    5.2990549   -0.0093139   -8.7588871  
H    6.4069908   -1.8967024   -6.6966761  
H    6.3557993   -0.0066698   -8.9891222  
H    4.4050796   -2.7946387   -5.1716038  
H    2.2559903   -1.7707728   -5.9563413  
C    0.8175213    0.6860729    2.3021913  
C    0.0000000    0.0000000    1.4700000  
C   -0.8887526   -0.7456559    2.3478473  
C   -0.4549825   -0.3816753    3.7138435  
N    0.5448156    0.4573574    3.6934124  
C   -1.0945674   -0.9182058    4.8835240  
C   -2.1210866   -1.7789155    4.6970523  
O   -2.8083856   -2.3554314    5.6976972  
C   -2.5824069   -2.1655116    3.3310774  
O   -3.5227682   -2.9541547    3.2362962  
C   -1.9100805   -1.6015804    2.1470656  
H   -0.7567140   -0.6349833    5.8697035  
H   -3.4728268   -2.9124471    5.2533954  
H   -2.2742832   -1.9066565    1.1752040  
H    1.6189533    1.3585343    2.0405121  
