60

C    3.3041273    0.0001179   -1.5420432  
C    2.5845372   -0.0004779   -0.3695859  
C    1.2040004   -0.0000007   -0.7283591  
C    1.1422373    0.0006038   -2.1454374  
N    2.4348638    0.0026111   -2.6077467  
C   -0.0655183    0.0008798   -2.8497918  
C   -1.2321770    0.0002324   -2.1101402  
O   -2.4392818    0.0001147   -2.7472522  
C   -1.1911210   -0.0000007   -0.6955265  
O   -2.4371525   -0.0002321   -0.1032862  
C    0.0000000    0.0000000    0.0000000  
H    3.0031535   -0.0000659    0.6222574  
H    2.7054626   -0.0071098   -3.5745264  
H   -3.1132989   -0.0000649   -2.0551791  
H   -2.3200282   -0.0004073    0.8516405  
H    4.3686619    0.0004073   -1.7024302  
C    2.1731802   -2.0070821   -6.1392841  
C    1.7797924   -1.6263721   -4.9015905  
C    0.6726054   -0.7095545   -5.1253815  
C    0.5289378   -0.6505907   -6.5959141  
N    1.4057894   -1.4091990   -7.1956092  
C   -0.4729119    0.1609527   -7.2305646  
C   -1.2941661    0.8805675   -6.4324225  
O   -2.2730577    1.6802751   -6.8888002  
C   -1.1744860    0.8418714   -4.9450289  
O   -1.9557862    1.5227170   -4.2807698  
C   -0.1387084    0.0017018   -4.3179687  
H    2.1901955   -1.9302430   -3.9537997  
H   -2.6812840    2.0546312   -6.0873254  
H    2.9695750   -2.6843163   -6.4040155  
C   -0.1370498   -2.9784705  -10.3172540  
C   -0.1736120   -2.2961600   -9.1437163  
C   -0.4429860   -0.9151534   -9.4678974  
C   -0.5612383   -0.8483575  -10.9370272  
N   -0.3651526   -2.1320232  -11.3916072  
C   -0.8143654    0.2862590  -11.6372258  
C   -0.9812685    1.5243142  -10.8943271  
O   -1.2119201    2.5987389  -11.4335044  
C   -0.8599017    1.4769837   -9.3377812  
O   -0.9982161    2.5130594   -8.7016393  
C   -0.5848235    0.1939375   -8.6959271  
H   -0.0282666   -2.7127123   -8.1629140  
H   -0.8973592    0.3135190  -12.7148520  
H    0.0375533   -4.0284082  -10.4876493  
H   -0.3866587   -2.4113443  -12.3552272  
C    0.8175213    0.6860729    2.3021913  
C    0.0000000    0.0000000    1.4700000  
C   -0.8887526   -0.7456559    2.3478473  
C   -0.4549825   -0.3816753    3.7138435  
N    0.5448156    0.4573574    3.6934124  
C   -1.0945674   -0.9182058    4.8835240  
C   -2.1210866   -1.7789155    4.6970523  
O   -2.8083856   -2.3554314    5.6976972  
C   -2.5824069   -2.1655116    3.3310774  
O   -3.5227682   -2.9541547    3.2362962  
C   -1.9100805   -1.6015804    2.1470656  
H   -0.7567140   -0.6349833    5.8697035  
H   -3.4728268   -2.9124471    5.2533954  
H   -2.2742832   -1.9066565    1.1752040  
H    1.6189533    1.3585343    2.0405121  
