62

C    1.1188635    0.0008230   -0.8003812  
C    0.0000000    0.0000000    0.0000000  
C   -1.1323869    0.0008899   -0.8673520  
C   -0.6382674    0.0019682   -2.1969276  
N    0.7324004    0.0038489   -2.1202243  
C   -1.4770932    0.0027322   -3.3154803  
C   -2.8395494    0.0020944   -3.0876841  
O   -3.7039219    0.0024426   -4.1440332  
C   -3.3517877    0.0013927   -1.7684319  
O   -4.7300505    0.0012356   -1.7073100  
C   -2.5248549    0.0009118   -0.6644807  
H   -1.1067591    0.0036995   -4.3313805  
H   -4.5940051    0.0021826   -3.7685106  
H   -4.9934603    0.0007250   -0.7819896  
H   -2.9462583    0.0005596    0.3339673  
H    2.1619887    0.0009364   -0.5342077  
C    2.8254802   -0.7379435   -3.3478744  
C    3.4453571   -0.5353471   -4.5390008  
C    2.6233053    0.3835452   -5.2904680  
C    1.4654085    0.7019859   -4.4333444  
N    1.6478417   -0.0100087   -3.2703005  
C    0.4564068    1.5390771   -4.7839136  
C    0.5146205    2.1682250   -6.0928519  
O   -0.3455857    2.9374869   -6.5009965  
C    1.7316009    1.8451748   -7.0171905  
O    1.7913120    2.3686840   -8.1215608  
C    2.7573620    0.9271118   -6.5284914  
H    4.3725554   -0.9791205   -4.8552011  
H   -0.3838664    1.7592661   -4.1402000  
H    3.1297774   -1.3579524   -2.5202983  
C    4.9398287   -2.8303577   -7.3513795  
C    5.8450492   -2.3146739   -8.2497739  
C    5.5556891   -0.9240858   -8.3806786  
C    4.4545917   -0.6462753   -7.5307776  
N    4.1042130   -1.8259039   -6.9222309  
C    3.8983574    0.6304241   -7.4065613  
C    4.4641707    1.6452232   -8.1536990  
O    3.9603982    2.9110192   -8.0701159  
C    5.5629635    1.3877483   -9.0076192  
O    6.0134582    2.5019410   -9.6850948  
C    6.1120433    0.1284434   -9.1308635  
H    6.6180600   -2.8724128   -8.7501486  
H    3.3617706   -1.9368525   -6.2555593  
H    4.4927236    3.4564995   -8.6637033  
H    6.7558836    2.2416480  -10.2388610  
H    6.9534745   -0.0384180   -9.7931538  
H    4.8232162   -3.8354854   -6.9838492  
C    2.5528530    2.1414826    2.8079335  
C    2.0663498    1.7338582    4.0032312  
C    0.9804344    0.8229586    3.6752840  
C    0.9495562    0.7966882    2.1971295  
N    1.8690446    1.5676019    1.6831036  
C    0.0000000    0.0000000    1.4700000  
C   -0.8785127   -0.7372425    2.1869543  
O   -1.8187535   -1.5261249    1.6395491  
C   -0.8723269   -0.7321790    3.6796354  
O   -1.7010379   -1.4274584    4.2670412  
C    0.1115397    0.0933559    4.4024240  
H    2.4028853    2.0163452    4.9860947  
H   -2.2861435   -1.9184361    2.3990168  
H    0.0832434    0.0693689    5.4835595  
H    3.3664920    2.8238276    2.6198634  
