58

C    2.5092656   -2.0880353   -5.9399693  
C    1.9605203   -1.6268618   -4.7865946  
C    0.8894578   -0.7326227   -5.1580735  
C    0.8589550   -0.7104865   -6.6329869  
N    1.8659249   -1.5524051   -7.0453890  
C   -0.0149645    0.0176455   -7.3731171  
C   -0.9904860    0.8341841   -6.6701527  
O   -1.8197990    1.5255387   -7.2468404  
C   -0.9762357    0.8261507   -5.1082508  
O   -1.7925801    1.5098889   -4.5054695  
C    0.0139726    0.0003889   -4.4216240  
H    2.2707701   -1.8836538   -3.7893907  
H   -0.0205013    0.0196538   -8.4542619  
H    2.0965121   -1.7491772   -8.0020280  
C    3.2798081    0.0005857   -1.4499659  
C    2.5571137    0.0005571   -2.5996563  
C    1.1637428    0.0001552   -2.2210365  
C    1.1336960   -0.0000198   -0.7459477  
N    2.4483511   -0.0001427   -0.3402723  
C    0.0000000    0.0000000    0.0000000  
C   -1.2757371   -0.0000185   -0.6964413  
O   -2.3524601   -0.0000635   -0.1142308  
C   -1.2676503   -0.0000868   -2.2584078  
O   -2.3355773   -0.0004091   -2.8557293  
C    0.0181552    0.0001766   -2.9516299  
H    2.9547345    0.0006081   -3.5989116  
H    4.3498543    0.0008613   -1.3200039  
H    2.7563627    0.0012823    0.6148054  
C    4.3653616   -3.6378288   -5.1704436  
C    3.6280794   -3.0234711   -6.1246756  
C    4.1831660   -3.4900337   -7.3859040  
C    5.2779719   -4.4042486   -6.9957813  
N    5.3894959   -4.4949395   -5.6983503  
C    6.0868318   -5.0823769   -7.9709603  
C    5.8141185   -4.8577298   -9.2765236  
O    6.4882369   -5.4233795  -10.2922227  
C    4.7156107   -3.9409934   -9.7020071  
O    4.5237345   -3.7834772  -10.9076582  
C    3.9000373   -3.2570925   -8.6826717  
H    6.8804822   -5.7447780   -7.6575065  
H    6.0653792   -5.0721100  -11.0965566  
H    3.1138243   -2.6012352   -9.0318851  
H    4.2681036   -3.5543629   -4.0996741  
C    0.8175213    0.6860729    2.3021913  
C    0.0000000    0.0000000    1.4700000  
C   -0.8887526   -0.7456559    2.3478473  
C   -0.4549825   -0.3816753    3.7138435  
N    0.5448156    0.4573574    3.6934124  
C   -1.0945674   -0.9182058    4.8835240  
C   -2.1210866   -1.7789155    4.6970523  
O   -2.8083856   -2.3554314    5.6976972  
C   -2.5824069   -2.1655116    3.3310774  
O   -3.5227682   -2.9541547    3.2362962  
C   -1.9100805   -1.6015804    2.1470656  
H   -0.7567140   -0.6349833    5.8697035  
H   -3.4728268   -2.9124471    5.2533954  
H   -2.2742832   -1.9066565    1.1752040  
H    1.6189533    1.3585343    2.0405121  
