60

C    0.0000000    0.0000000    0.0000000  
C    1.0521663   -0.0011848   -0.8862345  
C    0.4917204   -0.0011931   -2.1979132  
C   -0.9187440    0.0003103   -2.0478677  
N   -1.1833178   -0.0009469   -0.7007906  
C   -1.7951715    0.0010260   -3.1372080  
C   -1.2375860    0.0005162   -4.4010418  
O   -2.0474246    0.0015258   -5.4997565  
C    0.1673554   -0.0013555   -4.5711965  
O    0.5673495   -0.0020658   -5.8915552  
C    1.0325749   -0.0023359   -3.4969894  
H    2.0953051   -0.0030544   -0.6200571  
H   -2.0989782    0.0102266   -0.2891815  
H   -2.8710950    0.0020277   -3.0295498  
H   -1.4634918    0.0006423   -6.2693584  
H    1.5290678   -0.0033073   -5.9180051  
C    4.3492359   -2.0980064   -1.4710681  
C    3.1288583   -1.6343795   -1.8449721  
C    3.3413761   -0.7396446   -2.9581301  
C    4.7960275   -0.7198915   -3.2038732  
N    5.3496945   -1.5635224   -2.2686574  
C    5.4017582    0.0079301   -4.1760207  
C    4.5652013    0.8266244   -5.0376746  
O    5.0157004    1.5178902   -5.9418338  
C    3.0221456    0.8211333   -4.7952838  
O    2.3077276    1.5066991   -5.5142178  
C    2.4861679   -0.0045255   -3.7159933  
H    2.1872594   -1.8898593   -1.3924955  
H    4.6019212   -2.7850026   -0.6798181  
H    6.3294132   -1.7620983   -2.1805306  
C    8.4352158   -3.1986367   -4.0642336  
C    7.2775573   -2.4905377   -4.0142545  
C    7.6107536   -1.1174553   -4.3116780  
C    9.0678672   -1.0834133   -4.5407007  
N    9.5076219   -2.3765478   -4.3754476  
C    9.7717239    0.0350293   -4.8495316  
C    9.0457456    1.2889979   -4.9637781  
O    9.5894540    2.3508660   -5.2378536  
C    7.5021510    1.2763586   -4.7251125  
O    6.8803152    2.3260740   -4.8182745  
C    6.8548512    0.0082622   -4.3983299  
H    6.3016146   -2.8850332   -3.7939766  
H   10.8403413    0.0382748   -5.0137194  
H    8.5951844   -4.2518338   -3.8996859  
H   10.4604895   -2.6771899   -4.4687521  
C    3.1301144    0.0010313    3.1728260  
C    2.5367765    0.0002768    1.9564670  
C    1.1089900   -0.0001027    2.2356185  
C    1.0177864    0.0004150    3.7115134  
N    2.1993570    0.0011613    4.2663826  
C   -0.2459220    0.0002880    4.3957118  
C   -1.3675327    0.0000606    3.6398520  
O   -2.6129319   -0.0000866    4.1448486  
C   -1.3083589   -0.0000910    2.1483229  
O   -2.3693264   -0.0004206    1.5241687  
C    0.0000000    0.0000000    1.4700000  
H    3.0096015    0.0001008    0.9892483  
H   -0.2829642    0.0004689    5.4753125  
H   -3.1967446   -0.0002093    3.3649027  
H    4.1849273    0.0015113    3.3971983  
