60

C    0.0000000    0.0000000    0.0000000  
C    1.0521666   -0.0011901   -0.8862345  
C    0.4917216   -0.0011955   -2.1979134  
C   -0.9187431    0.0003149   -2.0478682  
N   -1.1833167   -0.0009411   -0.7007910  
C   -1.7951706    0.0010353   -3.1372088  
C   -1.2375843    0.0005228   -4.4010420  
O   -2.0474221    0.0015365   -5.4997576  
C    0.1673574   -0.0013564   -4.5711963  
O    0.5673516   -0.0020683   -5.8915555  
C    1.0325767   -0.0023410   -3.4969894  
H    2.0953060   -0.0030649   -0.6200564  
H   -2.0989775    0.0102373   -0.2891820  
H   -1.4634896    0.0006502   -6.2693588  
H    1.5290702   -0.0033149   -5.9180051  
H    2.1042146   -0.0039607   -3.6584460  
C   -3.2578658    0.0024043   -2.9908500  
C   -3.9809874    0.0031290   -1.8468773  
C   -5.3695594    0.0043917   -2.2808874  
C   -5.2983973    0.0043646   -3.7578844  
N   -4.0631146    0.0031214   -4.1798618  
C   -6.4794717    0.0054036   -4.5765101  
C   -7.6771923    0.0060343   -3.9481800  
O   -8.8597161    0.0070297   -4.5866766  
C   -7.7819057    0.0057086   -2.4591548  
O   -8.9049096    0.0064469   -1.9550871  
C   -6.5558062    0.0046825   -1.6414736  
H   -3.6170581    0.0027521   -0.8336490  
H   -6.3979234    0.0055647   -5.6536635  
H   -9.5255218    0.0072474   -3.8754417  
C   -5.9694012    0.7082812    0.7082248  
C   -6.7169761    0.0042449   -0.1803356  
C   -7.6915092   -0.7378288    0.5841563  
C   -7.4486862   -0.4060058    2.0010970  
N   -6.3917282    0.4747210    2.0081591  
C   -8.1630962   -0.9056509    3.0411344  
C   -9.2431114   -1.8322290    2.7452370  
O   -9.9442766   -2.3367602    3.6124842  
C   -9.5178342   -2.1979516    1.2517242  
O  -10.4243005   -2.9772292    0.9903716  
C   -8.6802801   -1.5948032    0.2180090  
H   -7.9687195   -0.6492009    4.0732974  
H   -8.8771268   -1.8530582   -0.8136305  
H   -5.1453423    1.3779306    0.5227897  
H   -5.9903995    0.8861800    2.8307672  
C    1.0672568    0.0000697    2.3021913  
C    0.0000000    0.0000000    1.4700000  
C   -1.1601224    0.0000736    2.3478473  
C   -0.5938729    0.0000769    3.7138435  
N    0.7113367    0.0001554    3.6934124  
C   -1.4286986    0.0001879    4.8835240  
C   -2.7683114    0.0006799    4.6970523  
O   -3.6653903    0.0008304    5.6976972  
C   -3.3702025    0.0010610    3.3310774  
O   -4.5974910    0.0013779    3.2362962  
C   -2.4926826    0.0008943    2.1470656  
H   -0.9878360   -0.0000190    5.8697035  
H   -4.5324246    0.0012261    5.2533954  
H   -2.9677772    0.0012974    1.1752040  
H    2.1134392    0.0000545    2.0405121  
