60

C    0.0000000    0.0000000    0.0000000  
C    1.0521663   -0.0012045   -0.8862348  
C    0.4917207   -0.0012024   -2.1979137  
C   -0.9187436    0.0003273   -2.0478681  
N   -1.1833172   -0.0009251   -0.7007908  
C   -1.7951715    0.0010596   -3.1372085  
C   -1.2375856    0.0005393   -4.4010423  
O   -2.0474234    0.0015638   -5.4997572  
C    0.1673564   -0.0013591   -4.5711968  
O    0.5673498   -0.0020764   -5.8915551  
C    1.0325757   -0.0023552   -3.4969898  
H    2.0953052   -0.0030934   -0.6200571  
H   -2.0989776    0.0102657   -0.2891816  
H   -1.4634914    0.0006698   -6.2693588  
H    1.5290683   -0.0033362   -5.9180052  
H    2.1042128   -0.0039896   -3.6584466  
C   -4.3329539    2.1450432   -0.3175470  
C   -5.5711353    1.7385772   -0.6826101  
C   -5.3537974    0.8274321   -1.7957493  
C   -3.8860875    0.7997670   -1.9736439  
N   -3.2823388    1.5701406   -1.1099302  
C   -3.2578665    0.0024482   -2.9908495  
C   -4.0594235   -0.7340647   -3.7935882  
O   -3.6090990   -1.5234087   -4.7836311  
C   -5.5440664   -0.7275914   -3.6388163  
O   -6.2117205   -1.4222667   -4.4049003  
C   -6.1645247    0.0985679   -2.5879038  
H   -6.5153407    2.0219728   -0.2498991  
H   -4.4116988   -1.9149746   -5.1730693  
H   -4.0641638    2.8271623    0.4733000  
C   -9.1023697    3.2656322   -1.7991670  
C  -10.2428605    2.5296998   -1.8411097  
C   -9.8541320    1.1659568   -2.1130117  
C   -8.3831345    1.1677175   -2.2268259  
N   -7.9892705    2.4707003   -2.0268347  
C   -7.6302186    0.0673626   -2.4798900  
C   -8.3143225   -1.2034511   -2.6518485  
O   -7.7251287   -2.2511767   -2.8829813  
C   -9.8717846   -1.2286341   -2.5357301  
O  -10.4587595   -2.2926906   -2.6789264  
C  -10.5733356    0.0225505   -2.2596598  
H  -11.2423958    2.8999584   -1.6980954  
H  -11.6516643   -0.0034650   -2.1805750  
H   -8.9814051    4.3218627   -1.6213053  
H   -7.0393682    2.7939812   -2.0417452  
C    3.1301144    0.0010313    3.1728260  
C    2.5367765    0.0002768    1.9564670  
C    1.1089900   -0.0001027    2.2356185  
C    1.0177864    0.0004150    3.7115134  
N    2.1993570    0.0011613    4.2663826  
C   -0.2459220    0.0002880    4.3957118  
C   -1.3675327    0.0000606    3.6398520  
O   -2.6129319   -0.0000866    4.1448486  
C   -1.3083589   -0.0000910    2.1483229  
O   -2.3693264   -0.0004206    1.5241687  
C    0.0000000    0.0000000    1.4700000  
H    3.0096015    0.0001008    0.9892483  
H   -0.2829642    0.0004689    5.4753125  
H   -3.1967446   -0.0002093    3.3649027  
H    4.1849273    0.0015113    3.3971983  
