58

C   -8.4856331    1.0909973   -1.6396225  
C   -7.6673854    0.0591955   -1.9517685  
C   -8.5401864   -1.1023274   -2.0264724  
C   -9.8882911   -0.5756239   -1.7235148  
N   -9.8625862    0.7095027   -1.4959665  
C  -11.0482450   -1.4235103   -1.6974224  
C  -10.8696262   -2.7377586   -1.9623368  
O  -11.8627316   -3.6431211   -1.9723913  
C   -9.5217513   -3.2994757   -2.2719639  
O   -9.4332815   -4.5052559   -2.5032393  
C   -8.3474391   -2.4092562   -2.2925860  
H  -12.0213414   -1.0117394   -1.4728329  
H  -11.4271961   -4.4864692   -2.1919928  
H   -7.3886739   -2.8550064   -2.5212889  
H   -8.2224985    2.1265690   -1.4935914  
C   -4.2186865    2.1401318   -0.0437260  
C   -5.4804250    1.7323141   -0.3144295  
C   -5.3466897    0.8217462   -1.4411418  
C   -3.8965666    0.7958597   -1.7293371  
N   -3.2302259    1.5666944   -0.9133753  
C   -3.3460097   -0.0004262   -2.7913647  
C   -4.2050302   -0.7376508   -3.5315799  
O   -3.8298203   -1.5261790   -4.5530896  
C   -5.6737596   -0.7329691   -3.2651708  
O   -6.3965398   -1.4282088   -3.9789289  
C   -6.2140638    0.0921566   -2.1701080  
H   -6.3895961    2.0144736    0.1884319  
H   -4.6590779   -1.9185769   -4.8809753  
H   -3.8917480    2.8223391    0.7248296  
C    0.0000000    0.0000000    0.0000000  
C    1.0662919   -0.0000103   -0.8334272  
C    0.4961868    0.0000066   -2.1718889  
C   -0.9663860   -0.0000849   -1.9540248  
N   -1.2632775   -0.0000084   -0.6828659  
C   -1.8985364   -0.0000515   -3.0477258  
C   -1.3925778    0.0004567   -4.3020543  
O   -2.1456385    0.0005412   -5.4151314  
C    0.0786229    0.0009326   -4.5544999  
O    0.4683756    0.0012594   -5.7221104  
C    1.0143162    0.0008443   -3.4159034  
H    2.1107195    0.0000631   -0.5721869  
H   -1.5042277    0.0009692   -6.1484420  
H    2.0724151    0.0013151   -3.6409746  
C    1.0672568    0.0000697    2.3021913  
C    0.0000000    0.0000000    1.4700000  
C   -1.1601224    0.0000736    2.3478473  
C   -0.5938729    0.0000769    3.7138435  
N    0.7113367    0.0001554    3.6934124  
C   -1.4286986    0.0001879    4.8835240  
C   -2.7683114    0.0006799    4.6970523  
O   -3.6653903    0.0008304    5.6976972  
C   -3.3702025    0.0010610    3.3310774  
O   -4.5974910    0.0013779    3.2362962  
C   -2.4926826    0.0008943    2.1470656  
H   -0.9878360   -0.0000190    5.8697035  
H   -4.5324246    0.0012261    5.2533954  
H   -2.9677772    0.0012974    1.1752040  
H    2.1134392    0.0000545    2.0405121  
