62

C    3.3041272    0.0001177   -1.5420434  
C    2.5845370   -0.0004780   -0.3695851  
C    1.2040004   -0.0000009   -0.7283586  
C    1.1422373    0.0006035   -2.1454377  
N    2.4348637    0.0026107   -2.6077466  
C   -0.0655184    0.0008795   -2.8497920  
C   -1.2321773    0.0002321   -2.1101396  
O   -2.4392818    0.0001142   -2.7472517  
C   -1.1911213   -0.0000008   -0.6955263  
O   -2.4371528   -0.0002322   -0.1032857  
C    0.0000000    0.0000000    0.0000000  
H    3.0031534   -0.0000660    0.6222583  
H   -0.1193551    0.0014839   -3.9297468  
H   -3.1132995   -0.0000650   -2.0551788  
H   -2.3200282   -0.0004072    0.8516412  
H    4.3686622    0.0004073   -1.7024294  
C    5.6928652   -2.1325520   -4.8023231  
C    4.8437654   -1.6629839   -3.8271294  
C    3.9187210   -0.7861193   -4.4674434  
C    4.2553071   -0.7600055   -5.8451058  
N    5.3381028   -1.5868707   -6.0138198  
C    3.5511949    0.0032252   -6.7813181  
C    2.4877422    0.7535302   -6.3184054  
O    1.7657453    1.5166936   -7.1897919  
C    2.1367186    0.7408777   -4.9474784  
O    1.0544921    1.5406693   -4.6434021  
C    2.8310660   -0.0116222   -4.0232754  
H    4.8866013   -1.9198940   -2.7825456  
H    5.7930173   -1.7762038   -6.8885700  
H    1.0801159    1.9528830   -6.6673787  
H    0.8837164    1.4751238   -3.6988685  
H    6.5243667   -2.8124293   -4.7293100  
C    4.2783015   -1.0238470   -8.9668251  
C    3.8932280    0.0362953   -8.2105903  
C    3.8860015    1.1911446   -9.0772550  
C    4.3013804    0.7134758  -10.4099517  
N    4.5247036   -0.6374302  -10.2755304  
C    4.4191626    1.5030089  -11.5074351  
C    4.1168481    2.9176867  -11.3666248  
O    4.1930234    3.7108097  -12.2958469  
C    3.6752915    3.4454098   -9.9643615  
O    3.4184591    4.6346090   -9.8335827  
C    3.5847033    2.4975363   -8.8565786  
H    4.7253055    1.1325780  -12.4759221  
H    3.2780524    2.8709030   -7.8889603  
H    4.4030160   -2.0548637   -8.6781381  
H    4.8191646   -1.2488651  -11.0147775  
C    2.3971438    2.0127888    3.1728260  
C    1.9431056    1.6308205    1.9564670  
C    0.8496017    0.7127664    2.2356185  
C    0.7794028    0.6545384    3.7115134  
N    1.6840587    1.4146091    4.2663826  
C   -0.1885723   -0.1578550    4.3957118  
C   -1.0476298   -0.8789867    3.6398520  
O   -2.0015663   -1.6796266    4.1448486  
C   -1.0022026   -0.8410666    2.1483229  
O   -1.8147390   -1.5232959    1.5241687  
C    0.0000000    0.0000000    1.4700000  
H    2.3054237    1.9346118    0.9892483  
H   -0.2170646   -0.1815267    5.4753125  
H   -2.4487139   -2.0549881    3.3649027  
H    3.2048689    2.6911772    3.3971983  
