58

C    0.0000000    0.0000000    0.0000000  
C    1.0541685   -0.0001718   -0.8560392  
C    0.5103137   -0.0000448   -2.1935958  
C   -0.9576367    0.0002463   -2.0455734  
N   -1.2018458   -0.0001390   -0.6915970  
C   -1.8348312    0.0008321   -3.0810610  
C   -1.2972852    0.0009745   -4.4314608  
O   -2.0050675    0.0014276   -5.4301319  
C    0.2542623    0.0004195   -4.6117577  
O    0.7184669    0.0002269   -5.7439119  
C    1.0974552    0.0000881   -3.4189132  
H    2.0940750   -0.0005479   -0.5817985  
H   -2.9081044    0.0011672   -2.9507062  
H   -2.1128195    0.0014912   -0.2706792  
C    4.1988040   -2.1397328   -1.2302381  
C    5.3249605   -1.7327105   -1.8608595  
C    4.8655807   -0.8226603   -2.8987799  
C    3.3949139   -0.7961719   -2.7470504  
N    2.9982276   -1.5662358   -1.7705102  
C    2.5562211   -0.0001540   -3.6003008  
C    3.1593389    0.7362391   -4.5611901  
O    2.5001461    1.5244295   -5.4273667  
C    4.6413757    0.7309348   -4.7392339  
O    5.1220776    1.4254277   -5.6346811  
C    5.4799926   -0.0939005   -3.8513751  
H    6.3418218   -2.0150794   -1.6479354  
H    3.1961609    1.9162266   -5.9852295  
H    4.1125269   -2.8213698   -0.3990337  
C    8.4140493   -3.3122175   -3.7056228  
C    9.5654559   -2.6612184   -3.9920518  
C    9.1739345   -1.2732039   -4.1834313  
C    7.7108228   -1.2657483   -3.9693470  
N    7.2597249   -2.4581511   -3.6888549  
C    6.9331579   -0.0615792   -4.0708410  
C    7.5874561    1.0831753   -4.3721140  
O    6.9880363    2.2793337   -4.4983735  
C    9.0634368    1.1081436   -4.5935174  
O    9.5927435    2.1859187   -4.8645467  
C    9.8389315   -0.1402547   -4.4838234  
H   10.5579157   -3.0721473   -4.0644276  
H    7.7098465    2.8967442   -4.7150456  
H   10.9059524   -0.0799348   -4.6513359  
H    8.2785938   -4.3616235   -3.4973630  
C    1.0672568    0.0000697    2.3021913  
C    0.0000000    0.0000000    1.4700000  
C   -1.1601224    0.0000736    2.3478473  
C   -0.5938729    0.0000769    3.7138435  
N    0.7113367    0.0001554    3.6934124  
C   -1.4286986    0.0001879    4.8835240  
C   -2.7683114    0.0006799    4.6970523  
O   -3.6653903    0.0008304    5.6976972  
C   -3.3702025    0.0010610    3.3310774  
O   -4.5974910    0.0013779    3.2362962  
C   -2.4926826    0.0008943    2.1470656  
H   -0.9878360   -0.0000190    5.8697035  
H   -4.5324246    0.0012261    5.2533954  
H   -2.9677772    0.0012974    1.1752040  
H    2.1134392    0.0000545    2.0405121  
