58

C    0.8287642   -0.0026391   -4.7555303  
C   -0.4848160    0.0009755   -5.0812195  
C   -0.5105991    0.0009264   -6.5358101  
C    0.9135360   -0.0029433   -6.9338157  
N    1.7033551   -0.0051271   -5.8945034  
C    1.3181642   -0.0041923   -8.3127143  
C    0.3443494   -0.0020780   -9.2513376  
O    0.5775743   -0.0029010  -10.5748355  
C   -1.1017767    0.0014661   -8.8813818  
O   -1.9341127    0.0033736   -9.7882630  
C   -1.4913167    0.0027312   -7.4600506  
H   -1.3316853    0.0032881   -4.4164768  
H   -0.3072631   -0.0009147  -10.9825261  
H   -2.5491390    0.0051980   -7.2336969  
C   -1.0672512    0.0033480   -0.8321916  
C    0.0000000    0.0000000    0.0000000  
C    1.1601178   -0.0034897   -0.8778468  
C    0.5938715   -0.0017470   -2.2438436  
N   -0.7113320    0.0023404   -2.2234128  
C    1.4286938   -0.0042002   -3.4135237  
C    2.7683016   -0.0078229   -3.2270517  
O    3.6653769   -0.0104277   -4.2276962  
C    3.3701908   -0.0092906   -1.8610764  
O    4.5974742   -0.0127432   -1.7662951  
C    2.4926739   -0.0067620   -0.6770651  
H    4.5324082   -0.0126952   -3.7833937  
H    2.9677674   -0.0078181    0.2947972  
H   -2.1134285    0.0065461   -0.5705130  
C    2.7442264   -0.0077813   -8.6694127  
C    3.8114801   -0.0102236   -7.8372213  
C    4.9715989   -0.0132624   -8.7150678  
C    4.4053502   -0.0122769  -10.0810642  
N    3.1001455   -0.0089861  -10.0606334  
C    5.2401733   -0.0145664  -11.2507450  
C    6.5797837   -0.0173093  -11.0642723  
O    7.4768600   -0.0196616  -12.0649175  
C    7.1816740   -0.0179980   -9.6982974  
O    8.4089596   -0.0206674   -9.6035164  
C    6.3041571   -0.0156549   -8.5142862  
H    3.8114804   -0.0099016   -6.7606174  
H    4.7993114   -0.0139854  -12.2369240  
H    8.3438928   -0.0212628  -11.6206156  
H    6.7792514   -0.0161282   -7.5424244  
C    2.3971438    2.0127888    3.1728260  
C    1.9431056    1.6308205    1.9564670  
C    0.8496017    0.7127664    2.2356185  
C    0.7794028    0.6545384    3.7115134  
N    1.6840587    1.4146091    4.2663826  
C   -0.1885723   -0.1578550    4.3957118  
C   -1.0476298   -0.8789867    3.6398520  
O   -2.0015663   -1.6796266    4.1448486  
C   -1.0022026   -0.8410666    2.1483229  
O   -1.8147390   -1.5232959    1.5241687  
C    0.0000000    0.0000000    1.4700000  
H    2.3054237    1.9346118    0.9892483  
H   -0.2170646   -0.1815267    5.4753125  
H   -2.4487139   -2.0549881    3.3649027  
H    3.2048689    2.6911772    3.3971983  
