60

C    3.3003554    0.0005275   -1.4738974  
C    2.5232826    0.0003498   -2.6090738  
C    1.1623213   -0.0001318   -2.1820099  
C    1.1711890    0.0000584   -0.7636139  
N    2.4852302   -0.0014918   -0.3662349  
C    0.0000000    0.0000000    0.0000000  
C   -1.2020378    0.0000521   -0.6806491  
O   -2.3759246    0.0003495    0.0157732  
C   -1.2314647   -0.0005109   -2.0955517  
O   -2.5054373   -0.0008032   -2.6250193  
C   -0.0764502   -0.0007270   -2.8495196  
H    2.8036265    0.0088179    0.5858675  
H   -3.0835636    0.0000352   -0.6418829  
H   -2.4360027   -0.0011521   -3.5845936  
H   -0.1304075   -0.0013417   -3.9319090  
H    4.3715556    0.0004894   -1.3667119  
C    4.0912600   -0.7049384   -4.4540724  
C    3.0267456   -0.0008951   -3.9901691  
C    2.4918056    0.7392289   -5.1086016  
C    3.3379779    0.4062540   -6.2704577  
N    4.2890172   -0.4732103   -5.8068229  
C    3.1585259    0.9039811   -7.5201654  
C    2.0587118    1.8295632   -7.7352064  
O    1.8145075    2.3323680   -8.8241749  
C    1.1499717    2.1964773   -6.5189122  
O    0.2211209    2.9749320   -6.6877457  
C    1.4426664    1.5953885   -5.2201156  
H    0.8086049    1.8544580   -4.3831132  
H    4.7480580   -1.3734088   -3.9214817  
H    5.0137610   -0.8850252   -6.3655735  
C    4.5175242   -0.6774873   -8.9386456  
C    4.0179321    0.5541866   -8.6603257  
C    4.4920691    1.4441792   -9.6937387  
C    5.3147164    0.6241597  -10.6034691  
N    5.2902195   -0.6519186  -10.0897439  
C    5.9426848    1.0976968  -11.7094182  
C    5.7989105    2.5092491  -12.0246705  
O    6.3254643    3.0312306  -12.9986204  
C    4.9325161    3.3964614  -11.0749225  
O    4.8044784    4.5863392  -11.3299864  
C    4.3046775    2.7719062   -9.9131994  
H    6.5413624    0.4791511  -12.3635558  
H    3.7062504    3.3930765   -9.2606986  
H    4.3864054   -1.6016570   -8.3995649  
H    5.7595318   -1.4432250  -10.4905276  
C    0.8175213    0.6860729    2.3021913  
C    0.0000000    0.0000000    1.4700000  
C   -0.8887526   -0.7456559    2.3478473  
C   -0.4549825   -0.3816753    3.7138435  
N    0.5448156    0.4573574    3.6934124  
C   -1.0945674   -0.9182058    4.8835240  
C   -2.1210866   -1.7789155    4.6970523  
O   -2.8083856   -2.3554314    5.6976972  
C   -2.5824069   -2.1655116    3.3310774  
O   -3.5227682   -2.9541547    3.2362962  
C   -1.9100805   -1.6015804    2.1470656  
H   -0.7567140   -0.6349833    5.8697035  
H   -3.4728268   -2.9124471    5.2533954  
H   -2.2742832   -1.9066565    1.1752040  
H    1.6189533    1.3585343    2.0405121  
