58

C    0.0000000    0.0000000    0.0000000  
C    1.0541693   -0.0001721   -0.8560389  
C    0.5103150   -0.0000451   -2.1935956  
C   -0.9576363    0.0002465   -2.0455733  
N   -1.2018452   -0.0001388   -0.6915972  
C   -1.8348298    0.0008325   -3.0810614  
C   -1.2972830    0.0009746   -4.4314610  
O   -2.0050650    0.0014279   -5.4301326  
C    0.2542643    0.0004191   -4.6117573  
O    0.7184695    0.0002265   -5.7439121  
C    1.0974565    0.0000878   -3.4189126  
H    2.0940756   -0.0005485   -0.5817977  
H    2.1707293   -0.0000910   -3.5523662  
H   -2.1128192    0.0014916   -0.2706798  
C   -4.4922135    2.0924796   -0.2420904  
C   -3.4155262    1.6303232   -0.9285534  
C   -3.9166416    0.7353638   -1.9448045  
C   -5.3840553    0.7138765   -1.7930606  
N   -5.6687569    1.5568198   -0.7436415  
C   -6.2266201   -0.0146439   -2.5683329  
C   -5.6496868   -0.8323140   -3.6224197  
O   -6.3245416   -1.5240948   -4.3736268  
C   -4.0979603   -0.8249829   -3.8010133  
O   -3.6007571   -1.5096744   -4.6848946  
C   -3.2941061    0.0012884   -2.9038251  
H   -2.3875701    1.8869178   -0.7439486  
H   -4.5251467    2.7791523    0.5881422  
H   -6.5895628    1.7542209   -0.3969475  
C   -7.6862945   -0.0167091   -2.3944163  
C   -8.4180672    0.6663625   -1.4836471  
C   -9.7983467    0.2986356   -1.7595195  
C   -9.7134239   -0.6395141   -2.8993648  
N   -8.4778629   -0.8283010   -3.2758434  
C  -10.8831876   -1.2392326   -3.4799467  
C  -12.0832098   -0.9167133   -2.9458444  
O  -13.2561201   -1.4015774   -3.3876925  
C  -12.2016661    0.0266297   -1.7950911  
O  -13.3260324    0.2748413   -1.3598759  
C  -10.9870075    0.6287267   -1.2171571  
H   -8.0648207    1.3368775   -0.7189888  
H  -10.7917110   -1.9213165   -4.3125948  
H  -13.9266197   -0.9913458   -2.8121120  
H  -11.1153971    1.3070263   -0.3842973  
C    0.0000000    0.0000000    1.4700000  
C    1.0662921    0.0000102    2.3034270  
C    0.4961870   -0.0000064    3.6418889  
C   -0.9663858    0.0000850    3.4240247  
N   -1.2632773    0.0000084    2.1528658  
C   -1.8985362    0.0000517    4.5177257  
C   -1.3925775   -0.0004564    5.7720543  
O   -2.1456383   -0.0005410    6.8851312  
C    0.0786232   -0.0009323    6.0245000  
O    0.4683759   -0.0012588    7.1921102  
C    1.0143166   -0.0008442    4.8859032  
H    2.1107198   -0.0000632    2.0421868  
H   -2.9622183    0.0003270    4.3293377  
H   -1.5042274   -0.0009692    7.6184419  
H    2.0724152   -0.0013148    5.1109744  
