58

C    3.2573664   -0.0002920   -1.5109382  
C    2.5379465   -0.0001710   -0.3591962  
C    1.1435036    0.0000330   -0.7338498  
C    1.1092603   -0.0000084   -2.2088474  
N    2.4227555    0.0001909   -2.6182611  
C   -0.0265540   -0.0002525   -2.9515658  
C   -1.3003048   -0.0002641   -2.2514978  
O   -2.3786790   -0.0004135   -2.8306421  
C   -1.2877729    0.0000310   -0.6895604  
O   -2.3539957    0.0003305   -0.0892032  
C    0.0000000    0.0000000    0.0000000  
H    2.9384082   -0.0000368    0.6389235  
H   -0.0296295   -0.0004087   -4.0327230  
H    2.7280487   -0.0013408   -3.5742115  
C    6.7921799    0.0009713    1.2037504  
C    5.5119028    0.0013961    0.7650370  
C    5.6127419    0.0004334   -0.6862834  
C    7.0661036   -0.0004195   -0.9589048  
N    7.7625307   -0.0001897    0.1451694  
C    7.5891407   -0.0015551   -2.2973807  
C    6.7006580   -0.0022151   -3.3171516  
O    7.0481221   -0.0032832   -4.6153462  
C    5.2278295   -0.0017546   -3.0743860  
O    4.4775287   -0.0022801   -4.0502290  
C    4.7161327   -0.0005436   -1.6923260  
H    4.6104191    0.0021661    1.3535962  
H    6.2020979   -0.0035564   -5.0984572  
H    7.1449939    0.0014090    2.2228164  
C   11.0991351   -2.0137151   -0.4277295  
C    9.8265799   -1.6316383   -0.6850243  
C    9.9304189   -0.7145093   -1.8095649  
C   11.3768963   -0.6568796   -2.1111664  
N   12.0670133   -1.4164754   -1.3044801  
C   11.9004629    0.1545334   -3.1753912  
C   11.0190243    0.8752989   -3.9053903  
O   11.3678262    1.6750352   -4.9275447  
C    9.5532134    0.8379642   -3.6258081  
O    8.8091508    1.5198136   -4.3305582  
C    9.0408287   -0.0020984   -2.5286837  
H    8.9283456   -1.9347998   -0.1747858  
H   12.9621373    0.1777847   -3.3734216  
H   10.5273309    2.0503489   -5.2466987  
H   11.4476395   -2.6915793    0.3351715  
C    0.0000000    0.0000000    1.4700000  
C    1.0662921    0.0000102    2.3034270  
C    0.4961870   -0.0000064    3.6418889  
C   -0.9663858    0.0000850    3.4240247  
N   -1.2632773    0.0000084    2.1528658  
C   -1.8985362    0.0000517    4.5177257  
C   -1.3925775   -0.0004564    5.7720543  
O   -2.1456383   -0.0005410    6.8851312  
C    0.0786232   -0.0009323    6.0245000  
O    0.4683759   -0.0012588    7.1921102  
C    1.0143166   -0.0008442    4.8859032  
H    2.1107198   -0.0000632    2.0421868  
H   -2.9622183    0.0003270    4.3293377  
H   -1.5042274   -0.0009692    7.6184419  
H    2.0724152   -0.0013148    5.1109744  
