62

C    3.3041273    0.0001179   -1.5420432  
C    2.5845372   -0.0004779   -0.3695859  
C    1.2040004   -0.0000007   -0.7283591  
C    1.1422373    0.0006038   -2.1454374  
N    2.4348638    0.0026111   -2.6077467  
C   -0.0655183    0.0008798   -2.8497918  
C   -1.2321770    0.0002324   -2.1101402  
O   -2.4392818    0.0001147   -2.7472522  
C   -1.1911210   -0.0000007   -0.6955265  
O   -2.4371525   -0.0002321   -0.1032862  
C    0.0000000    0.0000000    0.0000000  
H    3.0031535   -0.0000659    0.6222574  
H    2.7054626   -0.0071098   -3.5745264  
H   -3.1132989   -0.0000649   -2.0551791  
H   -2.3200282   -0.0004073    0.8516405  
H    4.3686619    0.0004073   -1.7024302  
C    2.1731802   -2.0070821   -6.1392841  
C    1.7797924   -1.6263721   -4.9015905  
C    0.6726054   -0.7095545   -5.1253815  
C    0.5289378   -0.6505907   -6.5959141  
N    1.4057894   -1.4091990   -7.1956092  
C   -0.4729119    0.1609527   -7.2305646  
C   -1.2941661    0.8805675   -6.4324225  
O   -2.2730577    1.6802751   -6.8888002  
C   -1.1744860    0.8418714   -4.9450289  
O   -1.9557862    1.5227170   -4.2807698  
C   -0.1387084    0.0017018   -4.3179687  
H    2.1901955   -1.9302430   -3.9537997  
H   -2.6812840    2.0546312   -6.0873254  
H    2.9695750   -2.6843163   -6.4040155  
C   -0.1259942   -3.0214712  -10.2819093  
C   -0.3469199   -2.2311494  -11.3860161  
C   -0.5501444   -0.9012079  -10.9121427  
C   -0.4404416   -0.9417307   -9.4985484  
N   -0.1845581   -2.2443437   -9.1487763  
C   -0.5848235    0.1939375   -8.6959271  
C   -0.8443821    1.3923983   -9.3319292  
O   -0.9939964    2.5322923   -8.5962179  
C   -0.9577393    1.4530139  -10.7412878  
O   -1.2185620    2.7188286  -11.2240186  
C   -0.8156885    0.3330017  -11.5337027  
H   -0.3610796   -2.5715423  -12.4072532  
H   -0.0469098   -2.5773043   -8.2116678  
H   -1.1666999    3.2435308   -9.2267565  
H   -1.2799546    2.6719541  -12.1829965  
H   -0.9080225    0.4102929  -12.6107264  
H    0.0673026   -4.0782767  -10.2129363  
C    2.5528530    2.1414826    2.8079335  
C    2.0663498    1.7338582    4.0032312  
C    0.9804344    0.8229586    3.6752840  
C    0.9495562    0.7966882    2.1971295  
N    1.8690446    1.5676019    1.6831036  
C    0.0000000    0.0000000    1.4700000  
C   -0.8785127   -0.7372425    2.1869543  
O   -1.8187535   -1.5261249    1.6395491  
C   -0.8723269   -0.7321790    3.6796354  
O   -1.7010379   -1.4274584    4.2670412  
C    0.1115397    0.0933559    4.4024240  
H    2.4028853    2.0163452    4.9860947  
H   -2.2861435   -1.9184361    2.3990168  
H    0.0832434    0.0693689    5.4835595  
H    3.3664920    2.8238276    2.6198634  
