60

C   -3.3003090   -0.0171687   -1.4738997  
C   -2.5232464   -0.0130727   -2.6090755  
C   -1.1623051   -0.0057288   -2.1820104  
C   -1.1711731   -0.0059637   -0.7636142  
N   -2.4852058   -0.0110393   -0.3662366  
C    0.0000000    0.0000000    0.0000000  
C    1.2020235    0.0060090   -0.6806472  
O    2.3758965    0.0116306    0.0157757  
C    1.2314485    0.0067205   -2.0955503  
O    2.5054043    0.0134367   -2.6250165  
C    0.0764482    0.0011127   -2.8495194  
H   -2.8919602   -0.0140202   -3.6205310  
H   -2.8035463   -0.0229546    0.5858655  
H    3.0835257    0.0155133   -0.6418803  
H    2.4359703    0.0134356   -3.5845910  
H    0.1304025    0.0019997   -3.9319083  
C   -6.5322608   -0.0358339   -4.4466898  
C   -7.6042747   -0.0405540   -3.6131201  
C   -7.0888190   -0.0370711   -2.2643692  
C   -5.6180856   -0.0298542   -2.3813360  
N   -5.3453136   -0.0298416   -3.7298482  
C   -4.7629867   -0.0244920   -1.3275418  
C   -5.3289504   -0.0261503    0.0111956  
O   -4.6424445   -0.0217509    1.0246013  
C   -6.8839412   -0.0340120    0.1586628  
O   -7.3719662   -0.0357787    1.2807542  
C   -7.7017225   -0.0390465   -1.0517345  
H   -8.7775633   -0.0442741   -0.9409923  
H   -6.5094774   -0.0364457   -5.5243587  
H   -4.4256657   -0.0241002   -4.1314209  
C   -9.7721359   -2.1480502   -6.8310806  
C   -8.8190421   -1.6800244   -5.9845351  
C   -9.4779047   -0.7862064   -5.0615916  
C  -10.9031967   -0.7717850   -5.4425441  
N  -11.0153485   -1.6173139   -6.5220778  
C  -11.8605595   -0.0462953   -4.8110174  
C  -11.4604481    0.7753370   -3.6808109  
O  -12.2482425    1.4648454   -3.0465711  
C   -9.9561864    0.7754993   -3.2600947  
O   -9.6074170    1.4635764   -2.3102684  
C   -9.0174196   -0.0480682   -4.0179237  
H   -7.7737110   -1.9320155   -6.0044795  
H  -12.9005862   -0.0499660   -5.1063823  
H   -9.6708713   -2.8358658   -7.6548189  
H  -11.8691863   -1.8194481   -7.0090572  
C    2.3971438    2.0127888    3.1728260  
C    1.9431056    1.6308205    1.9564670  
C    0.8496017    0.7127664    2.2356185  
C    0.7794028    0.6545384    3.7115134  
N    1.6840587    1.4146091    4.2663826  
C   -0.1885723   -0.1578550    4.3957118  
C   -1.0476298   -0.8789867    3.6398520  
O   -2.0015663   -1.6796266    4.1448486  
C   -1.0022026   -0.8410666    2.1483229  
O   -1.8147390   -1.5232959    1.5241687  
C    0.0000000    0.0000000    1.4700000  
H    2.3054237    1.9346118    0.9892483  
H   -0.2170646   -0.1815267    5.4753125  
H   -2.4487139   -2.0549881    3.3649027  
H    3.2048689    2.6911772    3.3971983  
