58

C   -3.2573639   -0.0045762   -1.5109380  
C   -2.5379441   -0.0036221   -0.3591960  
C   -1.1435029   -0.0017421   -0.7338497  
C   -1.1092596   -0.0016495   -2.2088471  
N   -2.4227533   -0.0038118   -2.6182607  
C    0.0265529    0.0002921   -2.9515664  
C    1.3003023    0.0022074   -2.2514976  
O    2.3786749    0.0039683   -2.8306422  
C    1.2877710    0.0018935   -0.6895606  
O    2.3539936    0.0031875   -0.0892031  
C    0.0000000    0.0000000    0.0000000  
H   -2.9384056   -0.0043548    0.6389239  
H    0.0296287    0.0004529   -4.0327229  
H   -2.7280481   -0.0027365   -3.5742115  
C   -6.7921713   -0.0111223    1.2037511  
C   -5.5118950   -0.0096336    0.7650374  
C   -5.6127357   -0.0088218   -0.6862831  
C   -7.0660970   -0.0101409   -0.9589044  
N   -7.7625224   -0.0114116    0.1451703  
C   -7.5891352   -0.0097871   -2.2973801  
C   -6.7006548   -0.0077991   -3.3171510  
O   -7.0481200   -0.0072504   -4.6153451  
C   -5.2278265   -0.0060586   -3.0743856  
O   -4.4775282   -0.0044118   -4.0502290  
C   -4.7161290   -0.0065049   -1.6923257  
H   -4.6104111   -0.0090564    1.3535966  
H   -8.6559145   -0.0109821   -2.4673540  
H   -6.2020976   -0.0057129   -5.0984568  
C   -4.5620668   -0.0117535    4.9472963  
C   -5.5528909   -0.0128114    5.8691673  
C   -6.7849746   -0.0132954    5.0955586  
C   -6.3396913   -0.0122775    3.6854858  
N   -5.0376518   -0.0114519    3.5923079  
C   -7.2730958   -0.0124377    2.5928551  
C   -8.5914105   -0.0139526    2.8951441  
O   -9.5721287   -0.0142733    1.9763233  
C   -9.0722019   -0.0153799    4.3082959  
O  -10.2865937   -0.0165992    4.5094721  
C   -8.0950182   -0.0151407    5.4114902  
H   -5.4592436   -0.0133040    6.9416902  
H  -10.3972290   -0.0154791    2.4943585  
H   -8.4837756   -0.0163210    6.4209935  
H   -3.4970882   -0.0111258    5.1169831  
C    2.3971438    2.0127888    3.1728260  
C    1.9431056    1.6308205    1.9564670  
C    0.8496017    0.7127664    2.2356185  
C    0.7794028    0.6545384    3.7115134  
N    1.6840587    1.4146091    4.2663826  
C   -0.1885723   -0.1578550    4.3957118  
C   -1.0476298   -0.8789867    3.6398520  
O   -2.0015663   -1.6796266    4.1448486  
C   -1.0022026   -0.8410666    2.1483229  
O   -1.8147390   -1.5232959    1.5241687  
C    0.0000000    0.0000000    1.4700000  
H    2.3054237    1.9346118    0.9892483  
H   -0.2170646   -0.1815267    5.4753125  
H   -2.4487139   -2.0549881    3.3649027  
H    3.2048689    2.6911772    3.3971983  
