60

C    0.0000000    0.0000000    0.0000000  
C   -0.0973410    1.0476553   -0.8862342  
C   -0.0448554    0.4896738   -2.1979131  
C    0.0857176   -0.9147347   -2.0478688  
N    0.1117434   -1.1780297   -0.7007916  
C    0.1670695   -1.7873781   -3.1372099  
C    0.1153665   -1.2321932   -4.4010430  
O    0.1901909   -2.0385676   -5.4997587  
C   -0.0143223    0.1667510   -4.5711966  
O   -0.0510690    0.5650550   -5.8915550  
C   -0.0943611    1.0282602   -3.4969889  
H   -0.1931545    2.0863865   -0.6200559  
H    0.1863571   -2.0907131   -0.2891836  
H    0.2668168   -2.8586682   -3.0295528  
H    0.1363934   -1.4571170   -6.2693602  
H   -0.1398841    1.5226646   -5.9180043  
C    0.3879217    3.4539848   -3.0037675  
C   -0.2282894    2.4756720   -3.7159915  
C   -1.0332087    3.1296715   -4.7205930  
C   -0.8339747    4.5795874   -4.5339393  
N    0.0377946    4.7092697   -3.4774875  
C   -1.4239254    5.5402968   -5.2893860  
C   -2.3147256    5.1181037   -6.3574518  
O   -2.8937296    5.9069627   -7.0928121  
C   -2.5405453    3.5876250   -6.5729657  
O   -3.2885929    3.2201900   -7.4688886  
C   -1.8486435    2.6475783   -5.6946517  
H   -1.2641973    6.5985254   -5.1359289  
H   -2.0102066    1.5896077   -5.8505989  
H    1.0681954    3.3635447   -2.1725409  
C    0.5247534    5.9868178   -2.9374492  
C    1.3794665    6.1843811   -1.9069085  
C    1.5134729    7.6292464   -1.8024747  
C    0.6477118    8.1624183   -2.8761461  
N    0.0654553    7.2043466   -3.5447754  
C    0.5041617    9.5734188   -3.1075702  
C    1.1938411   10.4135991   -2.3027260  
O    1.1538528   11.7529693   -2.4053372  
C    2.0754428    9.9062282   -1.2102452  
O    2.6734765   10.7284448   -0.5163172  
C    2.2060854    8.4544587   -0.9929423  
H    1.8596259    5.4413930   -1.2933191  
H   -0.1352359    9.9351501   -3.8995492  
H    1.7445018   12.0734272   -1.6999344  
H    2.8544542    8.1273712   -0.1911559  
C    0.0000000    0.0000000    1.4700000  
C    1.0662921    0.0000102    2.3034270  
C    0.4961870   -0.0000064    3.6418889  
C   -0.9663858    0.0000850    3.4240247  
N   -1.2632773    0.0000084    2.1528658  
C   -1.8985362    0.0000517    4.5177257  
C   -1.3925775   -0.0004564    5.7720543  
O   -2.1456383   -0.0005410    6.8851312  
C    0.0786232   -0.0009323    6.0245000  
O    0.4683759   -0.0012588    7.1921102  
C    1.0143166   -0.0008442    4.8859032  
H    2.1107198   -0.0000632    2.0421868  
H   -2.9622183    0.0003270    4.3293377  
H   -1.5042274   -0.0009692    7.6184419  
H    2.0724152   -0.0013148    5.1109744  
