58

C    1.0965521    0.0001356   -0.8010302  
C    0.0000000    0.0000000    0.0000000  
C   -1.1546560    0.0001467   -0.8669510  
C   -0.6372006    0.0003515   -2.2486281  
N    0.7342880    0.0007335   -2.1395007  
C   -1.4147728    0.0001348   -3.3608716  
C   -2.8576040   -0.0001053   -3.1854462  
O   -3.6427765   -0.0002499   -4.1244912  
C   -3.4275834   -0.0000730   -1.7311671  
O   -4.6406818    0.0000327   -1.5710068  
C   -2.4891864   -0.0001095   -0.6116748  
H   -1.0150434    0.0001608   -4.3654244  
H   -2.8919115   -0.0002922    0.3920854  
H    2.1388274    0.0000661   -0.5261636  
C    2.8307257   -0.6880607   -3.3923502  
C    1.6707653   -0.0012348   -3.2725965  
C    1.5453254    0.7428534   -4.5164204  
C    2.7497158    0.3772354   -5.2925334  
N    3.5069284   -0.4613286   -4.6387523  
C    3.0021459    0.9119173   -6.6022969  
C    2.0925382    1.7724233   -7.1136459  
O    2.2005243    2.3472960   -8.3235639  
C    0.8669372    2.1606445   -6.3551297  
O    0.0821165    2.9489995   -6.8821727  
C    0.6306007    1.5985956   -5.0134255  
H    1.4056028    2.9046132   -8.4051099  
H   -0.2691091    1.9048120   -4.4967206  
H    3.2814308   -1.3598180   -2.6792018  
C    4.9623540   -2.9642148   -6.9496920  
C    6.0118774   -2.6814668   -7.7560003  
C    5.8907463   -1.2608030   -8.0450357  
C    4.6793215   -0.8334248   -7.3126551  
N    4.1308663   -1.8276316   -6.6686526  
C    4.2112725    0.5249103   -7.3433362  
C    4.9213827    1.4158799   -8.0722061  
O    4.5998919    2.7154592   -8.1895865  
C    6.1483802    1.0153970   -8.8220392  
O    6.7450237    1.8791345   -9.4648420  
C    6.6081309   -0.3840053   -8.7748413  
H    6.7741645   -3.3538914   -8.1107384  
H    5.2886708    3.0900140   -8.7678984  
H    7.5013999   -0.6336740   -9.3315877  
H    4.6963855   -3.9143421   -6.5143849  
C    2.5528530    2.1414826    2.8079335  
C    2.0663498    1.7338582    4.0032312  
C    0.9804344    0.8229586    3.6752840  
C    0.9495562    0.7966882    2.1971295  
N    1.8690446    1.5676019    1.6831036  
C    0.0000000    0.0000000    1.4700000  
C   -0.8785127   -0.7372425    2.1869543  
O   -1.8187535   -1.5261249    1.6395491  
C   -0.8723269   -0.7321790    3.6796354  
O   -1.7010379   -1.4274584    4.2670412  
C    0.1115397    0.0933559    4.4024240  
H    2.4028853    2.0163452    4.9860947  
H   -2.2861435   -1.9184361    2.3990168  
H    0.0832434    0.0693689    5.4835595  
H    3.3664920    2.8238276    2.6198634  
