58

C   -3.2798051    0.0046593   -1.4499655  
C   -2.5571117    0.0035327   -2.5996560  
C   -1.1637420    0.0017062   -2.2210366  
C   -1.1336950    0.0018329   -0.7459477  
N   -2.4483481    0.0040582   -0.3402729  
C    0.0000000    0.0000000    0.0000000  
C    1.2757358   -0.0020215   -0.6964420  
O    2.3524565   -0.0036980   -0.1142317  
C    1.2676481   -0.0019399   -2.2584083  
O    2.3355743   -0.0033249   -2.8557300  
C   -0.0181560   -0.0001469   -2.9516300  
H   -2.9547322    0.0041175   -3.5989115  
H   -0.0150792   -0.0003078   -4.0331632  
H   -2.7563612    0.0031256    0.6148057  
C   -6.8068753    0.0108072   -4.1747006  
C   -5.5278522    0.0093818   -3.7323460  
C   -5.6328214    0.0087860   -2.2813184  
C   -7.0869524    0.0101480   -2.0128329  
N   -7.7802339    0.0112555   -3.1188844  
C   -7.6137962    0.0099941   -0.6758507  
C   -6.7282205    0.0081564    0.3464440  
O   -7.0793775    0.0078013    1.6436444  
C   -5.2547075    0.0063774    0.1078698  
O   -4.5071884    0.0048745    1.0858440  
C   -4.7390803    0.0066173   -1.2727289  
H   -4.6246975    0.0087155   -4.3183382  
H   -8.6810548    0.0112162   -0.5089125  
H   -6.2347329    0.0063344    2.1291612  
C   -4.5661301    0.0108780   -7.9118866  
C   -5.5543274    0.0118004   -8.8365723  
C   -6.7886071    0.0124014   -8.0664729  
C   -6.3473369    0.0115926   -6.6551380  
N   -5.0455677    0.0107787   -6.5582561  
C   -7.2838462    0.0119168   -5.5651675  
C   -8.6012956    0.0133889   -5.8712060  
O   -9.5846237    0.0138478   -4.9551790  
C   -9.0780647    0.0146067   -7.2857196  
O  -10.2918792    0.0157981   -7.4903499  
C   -8.0977465    0.0142018   -8.3861294  
H   -5.4576294    0.0121333   -9.9088245  
H  -10.4082468    0.0149778   -5.4755591  
H   -8.4836304    0.0152325   -9.3967347  
H   -3.5006729    0.0102233   -8.0785424  
C    0.8175213    0.6860729    2.3021913  
C    0.0000000    0.0000000    1.4700000  
C   -0.8887526   -0.7456559    2.3478473  
C   -0.4549825   -0.3816753    3.7138435  
N    0.5448156    0.4573574    3.6934124  
C   -1.0945674   -0.9182058    4.8835240  
C   -2.1210866   -1.7789155    4.6970523  
O   -2.8083856   -2.3554314    5.6976972  
C   -2.5824069   -2.1655116    3.3310774  
O   -3.5227682   -2.9541547    3.2362962  
C   -1.9100805   -1.6015804    2.1470656  
H   -0.7567140   -0.6349833    5.8697035  
H   -3.4728268   -2.9124471    5.2533954  
H   -2.2742832   -1.9066565    1.1752040  
H    1.6189533    1.3585343    2.0405121  
