60

C    0.0000000    0.0000000    0.0000000  
C    0.6154222    0.8534110   -0.8862352  
C    0.2881311    0.3984604   -2.1979138  
C   -0.5367946   -0.7456160   -2.0478679  
N   -0.6902839   -0.9611196   -0.7007910  
C   -1.0492055   -1.4566438   -3.1372086  
C   -0.7231641   -1.0043178   -4.4010419  
O   -1.1969255   -1.6611201   -5.4997570  
C    0.0988352    0.1350595   -4.5711967  
O    0.3330068    0.4593429   -5.8915556  
C    0.6049157    0.8368351   -3.4969899  
H    1.2261283    1.6990943   -0.6200576  
H   -1.2340958   -1.6978872   -0.2891818  
H   -1.6783529   -2.3294470   -3.0295501  
H   -0.8551944   -1.1876246   -6.2693586  
H    0.8956543    1.2392990   -5.9180054  
C    2.5643923    2.3803956   -3.0311638  
C    1.4555851    2.0155202   -3.7159937  
C    1.2818616    3.0480336   -4.7260616  
C    2.4051127    3.9829018   -4.5004217  
N    3.1603601    3.5967033   -3.5082311  
C    2.5914559    5.1572359   -5.3074540  
C    1.6965816    5.3869807   -6.2952554  
O    1.7485447    6.4433936   -7.1243100  
C    0.5526151    4.4620250   -6.5481547  
O   -0.2232893    4.7335594   -7.4643762  
C    0.3830368    3.2641332   -5.7065944  
H    0.9821310    6.3325693   -7.7154788  
H   -0.4583351    2.6192539   -5.9221265  
H    3.0277584    1.8741916   -2.1992847  
C    6.8144831    4.4316746   -4.2416054  
C    5.5028490    4.2877636   -4.5625125  
C    4.9628297    5.6160466   -4.7324447  
C    6.0753526    6.5523134   -4.4824696  
N    7.1694127    5.7711088   -4.1898236  
C    5.9716415    7.9039744   -4.5454042  
C    4.6778981    8.4747229   -4.8815713  
O    4.4826298    9.6803451   -4.9630958  
C    3.4856536    7.5019516   -5.1500377  
O    2.3916002    7.9708726   -5.4336228  
C    3.7204570    6.0634757   -5.0525320  
H    4.9739401    3.3573062   -4.6679551  
H    6.8002129    8.5729131   -4.3585835  
H    7.5516181    3.6719255   -4.0383734  
H    8.0851944    6.1201619   -3.9740600  
C    1.0672568    0.0000697    2.3021913  
C    0.0000000    0.0000000    1.4700000  
C   -1.1601224    0.0000736    2.3478473  
C   -0.5938729    0.0000769    3.7138435  
N    0.7113367    0.0001554    3.6934124  
C   -1.4286986    0.0001879    4.8835240  
C   -2.7683114    0.0006799    4.6970523  
O   -3.6653903    0.0008304    5.6976972  
C   -3.3702025    0.0010610    3.3310774  
O   -4.5974910    0.0013779    3.2362962  
C   -2.4926826    0.0008943    2.1470656  
H   -0.9878360   -0.0000190    5.8697035  
H   -4.5324246    0.0012261    5.2533954  
H   -2.9677772    0.0012974    1.1752040  
H    2.1134392    0.0000545    2.0405121  
