58

C   -4.5679472    0.0002284   -2.0086696  
C   -5.6049860   -0.0000947   -1.1391126  
C   -6.7955425    0.0003043   -1.9752187  
C   -6.2781469    0.0009758   -3.3604572  
N   -4.9730346    0.0008537   -3.3863771  
C   -7.1539729    0.0014763   -4.4997616  
C   -8.4861207    0.0009243   -4.2658479  
O   -9.4181600    0.0013015   -5.2340133  
C   -9.0391375   -0.0001308   -2.8793658  
O  -10.2622871   -0.0004643   -2.7410725  
C   -8.1201348   -0.0005838   -1.7272548  
H   -5.5667635   -0.0006378   -0.0631876  
H   -6.7483999    0.0021694   -5.5009708  
H  -10.2688737    0.0007037   -4.7592098  
C   -3.1301156    0.0000327   -1.7028248  
C   -2.5367769   -0.0005325   -0.4864662  
C   -1.1089907   -0.0004564   -0.7656183  
C   -1.0177879    0.0000903   -2.2415131  
N   -2.1993583    0.0004597   -2.7963817  
C    0.2459205    0.0003663   -2.9257120  
C    1.3675313    0.0004968   -2.1698528  
O    2.6129309    0.0007469   -2.6748495  
C    1.3083582    0.0003263   -0.6783234  
O    2.3693254    0.0003351   -0.0541696  
C    0.0000000    0.0000000    0.0000000  
H   -3.0096020   -0.0008593    0.4807529  
H    0.2829623    0.0005591   -4.0053127  
H    3.1967435    0.0008104   -1.8949040  
C   -7.2228316    2.0099685    2.1479187  
C   -7.1423138    1.6289252    0.8518081  
C   -8.2543371    0.7104847    0.6610962  
C   -8.9191346    0.6510440    1.9806020  
N   -8.3189903    1.4107941    2.8561568  
C  -10.0814034   -0.1620475    2.2110336  
C  -10.5581107   -0.8826884    1.1704744  
O  -11.6346246   -1.6838783    1.2429411  
C   -9.9095677   -0.8435465   -0.1734081  
O  -10.3974041   -1.5253854   -1.0747025  
C   -8.7184386   -0.0017815   -0.3845219  
H   -6.4178379    1.9335572    0.1160025  
H  -10.5468261   -0.1866030    3.1855533  
H  -11.7254409   -2.0586695    0.3482694  
H   -6.5766730    2.6882915    2.6820817  
C    2.5528530    2.1414826    2.8079335  
C    2.0663498    1.7338582    4.0032312  
C    0.9804344    0.8229586    3.6752840  
C    0.9495562    0.7966882    2.1971295  
N    1.8690446    1.5676019    1.6831036  
C    0.0000000    0.0000000    1.4700000  
C   -0.8785127   -0.7372425    2.1869543  
O   -1.8187535   -1.5261249    1.6395491  
C   -0.8723269   -0.7321790    3.6796354  
O   -1.7010379   -1.4274584    4.2670412  
C    0.1115397    0.0933559    4.4024240  
H    2.4028853    2.0163452    4.9860947  
H   -2.2861435   -1.9184361    2.3990168  
H    0.0832434    0.0693689    5.4835595  
H    3.3664920    2.8238276    2.6198634  
