60

C    0.0000000    0.0000000    0.0000000  
C    1.0521663   -0.0011902   -0.8862345  
C    0.4917215   -0.0011956   -2.1979133  
C   -0.9187430    0.0003149   -2.0478683  
N   -1.1833172   -0.0009411   -0.7007910  
C   -1.7951704    0.0010351   -3.1372088  
C   -1.2375840    0.0005226   -4.4010423  
O   -2.0474221    0.0015361   -5.4997580  
C    0.1673576   -0.0013565   -4.5711965  
O    0.5673516   -0.0020685   -5.8915550  
C    1.0325767   -0.0023411   -3.4969892  
H    2.0953056   -0.0030649   -0.6200563  
H   -2.0989778    0.0102372   -0.2891821  
H   -1.4634890    0.0006499   -6.2693592  
H    1.5290706   -0.0033151   -5.9180044  
C   -4.4484713    2.1113799   -0.3461913  
C   -5.6480035    1.6479662   -0.7825910  
C   -5.3783986    0.7523418   -1.8825938  
C   -3.9129602    0.7317895   -2.0524730  
N   -3.4082524    1.5764912   -1.0908918  
C   -3.2578654    0.0024039   -2.9908502  
C   -4.0489124   -0.8169044   -3.8939079  
O   -3.5523658   -1.5094682   -4.7725989  
C   -5.6025001   -0.8101992   -3.7322725  
O   -6.2789647   -1.4957985   -4.4869977  
C   -6.1934216    0.0166874   -2.6830238  
H   -6.6117257    1.9044258   -0.3799961  
H   -7.2698075    0.0155974   -2.5775879  
H   -4.2368828    2.7988129    0.4566510  
H   -2.4341533    1.7724823   -0.9503004  
C    3.4298597   -0.6918158   -3.0313917  
C    2.4861696   -0.0045381   -3.7159924  
C    3.2229077    0.7397635   -4.7258100  
C    4.6377464    0.3737620   -4.5002917  
N    4.7652612   -0.4651925   -3.5083821  
C    5.6998745    0.9085139   -5.3071440  
C    5.3638174    1.7694535   -6.2946578  
O    6.2517466    2.3444410   -7.1235191  
C    3.9449281    2.1580691   -6.5474283  
O    3.7122682    2.9468091   -7.4633866  
C    2.8734667    1.5959394   -5.7060572  
H    6.7249644    0.6238336   -5.1199077  
H    5.7142334    2.9020893   -7.7145018  
H    1.8586412    1.9024507   -5.9214875  
H    3.2895110   -1.3638480   -2.1997375  
C    3.3321173   -0.0004715    2.8079335  
C    2.6974184   -0.0000116    4.0032312  
C    1.2800439    0.0002118    3.6752840  
C    1.2395035   -0.0000644    2.1971295  
N    2.4394063   -0.0005460    1.6831036  
C    0.0000000    0.0000000    1.4700000  
C   -1.1468701   -0.0000635    2.1869543  
O   -2.3742202   -0.0000073    1.6395491  
C   -1.1388768   -0.0001607    3.6796354  
O   -2.2206231   -0.0000905    4.2670412  
C    0.1454524   -0.0001816    4.4024240  
H    3.1367986    0.0000651    4.9860947  
H   -2.9844344   -0.0001026    2.3990168  
H    0.1083576   -0.0003682    5.4835595  
H    4.3940039   -0.0007619    2.6198634  
