62

C    3.3041270    0.0001179   -1.5420432  
C    2.5845370   -0.0004779   -0.3695854  
C    1.2040009   -0.0000006   -0.7283591  
C    1.1422369    0.0006040   -2.1454372  
N    2.4348635    0.0026113   -2.6077467  
C   -0.0655189    0.0008801   -2.8497917  
C   -1.2321774    0.0002327   -2.1101396  
O   -2.4392820    0.0001150   -2.7472519  
C   -1.1911208   -0.0000006   -0.6955264  
O   -2.4371530   -0.0002319   -0.1032859  
C    0.0000000    0.0000000    0.0000000  
H    3.0031535   -0.0000660    0.6222579  
H    2.7054620   -0.0071094   -3.5745263  
H   -0.1193551    0.0014848   -3.9297474  
H   -3.1132992   -0.0000645   -2.0551781  
H   -2.3200280   -0.0004071    0.8516410  
C    6.7068650   -0.0034178    1.2828887  
C    7.7136024   -0.0021474    0.3453678  
C    7.0885452   -0.0007419   -0.9367794  
C    5.6872996   -0.0009460   -0.7166944  
N    5.4901252   -0.0045361    0.6418806  
C    4.7577218    0.0005131   -1.7610465  
C    5.2516914    0.0025163   -3.0510727  
O    4.3881525    0.0043532   -4.1081029  
C    6.6464196    0.0023767   -3.2909673  
O    6.9801786    0.0041006   -4.6296031  
C    7.5640502    0.0006645   -2.2611725  
H    8.7687015   -0.0033295    0.5592770  
H    4.5960834    0.0050497    1.0985850  
H    4.9330444    0.0052563   -4.9058229  
H    7.9393883    0.0039074   -4.7039033  
H    6.7604658   -0.0050604    2.3581023  
C    9.0049382    0.0003328   -2.5522783  
C   10.0330178   -0.0012571   -1.6721486  
C   11.2320741   -0.0007985   -2.4960197  
C   10.7288904    0.0010682   -3.8864824  
N    9.4241130    0.0018191   -3.9257651  
C   11.6163365    0.0020713   -5.0167582  
C   12.9460206    0.0016360   -4.7692158  
O   13.8879250    0.0024523   -5.7277860  
C   13.4848094    0.0001348   -3.3771437  
O   14.7064790   -0.0003108   -3.2263328  
C   12.5540579   -0.0009176   -2.2345044  
H    9.9837802   -0.0024879   -0.5966719  
H   11.2210387    0.0032268   -6.0220678  
H   14.7337322    0.0018779   -5.2442962  
H   12.9842077   -0.0018788   -1.2419320  
C    2.5528530    2.1414826    2.8079335  
C    2.0663498    1.7338582    4.0032312  
C    0.9804344    0.8229586    3.6752840  
C    0.9495562    0.7966882    2.1971295  
N    1.8690446    1.5676019    1.6831036  
C    0.0000000    0.0000000    1.4700000  
C   -0.8785127   -0.7372425    2.1869543  
O   -1.8187535   -1.5261249    1.6395491  
C   -0.8723269   -0.7321790    3.6796354  
O   -1.7010379   -1.4274584    4.2670412  
C    0.1115397    0.0933559    4.4024240  
H    2.4028853    2.0163452    4.9860947  
H   -2.2861435   -1.9184361    2.3990168  
H    0.0832434    0.0693689    5.4835595  
H    3.3664920    2.8238276    2.6198634  
