64

C    5.6708528    0.0006686   -2.3611558  
C    4.7630507    0.0004755   -1.3275395  
C    5.5133490   -0.0015013   -0.1144244  
C    6.8855146   -0.0021655   -0.4737127  
N    6.9456606   -0.0027644   -1.8452081  
C    7.9149934   -0.0037515    0.4723107  
C    7.5526784   -0.0043769    1.8053169  
O    8.5177184   -0.0055687    2.7705673  
C    6.1889805   -0.0041066    2.1836619  
O    5.9909388   -0.0052337    3.5489900  
C    5.1728469   -0.0028155    1.2509254  
H    8.9627181   -0.0044090    0.2049625  
H    8.0554425   -0.0061260    3.6188400  
H    5.0439893   -0.0049363    3.7189637  
H    4.1374045   -0.0028212    1.5708263  
H    5.5098589    0.0015378   -3.4255988  
C    8.3657569    0.7235515   -3.8038370  
C    9.6332678    0.4878102   -4.2837429  
C   10.2614703   -0.4143782   -3.3748887  
C    9.3206707   -0.6966480   -2.3515885  
N    8.1811659    0.0119068   -2.6415821  
C    9.6001013   -1.5535807   -1.2827699  
C   10.8519654   -2.1364148   -1.2464655  
O   11.1773586   -2.9816242   -0.2253125  
C   11.8043320   -1.8668909   -2.2579852  
O   13.0047499   -2.5232267   -2.0803263  
C   11.5294486   -1.0213983   -3.3125499  
H   10.0537887    0.9145655   -5.1781892  
H    8.8874610   -1.7727070   -0.4996155  
H   12.0838016   -3.2723978   -0.3898661  
H   13.5908866   -2.2868657   -2.8057100  
H   12.2790787   -0.8339273   -4.0724096  
H    7.5792702    1.3441389   -4.1978793  
C    3.3003548    0.0005276   -1.4738982  
C    2.5232817    0.0003497   -2.6090743  
C    1.1623204   -0.0001319   -2.1820101  
C    1.1711886    0.0000583   -0.7636140  
N    2.4852302   -0.0014919   -0.3662356  
C    0.0000000    0.0000000    0.0000000  
C   -1.2020379    0.0000520   -0.6806479  
O   -2.3759249    0.0003495    0.0157742  
C   -1.2314652   -0.0005112   -2.0955511  
O   -2.5054384   -0.0008036   -2.6250184  
C   -0.0764510   -0.0007271   -2.8495195  
H    2.8919962   -0.0005619   -3.6205297  
H    2.8036267    0.0088181    0.5858667  
H   -3.0835636    0.0000348   -0.6418823  
H   -2.4360038   -0.0011526   -3.5845925  
H   -0.1304090   -0.0013420   -3.9319089  
C    2.3971438    2.0127888    3.1728260  
C    1.9431056    1.6308205    1.9564670  
C    0.8496017    0.7127664    2.2356185  
C    0.7794028    0.6545384    3.7115134  
N    1.6840587    1.4146091    4.2663826  
C   -0.1885723   -0.1578550    4.3957118  
C   -1.0476298   -0.8789867    3.6398520  
O   -2.0015663   -1.6796266    4.1448486  
C   -1.0022026   -0.8410666    2.1483229  
O   -1.8147390   -1.5232959    1.5241687  
C    0.0000000    0.0000000    1.4700000  
H    2.3054237    1.9346118    0.9892483  
H   -0.2170646   -0.1815267    5.4753125  
H   -2.4487139   -2.0549881    3.3649027  
H    3.2048689    2.6911772    3.3971983  
