58

C    1.1319246    0.0015691   -0.8009266  
C    0.7969911    0.0034968   -2.1169399  
C   -0.6453340    0.0035688   -2.1842668  
C   -1.1266840    0.0015398   -0.7896020  
N    0.0000000    0.0000000    0.0000000  
C   -2.4346129    0.0013886   -0.4276289  
C   -3.4350107    0.0031296   -1.4820179  
O   -4.6384616    0.0030823   -1.2583904  
C   -2.9478963    0.0050412   -2.9661065  
O   -3.7809384    0.0062097   -3.8623765  
C   -1.5113828    0.0053040   -3.2312120  
H   -2.7664562    0.0000141    0.6013455  
H   -1.1823540    0.0068368   -4.2614843  
H    2.1104315    0.0009458   -0.3488058  
C    4.6221969   -2.0851197   -2.8253993  
C    3.4630833   -1.6242666   -2.2886067  
C    2.8772276   -0.7284830   -3.2577199  
C    3.7966179   -0.7050915   -4.4113941  
N    4.8343012   -1.5478317   -4.0859839  
C    3.5979651    0.0246625   -5.5382040  
C    2.3987147    0.8417460   -5.6201041  
O    2.1298698    1.5345363   -6.5927631  
C    1.4112236    0.8324040   -4.4099055  
O    0.3983743    1.5165864   -4.4672752  
C    1.7334690    0.0049301   -3.2500363  
H    3.0641099   -1.8822425   -1.3237847  
H    4.2848306    0.0275718   -6.3731400  
H    5.3394122   -2.7718842   -2.4060589  
C    7.2162394   -5.1777386   -5.0932510  
C    6.2817276   -4.3692987   -4.5412613  
C    6.5521585   -3.0511692   -5.0943449  
C    7.7151615   -3.2522124   -5.9851817  
N    8.1088152   -4.4968061   -5.9886919  
C    8.2979748   -2.1710837   -6.7312216  
C    7.7438862   -0.9449293   -6.5938705  
O    8.1852048    0.1536457   -7.2298038  
C    6.5695074   -0.7101066   -5.7028855  
O    6.1168478    0.4320102   -5.6261458  
C    5.9897467   -1.8353035   -4.9480781  
H    5.5047701   -4.6346814   -3.8448533  
H    9.1477657   -2.3466328   -7.3746103  
H    7.5929923    0.8674615   -6.9316344  
H    7.3547894   -6.2357865   -4.9373294  
C    2.3971438    2.0127888    3.1728260  
C    1.9431056    1.6308205    1.9564670  
C    0.8496017    0.7127664    2.2356185  
C    0.7794028    0.6545384    3.7115134  
N    1.6840587    1.4146091    4.2663826  
C   -0.1885723   -0.1578550    4.3957118  
C   -1.0476298   -0.8789867    3.6398520  
O   -2.0015663   -1.6796266    4.1448486  
C   -1.0022026   -0.8410666    2.1483229  
O   -1.8147390   -1.5232959    1.5241687  
C    0.0000000    0.0000000    1.4700000  
H    2.3054237    1.9346118    0.9892483  
H   -0.2170646   -0.1815267    5.4753125  
H   -2.4487139   -2.0549881    3.3649027  
H    3.2048689    2.6911772    3.3971983  
