62

C    3.3041272    0.0001175   -1.5420434  
C    2.5845371   -0.0004781   -0.3695851  
C    1.2040007   -0.0000010   -0.7283590  
C    1.1422374    0.0006034   -2.1454375  
N    2.4348638    0.0026106   -2.6077465  
C   -0.0655183    0.0008793   -2.8497921  
C   -1.2321772    0.0002320   -2.1101397  
O   -2.4392815    0.0001142   -2.7472517  
C   -1.1911208   -0.0000010   -0.6955262  
O   -2.4371526   -0.0002321   -0.1032860  
C    0.0000000    0.0000000    0.0000000  
H    3.0031534   -0.0000660    0.6222582  
H   -0.1193550    0.0014839   -3.9297469  
H   -3.1132987   -0.0000652   -2.0551785  
H   -2.3200278   -0.0004072    0.8516410  
H    4.3686624    0.0004070   -1.7024295  
C    5.6086916   -2.0215433   -4.9939693  
C    4.8416738   -1.6314637   -3.9494120  
C    3.8592057   -0.7249419   -4.5234101  
C    4.1890997   -0.6815707   -5.9641988  
N    5.2136949   -1.4397095   -6.2460165  
C    3.4372231    0.1163823   -6.8931980  
C    2.4025652    0.8378960   -6.4051039  
O    1.6159680    1.6259441   -7.1576240  
C    2.0444992    0.8147843   -4.9561681  
O    1.0903368    1.4964963   -4.5819175  
C    2.8310663   -0.0116224   -4.0232753  
H    4.9314389   -1.9229650   -2.9169169  
H    0.9732435    2.0052470   -6.5313751  
H    6.4504502   -2.6955823   -4.9845927  
C    4.7626911   -3.0964451   -9.7057651  
C    4.3475341   -2.4030523   -8.5925184  
C    4.1886069   -1.0411217   -8.9855662  
C    4.5237010   -0.9632392  -10.3616383  
N    4.8695016   -2.2284017  -10.7671043  
C    4.4797509    0.2329083  -11.0841945  
C    4.0901408    1.3711141  -10.4053212  
O    4.0295344    2.5657420  -11.0627438  
C    3.7522990    1.3136912   -9.0322287  
O    3.3848387    2.5317953   -8.4988065  
C    3.7956909    0.1340573   -8.3187117  
H    4.1809184   -2.8265434   -7.6168713  
H    5.1443797   -2.4846304  -11.6981093  
H    4.7340531    0.2989427  -12.1330852  
H    3.7400679    3.2201728  -10.4137497  
H    3.1727521    2.4051089   -7.5689825  
H    4.9924411   -4.1412594   -9.8263368  
C    0.0000000    0.0000000    1.4700000  
C    1.0662921    0.0000102    2.3034270  
C    0.4961870   -0.0000064    3.6418889  
C   -0.9663858    0.0000850    3.4240247  
N   -1.2632773    0.0000084    2.1528658  
C   -1.8985362    0.0000517    4.5177257  
C   -1.3925775   -0.0004564    5.7720543  
O   -2.1456383   -0.0005410    6.8851312  
C    0.0786232   -0.0009323    6.0245000  
O    0.4683759   -0.0012588    7.1921102  
C    1.0143166   -0.0008442    4.8859032  
H    2.1107198   -0.0000632    2.0421868  
H   -2.9622183    0.0003270    4.3293377  
H   -1.5042274   -0.0009692    7.6184419  
H    2.0724152   -0.0013148    5.1109744  
