60

C    3.3003546    0.0005277   -1.4738988  
C    2.5232816    0.0003498   -2.6090750  
C    1.1623201   -0.0001319   -2.1820101  
C    1.1711885    0.0000582   -0.7636141  
N    2.4852302   -0.0014917   -0.3662354  
C    0.0000000    0.0000000    0.0000000  
C   -1.2020384    0.0000519   -0.6806477  
O   -2.3759248    0.0003493    0.0157747  
C   -1.2314656   -0.0005113   -2.0955507  
O   -2.5054388   -0.0008039   -2.6250181  
C   -0.0764515   -0.0007273   -2.8495192  
H    2.8919956   -0.0005619   -3.6205299  
H    2.8036266    0.0088182    0.5858661  
H   -3.0835638    0.0000345   -0.6418814  
H   -2.4360043   -0.0011529   -3.5845921  
H    4.3715550    0.0004896   -1.3667133  
C    2.2883739   -2.1096670   -5.8898009  
C    1.6780811   -1.6459105   -7.0107594  
C    0.6304148   -0.7505695   -6.5799512  
C    0.6807528   -0.7305571   -5.1055511  
N    1.7068949   -1.5752689   -4.7500461  
C   -0.1496413   -0.0015613   -4.3176959  
C   -1.1605697    0.8178670   -4.9650724  
O   -1.9555596    1.5101064   -4.3429013  
C   -1.2321937    0.8117308   -6.5254047  
O   -2.0793585    1.4974358   -7.0816262  
C   -0.2825931   -0.0147691   -7.2663564  
H   -0.3386961   -0.0132860   -8.3464369  
H    3.1138609   -2.7970353   -5.8004373  
H    1.9910640   -1.7715753   -3.8078370  
C    2.0260221   -1.9959006   -8.3954416  
C    3.0011870   -2.8306487   -8.8241925  
C    2.9020890   -2.8090974  -10.2754731  
C    1.7834560   -1.8845044  -10.5589723  
N    1.2660344   -1.4046272   -9.4608008  
C    1.3623080   -1.5886145  -11.9006758  
C    2.0286446   -2.1887979  -12.9131543  
O    1.7427693   -2.0043540  -14.2132685  
C    3.1620040   -3.1264784  -12.6593586  
O    3.7229210   -3.6368081  -13.6289753  
C    3.5750749   -3.4138354  -11.2741790  
H    3.7013532   -3.3916579   -8.2291196  
H    0.5415413   -0.9092191  -12.0786453  
H    2.3845502   -2.5613814  -14.6897035  
H    4.4005764   -4.0984832  -11.1326366  
C    2.3971438    2.0127888    3.1728260  
C    1.9431056    1.6308205    1.9564670  
C    0.8496017    0.7127664    2.2356185  
C    0.7794028    0.6545384    3.7115134  
N    1.6840587    1.4146091    4.2663826  
C   -0.1885723   -0.1578550    4.3957118  
C   -1.0476298   -0.8789867    3.6398520  
O   -2.0015663   -1.6796266    4.1448486  
C   -1.0022026   -0.8410666    2.1483229  
O   -1.8147390   -1.5232959    1.5241687  
C    0.0000000    0.0000000    1.4700000  
H    2.3054237    1.9346118    0.9892483  
H   -0.2170646   -0.1815267    5.4753125  
H   -2.4487139   -2.0549881    3.3649027  
H    3.2048689    2.6911772    3.3971983  
