60

C    3.2573676   -0.0002917   -1.5109371  
C    2.5379470   -0.0001708   -0.3591953  
C    1.1435045    0.0000333   -0.7338497  
C    1.1092616   -0.0000080   -2.2088472  
N    2.4227572    0.0001912   -2.6182604  
C   -0.0265522   -0.0002520   -2.9515663  
C   -1.3003029   -0.0002638   -2.2514982  
O   -2.3786772   -0.0004130   -2.8306437  
C   -1.2877723    0.0000313   -0.6895611  
O   -2.3539953    0.0003306   -0.0892043  
C    0.0000000    0.0000000    0.0000000  
H    2.9384088   -0.0000367    0.6389246  
H    2.7280505   -0.0013403   -3.5742105  
C    2.4624190   -2.0918862   -5.9392945  
C    1.9141458   -1.6298145   -4.7860550  
C    0.8440001   -0.7345871   -5.1577954  
C    0.8135211   -0.7128501   -6.6327153  
N    1.8196277   -1.5559199   -7.0448709  
C   -0.0596518    0.0159612   -7.3730585  
C   -1.0343364    0.8337034   -6.6703332  
O   -1.8629407    1.5257393   -7.2472228  
C   -1.0200955    0.8261114   -5.1084288  
O   -1.8357392    1.5108613   -4.5058478  
C   -0.0307336   -0.0004643   -4.4215606  
H    2.2241323   -1.8866337   -3.7887754  
H   -0.0651858    0.0176597   -8.4542039  
H    3.2821102   -2.7786945   -6.0745342  
H    2.0500139   -1.7532072   -8.0014520  
C    4.7161340   -0.0005432   -1.6923240  
C    5.6747638   -0.0008961   -0.7370192  
C    6.9326504   -0.0010015   -1.4679236  
C    6.5359809   -0.0007813   -2.8924365  
N    5.2379023   -0.0004315   -3.0302076  
C    7.5063033   -0.0007603   -3.9524180  
C    8.8134784   -0.0005617   -3.6051004  
O    9.8251274   -0.0005263   -4.4897514  
C    9.2455296   -0.0004050   -2.1762925  
O   10.4523094   -0.0003514   -1.9335925  
C    8.2310917   -0.0004738   -1.1072555  
H    5.5443947   -0.0009739    0.3316621  
H    7.1881047   -0.0008038   -4.9847257  
H   10.6319794   -0.0003439   -3.9437272  
H    8.5850041   -0.0002402   -0.0850150  
C    0.8676693    0.7151171    2.2619005  
C    0.5875920    0.4624972    3.5848544  
C   -0.5048400   -0.4542819    3.6114698  
C   -0.8517165   -0.7276451    2.2635546  
N    0.0000000    0.0000000    1.4700000  
C   -1.8902865   -1.5946756    1.9108239  
C   -2.5912627   -2.1969500    2.9375057  
O   -3.6148162   -3.0527051    2.6493466  
C   -2.2603868   -1.9365747    4.2886322  
O   -3.0513550   -2.6123276    5.1947621  
C   -1.2361111   -1.0811317    4.6373480  
H    1.1060808    0.8876438    4.4271209  
H   -2.1597133   -1.8070987    0.8854031  
H   -3.9636755   -3.3565188    3.4974381  
H   -2.7621927   -2.3810384    6.0827341  
H   -1.0058879   -0.9010589    5.6809233  
H    1.6167816    1.3499334    1.8205408  
