58

C    3.2798082    0.0005858   -1.4499649  
C    2.5571137    0.0005567   -2.5996552  
C    1.1637431    0.0001548   -2.2210359  
C    1.1336961   -0.0000198   -0.7459469  
N    2.4483510   -0.0001427   -0.3402720  
C    0.0000000    0.0000000    0.0000000  
C   -1.2757370   -0.0000185   -0.6964410  
O   -2.3524599   -0.0000639   -0.1142304  
C   -1.2676503   -0.0000871   -2.2584075  
O   -2.3355769   -0.0004099   -2.8557292  
C    0.0181550    0.0001761   -2.9516292  
H    0.0150784    0.0003321   -4.0331628  
H    4.3498543    0.0008611   -1.3200023  
H    2.7563624    0.0012824    0.6148062  
C    5.9736421   -2.1043581   -4.3829125  
C    5.8838281   -1.6403860   -5.6559947  
C    4.7509375   -0.7462250   -5.6992520  
C    4.1840549   -0.7271401   -4.3372425  
N    4.9705824   -1.5712078   -3.5877003  
C    3.1006047    0.0006266   -3.9654948  
C    2.4492212    0.8196160   -4.9742027  
O    1.4668583    1.5107655   -4.7384560  
C    3.0324348    0.8144456   -6.4232161  
O    2.4922716    1.4997916   -7.2809954  
C    4.2049261   -0.0107540   -6.7027917  
H    4.6026936   -0.0086080   -7.7085258  
H    6.6880799   -2.7910788   -3.9587865  
H    4.8377537   -1.7678914   -2.6126523  
C    7.6522283   -5.4712177   -6.7445665  
C    8.3652057   -5.1521049   -7.8497402  
C    8.1388634   -3.7281788   -8.0439138  
C    7.2411412   -3.3389034   -6.9352466  
N    6.9524923   -4.3564602   -6.1702307  
C    6.7760450   -1.9891668   -6.7709843  
C    7.1893091   -1.0700149   -7.6730414  
O    6.8335352    0.2255382   -7.6412973  
C    8.0955220   -1.4317489   -8.8026811  
O    8.4312966   -0.5437386   -9.5862080  
C    8.5588070   -2.8230381   -8.9496726  
H    8.9701000   -5.8026250   -8.4580183  
H    7.2828956    0.6249169   -8.4079297  
H    9.2144411   -3.0442855   -9.7811918  
H    7.5586257   -6.4350695   -6.2700126  
C    0.8175213    0.6860729    2.3021913  
C    0.0000000    0.0000000    1.4700000  
C   -0.8887526   -0.7456559    2.3478473  
C   -0.4549825   -0.3816753    3.7138435  
N    0.5448156    0.4573574    3.6934124  
C   -1.0945674   -0.9182058    4.8835240  
C   -2.1210866   -1.7789155    4.6970523  
O   -2.8083856   -2.3554314    5.6976972  
C   -2.5824069   -2.1655116    3.3310774  
O   -3.5227682   -2.9541547    3.2362962  
C   -1.9100805   -1.6015804    2.1470656  
H   -0.7567140   -0.6349833    5.8697035  
H   -3.4728268   -2.9124471    5.2533954  
H   -2.2742832   -1.9066565    1.1752040  
H    1.6189533    1.3585343    2.0405121  
