58

C    4.6190971   -2.0899186   -2.8279652  
C    3.4606683   -1.6280057   -2.2906061  
C    2.8761397   -0.7301693   -3.2586202  
C    3.7955628   -0.7067282   -4.4122674  
N    4.8319965   -1.5514030   -4.0878914  
C    3.5979908    0.0246979   -5.5381826  
C    2.3999522    0.8436575   -5.6190794  
O    2.1321342    1.5380353   -6.5908895  
C    1.4124495    0.8342977   -4.4088909  
O    0.4006153    1.5200497   -4.4654205  
C    1.7334695    0.0049281   -3.2500363  
H    3.0613135   -1.8865706   -1.3260991  
H    4.2848596    0.0276112   -6.3731162  
H    5.3352946   -2.7782580   -2.4094673  
C    7.0560683   -5.2674305   -4.9487489  
C    6.1772391   -4.3499959   -4.4691149  
C    6.5222329   -3.0827490   -5.0690313  
C    7.6823911   -3.3389426   -5.9437812  
N    7.9566397   -4.6819693   -5.8256436  
C    8.3069418   -2.3925747   -6.6894559  
C    7.8029949   -1.0307534   -6.6260851  
O    8.2969994   -0.1075291   -7.2600544  
C    6.5754685   -0.7365957   -5.7060545  
O    6.1425455    0.4062215   -5.6443556  
C    5.9870134   -1.8395312   -4.9503395  
H    5.3785727   -4.5393445   -3.7742103  
H    9.1564499   -2.6015605   -7.3247284  
H    7.1217279   -6.3219381   -4.7352256  
H    8.6957539   -5.1631508   -6.3044137  
C    1.1319246    0.0015678   -0.8009268  
C    0.7969914    0.0034958   -2.1169401  
C   -0.6453340    0.0035696   -2.1842669  
C   -1.1266832    0.0015410   -0.7896025  
N    0.0000000    0.0000000    0.0000000  
C   -2.4346129    0.0013913   -0.4276292  
C   -3.4350111    0.0031335   -1.4820181  
O   -4.6384614    0.0030875   -1.2583914  
C   -2.9478961    0.0050442   -2.9661074  
O   -3.7809382    0.0062135   -3.8623773  
C   -1.5113825    0.0053055   -3.2312122  
H   -2.7664565    0.0000174    0.6013448  
H   -1.1823533    0.0068381   -4.2614848  
H    2.1104316    0.0009435   -0.3488059  
C    0.8175213    0.6860729    2.3021913  
C    0.0000000    0.0000000    1.4700000  
C   -0.8887526   -0.7456559    2.3478473  
C   -0.4549825   -0.3816753    3.7138435  
N    0.5448156    0.4573574    3.6934124  
C   -1.0945674   -0.9182058    4.8835240  
C   -2.1210866   -1.7789155    4.6970523  
O   -2.8083856   -2.3554314    5.6976972  
C   -2.5824069   -2.1655116    3.3310774  
O   -3.5227682   -2.9541547    3.2362962  
C   -1.9100805   -1.6015804    2.1470656  
H   -0.7567140   -0.6349833    5.8697035  
H   -3.4728268   -2.9124471    5.2533954  
H   -2.2742832   -1.9066565    1.1752040  
H    1.6189533    1.3585343    2.0405121  
