60

C    0.0000000    0.0000000    0.0000000  
C    1.0662918   -0.0000103   -0.8334270  
C    0.4961868    0.0000065   -2.1718889  
C   -0.9663860   -0.0000850   -1.9540247  
N   -1.2632773   -0.0000084   -0.6828656  
C   -1.8985365   -0.0000517   -3.0477255  
C   -1.3925782    0.0004565   -4.3020543  
O   -2.1456388    0.0005410   -5.4151310  
C    0.0786228    0.0009324   -4.5545000  
O    0.4683756    0.0012590   -5.7221102  
C    1.0143162    0.0008443   -3.4159032  
H    2.1107196    0.0000633   -0.5721868  
H   -1.5042280    0.0009693   -6.1484418  
C   -4.6047308    2.0087565   -0.1312822  
C   -3.4861860    1.6276992   -0.7910038  
C   -3.9517431    0.7110207   -1.8203030  
C   -5.4172622    0.6525094   -1.6321151  
N   -5.8058762    1.4112416   -0.6435331  
C   -6.2597698   -0.1587779   -2.4670286  
C   -5.6652942   -0.8785800   -3.4457104  
O   -6.3288978   -1.6780865   -4.2980367  
C   -4.1887000   -0.8403399   -3.6610440  
O   -3.7157996   -1.5213349   -4.5708962  
C   -3.3460094   -0.0004264   -2.7913643  
H   -2.4706089    1.9312577   -0.6025077  
H   -7.3277953   -0.1826870   -2.3068386  
H   -5.6388772   -2.0526579   -4.8748559  
H   -4.6848148    2.6860189    0.7041075  
C    4.2926939   -2.1403417   -1.5040822  
C    5.3604704   -1.7320209   -2.2284491  
C    4.8134473   -0.8208704   -3.2219631  
C    3.3612063   -0.7952320   -2.9446120  
N    3.0500065   -1.5667026   -1.9386412  
C    2.4521472    0.0014839   -3.7217486  
C    2.9703719    0.7393567   -4.7298761  
O    2.2390450    1.5283417   -5.5352979  
C    4.4316764    0.7349404   -5.0343926  
O    4.8335644    1.4307757   -5.9668731  
C    5.3436386   -0.0906365   -4.2228060  
H    6.3919431   -2.0142023   -2.1038966  
H    2.8845112    1.9211526   -6.1502986  
H    6.3952195   -0.0661688   -4.4754113  
H    4.2782629   -2.8230633   -0.6694229  
C    1.1188642   -0.0008217    2.2703808  
C    0.0000000    0.0000000    1.4700000  
C   -1.1323862   -0.0008904    2.3373528  
C   -0.6382662   -0.0019682    3.6669281  
N    0.7324016   -0.0038477    3.5902241  
C   -1.4770914   -0.0027325    4.7854808  
C   -2.8395474   -0.0020958    4.5576857  
O   -3.7039201   -0.0024443    5.6140350  
C   -3.3517868   -0.0013946    3.2384331  
O   -4.7300496   -0.0012389    3.1773122  
C   -2.5248543   -0.0009135    2.1344818  
H    1.3576314    0.0056174    4.3757045  
H   -1.1067570   -0.0036993    5.8013813  
H   -4.5940033   -0.0021850    5.2385129  
H   -4.9934601   -0.0007286    2.2519915  
H   -2.9462578   -0.0005617    1.1360343  
H    2.1619896   -0.0009344    2.0042067  
