58

C   -0.3197117    3.2416399   -1.5109369  
C   -0.2491568    2.5256872   -0.3591949  
C   -0.1123706    1.1379700   -0.7338497  
C   -0.1089652    1.1038965   -2.2088471  
N   -0.2382007    2.4110191   -2.6182602  
C    0.0028598   -0.0263991   -2.9515658  
C    0.1280038   -1.2939875   -2.2514982  
O    0.2340916   -2.3671312   -2.8306431  
C    0.1264791   -1.2815460   -0.6895611  
O    0.2309266   -2.3426409   -0.0892039  
C    0.0000000    0.0000000    0.0000000  
H   -0.2886315    2.9241989    0.6389249  
H    0.0033170   -0.0294444   -4.0327228  
H   -0.4246126    4.3061561   -1.6439430  
C    1.4474893    5.8433750   -4.9077631  
C    1.1449373    5.0067813   -3.8878842  
C    0.3271180    3.9640161   -4.4881439  
C    0.2339613    4.3387673   -5.9155425  
N    0.8888131    5.4395264   -6.1675100  
C   -0.5021048    3.5481290   -6.8632685  
C   -1.1168287    2.4335629   -6.4058944  
O   -1.8374458    1.6031135   -7.1786208  
C   -1.0410890    2.0285866   -4.9711753  
O   -1.6252477    1.0018588   -4.6250407  
C   -0.2799016    2.8562843   -4.0185813  
H    1.4403333    5.0872931   -2.8557336  
H   -0.5535857    3.8457932   -7.9004071  
H   -2.1464570    0.9058952   -6.5723601  
C    3.5582268    7.9036402   -1.6219570  
C    2.8211031    7.0365748   -2.3628484  
C    2.8238522    7.5333592   -3.7185893  
C    3.6287963    8.7697717   -3.7067294  
N    4.0444577    8.9387249   -2.4061255  
C    3.8716234    9.5396419   -4.7976178  
C    3.3019957    9.1227961   -6.0681682  
O    3.4632836    9.7485306   -7.1077562  
C    2.4459485    7.8167684   -6.1039480  
O    1.9609950    7.4560186   -7.1678748  
C    2.2546350    7.0711224   -4.8624715  
H    2.3311865    6.1502402   -2.0009008  
H    4.4649453   10.4429494   -4.7673532  
H    3.7869753    7.8736651   -0.5690252  
H    4.6150101    9.6960871   -2.0776131  
C    2.5528530    2.1414826    2.8079335  
C    2.0663498    1.7338582    4.0032312  
C    0.9804344    0.8229586    3.6752840  
C    0.9495562    0.7966882    2.1971295  
N    1.8690446    1.5676019    1.6831036  
C    0.0000000    0.0000000    1.4700000  
C   -0.8785127   -0.7372425    2.1869543  
O   -1.8187535   -1.5261249    1.6395491  
C   -0.8723269   -0.7321790    3.6796354  
O   -1.7010379   -1.4274584    4.2670412  
C    0.1115397    0.0933559    4.4024240  
H    2.4028853    2.0163452    4.9860947  
H   -2.2861435   -1.9184361    2.3990168  
H    0.0832434    0.0693689    5.4835595  
H    3.3664920    2.8238276    2.6198634  
