60

C    0.0000000    0.0000000    0.0000000  
C    1.0521665   -0.0011901   -0.8862342  
C    0.4917217   -0.0011956   -2.1979130  
C   -0.9187428    0.0003148   -2.0478683  
N   -1.1833173   -0.0009411   -0.7007911  
C   -1.7951703    0.0010349   -3.1372088  
C   -1.2375840    0.0005224   -4.4010424  
O   -2.0474220    0.0015359   -5.4997576  
C    0.1673578   -0.0013566   -4.5711965  
O    0.5673521   -0.0020688   -5.8915549  
C    1.0325768   -0.0023412   -3.4969890  
H    2.0953059   -0.0030648   -0.6200563  
H   -2.0989774    0.0102371   -0.2891826  
H   -1.4634888    0.0006496   -6.2693593  
H    1.5290706   -0.0033152   -5.9180048  
C    4.1863640   -2.1477870   -1.3902886  
C    5.2964368   -1.7419934   -2.0495674  
C    4.8117026   -0.8307029   -3.0747898  
C    3.3454837   -0.8022263   -2.8851137  
N    2.9730533   -1.5722878   -1.8990659  
C    2.4861699   -0.0045381   -3.7159922  
C    3.0653192    0.7315528   -4.6917436  
O    2.3850996    1.5211673   -5.5401841  
C    4.5422543    0.7242590   -4.9080075  
O    5.0006586    1.4185848   -5.8151998  
C    5.4023448   -0.1022663   -4.0425458  
H    6.3180545   -2.0259186   -1.8631281  
H    3.0670330    1.9123007   -6.1156272  
H    6.4672337   -0.0798976   -4.2316032  
H    4.1206112   -2.8297766   -0.5574982  
C   -4.7116853    2.0166393   -0.4361493  
C   -3.5469323    1.6335646   -1.0090230  
C   -3.9344256    0.7158339   -2.0692677  
C   -5.4100300    0.6589843   -1.9921705  
N   -5.8713626    1.4195192   -1.0367917  
C   -6.1879609   -0.1527158   -2.8871859  
C   -5.5220602   -0.8745016   -3.8172057  
O   -6.1202713   -1.6746160   -4.7160947  
C   -4.0333848   -0.8379730   -3.9205074  
O   -3.4938673   -1.5207365   -4.7911251  
C   -3.2578657    0.0024038   -2.9908504  
H   -2.5481629    1.9364342   -0.7448157  
H   -7.2650558   -0.1753806   -2.8080468  
H   -5.3890707   -2.0506778   -5.2386612  
H   -4.8538898    2.6951898    0.3898775  
C    3.1301144    0.0010313    3.1728260  
C    2.5367765    0.0002768    1.9564670  
C    1.1089900   -0.0001027    2.2356185  
C    1.0177864    0.0004150    3.7115134  
N    2.1993570    0.0011613    4.2663826  
C   -0.2459220    0.0002880    4.3957118  
C   -1.3675327    0.0000606    3.6398520  
O   -2.6129319   -0.0000866    4.1448486  
C   -1.3083589   -0.0000910    2.1483229  
O   -2.3693264   -0.0004206    1.5241687  
C    0.0000000    0.0000000    1.4700000  
H    3.0096015    0.0001008    0.9892483  
H   -0.2829642    0.0004689    5.4753125  
H   -3.1967446   -0.0002093    3.3649027  
H    4.1849273    0.0015113    3.3971983  
