60

C    3.3041272    0.0001177   -1.5420431  
C    2.5845370   -0.0004780   -0.3695856  
C    1.2040004   -0.0000008   -0.7283590  
C    1.1422372    0.0006037   -2.1454372  
N    2.4348639    0.0026111   -2.6077465  
C   -0.0655183    0.0008798   -2.8497916  
C   -1.2321770    0.0002324   -2.1101397  
O   -2.4392813    0.0001147   -2.7472520  
C   -1.1911211   -0.0000007   -0.6955262  
O   -2.4371526   -0.0002320   -0.1032861  
C    0.0000000    0.0000000    0.0000000  
H    3.0031535   -0.0000661    0.6222581  
H    2.7054628   -0.0071098   -3.5745262  
H   -3.1132988   -0.0000650   -2.0551783  
H   -2.3200283   -0.0004072    0.8516412  
C    2.2805262   -2.0884670   -5.9525544  
C    1.7869811   -1.6272475   -4.7745201  
C    0.7005262   -0.7318379   -5.0949770  
C    0.6008354   -0.7090651   -6.5668239  
N    1.5865172   -1.5517701   -7.0263553  
C   -0.3061621    0.0202022   -7.2648421  
C   -1.2468139    0.8373777   -6.5165544  
O   -2.1016170    1.5297581   -7.0534179  
C   -1.1592601    0.8286874   -4.9570470  
O   -1.9457427    1.5129527   -4.3163541  
C   -0.1387085    0.0017018   -4.3179686  
H    2.1434562   -1.8847455   -3.7930754  
H   -0.3624480    0.0226613   -8.3445348  
H    3.0929927   -2.7751194   -6.1266122  
H    1.7717477   -1.7483671   -7.9928368  
C    6.9078749   -0.0046647    1.0804404  
C    5.6166942   -0.0033644    0.6749415  
C    5.6800157   -0.0008097   -0.7784972  
C    7.1258518   -0.0007965   -1.0885652  
N    7.8505614   -0.0031316   -0.0028488  
C    7.6141446    0.0013733   -2.4401020  
C    6.6996203    0.0030473   -3.4365845  
O    7.0134391    0.0051621   -4.7433187  
C    5.2335527    0.0027108   -3.1558602  
O    4.4582991    0.0044332   -4.1119978  
C    4.7577221    0.0005130   -1.7610465  
H    4.7307120   -0.0041440    1.2865875  
H    8.6761778    0.0015371   -2.6375719  
H    6.1552194    0.0059339   -5.2044176  
H    7.2868915   -0.0066359    2.0900525  
C    2.3971438    2.0127888    3.1728260  
C    1.9431056    1.6308205    1.9564670  
C    0.8496017    0.7127664    2.2356185  
C    0.7794028    0.6545384    3.7115134  
N    1.6840587    1.4146091    4.2663826  
C   -0.1885723   -0.1578550    4.3957118  
C   -1.0476298   -0.8789867    3.6398520  
O   -2.0015663   -1.6796266    4.1448486  
C   -1.0022026   -0.8410666    2.1483229  
O   -1.8147390   -1.5232959    1.5241687  
C    0.0000000    0.0000000    1.4700000  
H    2.3054237    1.9346118    0.9892483  
H   -0.2170646   -0.1815267    5.4753125  
H   -2.4487139   -2.0549881    3.3649027  
H    3.2048689    2.6911772    3.3971983  
