58

C    3.1301152   -0.0010311   -1.7028248  
C    2.5367767   -0.0002766   -0.4864663  
C    1.1089906    0.0001028   -0.7656180  
C    1.0177872   -0.0004148   -2.2415129  
N    2.1993581   -0.0011610   -2.7963816  
C   -0.2459210   -0.0002877   -2.9257117  
C   -1.3675316   -0.0000605   -2.1698524  
O   -2.6129307    0.0000866   -2.6748494  
C   -1.3083586    0.0000911   -0.6783233  
O   -2.3693263    0.0004206   -0.0541693  
C    0.0000000    0.0000000    0.0000000  
H    3.0096017   -0.0001007    0.4807526  
H   -3.1967436    0.0002093   -1.8949037  
C    5.6039779   -0.0014371   -1.1379120  
C    4.5679462   -0.0016852   -2.0086697  
C    5.1852106   -0.0028975   -3.3260469  
C    6.6391268   -0.0031436   -3.0563953  
N    6.8907017   -0.0023714   -1.7754976  
C    7.6095179   -0.0043134   -4.1163127  
C    7.1484104   -0.0055863   -5.3878123  
O    7.9405131   -0.0067605   -6.4734520  
C    5.6870991   -0.0057477   -5.6923302  
O    5.3390451   -0.0068138   -6.8730408  
C    4.7115731   -0.0044882   -4.5876710  
H    8.6658411   -0.0042611   -3.8902799  
H    7.3255410   -0.0075177   -7.2290714  
H    3.6621316   -0.0047652   -4.8501656  
H    5.5656912   -0.0006307   -0.0601797  
C    0.4920782   -0.6868678   -5.2544640  
C   -0.2963280   -0.0005339   -4.3948472  
C   -1.2145530    0.7451072   -5.2418310  
C   -0.8279307    0.3808332   -6.6218354  
N    0.1718600   -0.4583448   -6.6355552  
C   -1.5071716    0.9172630   -7.7689886  
C   -2.5265699    1.7781567   -7.5475759  
O   -3.2476948    2.3546073   -8.5241638  
C   -2.9407238    2.1650503   -6.1666517  
O   -3.8771692    2.9538492   -6.0398172  
C   -2.2282730    1.6012172   -5.0062937  
H   -1.2033739    0.6338251   -8.7661242  
H   -3.8964302    2.9117964   -8.0574356  
H   -2.5588924    1.9065103   -4.0225673  
H    1.3019159   -1.3594047   -5.0203037  
C    0.0000000    0.0000000    1.4700000  
C    1.0662921    0.0000102    2.3034270  
C    0.4961870   -0.0000064    3.6418889  
C   -0.9663858    0.0000850    3.4240247  
N   -1.2632773    0.0000084    2.1528658  
C   -1.8985362    0.0000517    4.5177257  
C   -1.3925775   -0.0004564    5.7720543  
O   -2.1456383   -0.0005410    6.8851312  
C    0.0786232   -0.0009323    6.0245000  
O    0.4683759   -0.0012588    7.1921102  
C    1.0143166   -0.0008442    4.8859032  
H    2.1107198   -0.0000632    2.0421868  
H   -2.9622183    0.0003270    4.3293377  
H   -1.5042274   -0.0009692    7.6184419  
H    2.0724152   -0.0013148    5.1109744  
