58

C   -3.2798051    0.0046593   -1.4499655  
C   -2.5571117    0.0035327   -2.5996560  
C   -1.1637420    0.0017062   -2.2210366  
C   -1.1336950    0.0018329   -0.7459477  
N   -2.4483481    0.0040582   -0.3402729  
C    0.0000000    0.0000000    0.0000000  
C    1.2757358   -0.0020215   -0.6964420  
O    2.3524565   -0.0036980   -0.1142317  
C    1.2676481   -0.0019399   -2.2584083  
O    2.3355743   -0.0033249   -2.8557300  
C   -0.0181560   -0.0001469   -2.9516300  
H   -2.9547322    0.0041175   -3.5989115  
H   -0.0150792   -0.0003078   -4.0331632  
H   -2.7563612    0.0031256    0.6148057  
C   -6.8068753    0.0108072   -4.1747006  
C   -5.5278522    0.0093818   -3.7323460  
C   -5.6328214    0.0087860   -2.2813184  
C   -7.0869524    0.0101480   -2.0128329  
N   -7.7802339    0.0112555   -3.1188844  
C   -7.6137962    0.0099941   -0.6758507  
C   -6.7282205    0.0081564    0.3464440  
O   -7.0793775    0.0078013    1.6436444  
C   -5.2547075    0.0063774    0.1078698  
O   -4.5071884    0.0048745    1.0858440  
C   -4.7390803    0.0066173   -1.2727289  
H   -4.6246975    0.0087155   -4.3183382  
H   -8.6810548    0.0112162   -0.5089125  
H   -6.2347329    0.0063344    2.1291612  
C   -7.2838462    0.0119168   -5.5651675  
C   -6.5456674    0.0117292   -6.6994823  
C   -7.5192174    0.0131873   -7.7805455  
C   -8.8319685    0.0140376   -7.0999071  
N   -8.7003435    0.0133793   -5.8011907  
C  -10.0685585    0.0156015   -7.8319793  
C   -9.9969657    0.0166737   -9.1826109  
O  -11.0704426    0.0181680   -9.9911198  
C   -8.6872741    0.0162274   -9.8987597  
O   -8.6974631    0.0171405  -11.1296601  
C   -7.4327658    0.0145722   -9.1253710  
H   -5.4729829    0.0108155   -6.7912625  
H  -11.0135644    0.0159885   -7.3086498  
H  -10.7016718    0.0186646  -10.8928739  
H   -6.5049434    0.0144124   -9.6815862  
C    0.0000000    0.0000000    1.4700000  
C    1.0662921    0.0000102    2.3034270  
C    0.4961870   -0.0000064    3.6418889  
C   -0.9663858    0.0000850    3.4240247  
N   -1.2632773    0.0000084    2.1528658  
C   -1.8985362    0.0000517    4.5177257  
C   -1.3925775   -0.0004564    5.7720543  
O   -2.1456383   -0.0005410    6.8851312  
C    0.0786232   -0.0009323    6.0245000  
O    0.4683759   -0.0012588    7.1921102  
C    1.0143166   -0.0008442    4.8859032  
H    2.1107198   -0.0000632    2.0421868  
H   -2.9622183    0.0003270    4.3293377  
H   -1.5042274   -0.0009692    7.6184419  
H    2.0724152   -0.0013148    5.1109744  
