62

C   -3.2727231   -0.4544674   -1.5420440  
C   -2.5600509   -0.3549264   -0.3695864  
C   -1.1925632   -0.1655615   -0.7283595  
C   -1.1313037   -0.1576672   -2.1454379  
N   -2.4113746   -0.3374045   -2.6077472  
C    0.0650171    0.0081380   -2.8497926  
C    1.2205040    0.1692066   -2.1101404  
O    2.4161248    0.3353123   -2.7472522  
C    1.1798052    0.1637919   -0.6955269  
O    2.4139686    0.3353629   -0.1032864  
C    0.0000000    0.0000000    0.0000000  
H   -2.9746339   -0.4128984    0.6222578  
H    0.1184254    0.0149423   -3.9297475  
H    3.0837148    0.4281742   -2.0551784  
H    2.2979324    0.3194304    0.8516404  
H   -4.3271056   -0.6011384   -1.7024300  
C   -2.8057703   -0.3777886   -4.0232762  
C   -4.0399695   -0.5479479   -4.5635287  
C   -3.8805813   -0.5090772   -5.9980739  
C   -2.4420362   -0.3008597   -6.2511045  
N   -1.8461208   -0.2292712   -5.0131019  
C   -1.8839051   -0.2077211   -7.4846028  
C   -2.7584127   -0.3198233   -8.6401135  
O   -2.3518526   -0.2491355   -9.7925078  
C   -4.2853119   -0.5403086   -8.3956323  
O   -5.0314261   -0.6358696   -9.3607448  
C   -4.7687894   -0.6246410   -7.0197724  
H   -4.9573571   -0.6848678   -4.0192250  
H   -0.8261760   -0.0549984   -7.6482942  
H   -0.8649052   -0.0924516   -4.8532769  
C   -6.9547184   -0.2277430   -5.8178485  
C   -8.2554531   -0.6677925   -5.9009948  
C   -8.3142680   -1.5902893   -6.9873375  
C   -7.0079311   -1.6738154   -7.5336274  
N   -6.2075272   -0.8325443   -6.8013467  
C   -6.6944950   -2.4928618   -8.6225295  
C   -7.7183868   -3.2414527   -9.1697363  
O   -7.4675110   -4.0583160  -10.2340722  
C   -9.0284095   -3.1714018   -8.6389339  
O   -9.9373012   -3.9766030   -9.2938477  
C   -9.3384025   -2.3634046   -7.5648896  
H   -9.0628454   -0.3607404   -5.2584771  
H   -5.7008967   -2.5608790   -9.0436464  
H   -8.3064679   -4.4825882  -10.4563536  
H  -10.7961071   -3.8702683   -8.8734322  
H  -10.3510225   -2.3303812   -7.1801972  
H   -6.5011467    0.4707725   -5.1357132  
C    0.0000000    0.0000000    1.4700000  
C    1.0662921    0.0000102    2.3034270  
C    0.4961870   -0.0000064    3.6418889  
C   -0.9663858    0.0000850    3.4240247  
N   -1.2632773    0.0000084    2.1528658  
C   -1.8985362    0.0000517    4.5177257  
C   -1.3925775   -0.0004564    5.7720543  
O   -2.1456383   -0.0005410    6.8851312  
C    0.0786232   -0.0009323    6.0245000  
O    0.4683759   -0.0012588    7.1921102  
C    1.0143166   -0.0008442    4.8859032  
H    2.1107198   -0.0000632    2.0421868  
H   -2.9622183    0.0003270    4.3293377  
H   -1.5042274   -0.0009692    7.6184419  
H    2.0724152   -0.0013148    5.1109744  
