58

C   -1.0965426    0.0043837   -0.8010309  
C    0.0000000    0.0000000    0.0000000  
C    1.1546461   -0.0049060   -0.8669511  
C    0.6371951   -0.0029782   -2.2486280  
N   -0.7342834    0.0022926   -2.1395012  
C    1.4147621   -0.0059665   -3.3608714  
C    2.8575817   -0.0116730   -3.1854456  
O    3.6427492   -0.0147647   -4.1244896  
C    3.4275556   -0.0140544   -1.7311652  
O    4.6406438   -0.0191601   -1.5710044  
C    2.4891660   -0.0101502   -0.6116739  
H    2.8918885   -0.0116272    0.3920869  
H   -2.1388090    0.0087490   -0.5261650  
H   -1.3735722    0.0062710   -2.9130263  
C    0.8712755   -0.0037622   -4.7267106  
C   -0.4275876    0.0013791   -5.1068515  
C   -0.3927374    0.0012943   -6.5612540  
C    1.0467396   -0.0042648   -6.8995716  
N    1.7925627   -0.0073282   -5.8282518  
C    1.5084716   -0.0060512   -8.2604119  
C    0.5746167   -0.0028368   -9.2387987  
O    0.8627862   -0.0039935  -10.5514281  
C   -0.8856638    0.0024210   -8.9294217  
O   -1.6794854    0.0052640   -9.8701976  
C   -1.3340887    0.0042078   -7.5255568  
H   -1.3014174    0.0047157   -4.4779746  
H    2.5664278   -0.0099303   -8.4786392  
H   -0.0042917   -0.0009874  -10.9956356  
C   -3.7821602    2.1211321   -4.5575748  
C   -5.0102274    1.6607623   -4.9096895  
C   -4.8197989    0.7645028   -6.0256160  
C   -3.3697227    0.7402606   -6.2966915  
N   -2.7974302    1.5836496   -5.3725346  
C   -2.7831076    0.0092607   -7.2781327  
C   -3.6369274   -0.8080151   -8.1240569  
O   -3.2042467   -1.5017955   -9.0349674  
C   -5.1755469   -0.7973972   -7.8550912  
O   -5.9044381   -1.4812590   -8.5610028  
C   -5.6902095    0.0309372   -6.7675086  
H   -5.9430660    1.9196367   -4.4412774  
H   -6.7566934    0.0325584   -6.5876933  
H   -3.5136838    2.8079984   -3.7714295  
H   -1.8154370    1.7771775   -5.2998491  
C    2.5528530    2.1414826    2.8079335  
C    2.0663498    1.7338582    4.0032312  
C    0.9804344    0.8229586    3.6752840  
C    0.9495562    0.7966882    2.1971295  
N    1.8690446    1.5676019    1.6831036  
C    0.0000000    0.0000000    1.4700000  
C   -0.8785127   -0.7372425    2.1869543  
O   -1.8187535   -1.5261249    1.6395491  
C   -0.8723269   -0.7321790    3.6796354  
O   -1.7010379   -1.4274584    4.2670412  
C    0.1115397    0.0933559    4.4024240  
H    2.4028853    2.0163452    4.9860947  
H   -2.2861435   -1.9184361    2.3990168  
H    0.0832434    0.0693689    5.4835595  
H    3.3664920    2.8238276    2.6198634  
