58

C    2.8279729   -0.7071295   -3.3541666  
C    1.6707636   -0.0012343   -3.2725974  
C    1.5420221    0.7399978   -4.5050081  
C    2.7275721    0.4056552   -5.3170902  
N    3.4672606   -0.4755787   -4.5626515  
C    2.9773516    0.9038690   -6.5544654  
C    2.0143734    1.8314553   -7.1243702  
O    2.1493672    2.3348422   -8.2319256  
C    0.7517056    2.1998425   -6.2818935  
O   -0.0658613    2.9799880   -6.7511663  
C    0.5920510    1.5980567   -4.9604487  
H    3.8531181    0.6455752   -7.1334535  
H   -0.2850562    1.8581558   -4.3835990  
H    3.2676543   -1.3768500   -2.6330256  
C    5.0711434   -4.5336934   -4.0701042  
C    6.2709186   -4.3775063   -4.6867245  
C    6.3360147   -3.0082717   -5.1403708  
C    5.0667285   -2.3750095   -4.7345604  
N    4.3442889   -3.3530171   -4.0907659  
C    4.7405458   -1.0806249   -4.9792602  
C    5.7038003   -0.2562273   -5.6899249  
O    5.5033382    0.9211272   -5.9581634  
C    7.0544357   -0.9061887   -6.1294046  
O    7.8730638   -0.2220597   -6.7286335  
C    7.2921392   -2.3112693   -5.8083165  
H    7.0242645   -5.1350755   -4.8099003  
H    8.2298754   -2.7537029   -6.1159334  
H    4.6567140   -5.4120440   -3.6025162  
H    3.4306848   -3.2277792   -3.6949261  
C    1.0965514    0.0001358   -0.8010306  
C    0.0000000    0.0000000    0.0000000  
C   -1.1546565    0.0001470   -0.8669508  
C   -0.6372019    0.0003520   -2.2486278  
N    0.7342867    0.0007338   -2.1395012  
C   -1.4147744    0.0001354   -3.3608712  
C   -2.8576052   -0.0001047   -3.1854454  
O   -3.6427785   -0.0002490   -4.1244896  
C   -3.4275841   -0.0000727   -1.7311660  
O   -4.6406832    0.0000333   -1.5710049  
C   -2.4891868   -0.0001090   -0.6116739  
H   -1.0150456    0.0001617   -4.3654239  
H   -2.8919122   -0.0002919    0.3920871  
H    2.1388270    0.0000663   -0.5261650  
C    0.0000000    0.0000000    1.4700000  
C    1.0662921    0.0000102    2.3034270  
C    0.4961870   -0.0000064    3.6418889  
C   -0.9663858    0.0000850    3.4240247  
N   -1.2632773    0.0000084    2.1528658  
C   -1.8985362    0.0000517    4.5177257  
C   -1.3925775   -0.0004564    5.7720543  
O   -2.1456383   -0.0005410    6.8851312  
C    0.0786232   -0.0009323    6.0245000  
O    0.4683759   -0.0012588    7.1921102  
C    1.0143166   -0.0008442    4.8859032  
H    2.1107198   -0.0000632    2.0421868  
H   -2.9622183    0.0003270    4.3293377  
H   -1.5042274   -0.0009692    7.6184419  
H    2.0724152   -0.0013148    5.1109744  
