58

C    1.0965517    0.0001359   -0.8010306  
C    0.0000000    0.0000000    0.0000000  
C   -1.1546565    0.0001471   -0.8669509  
C   -0.6372015    0.0003522   -2.2486283  
N    0.7342872    0.0007341   -2.1395011  
C   -1.4147740    0.0001356   -3.3608713  
C   -2.8576051   -0.0001043   -3.1854460  
O   -3.6427776   -0.0002489   -4.1244906  
C   -3.4275843   -0.0000725   -1.7311663  
O   -4.6406828    0.0000334   -1.5710056  
C   -2.4891865   -0.0001091   -0.6116745  
H   -1.0150447    0.0001622   -4.3654243  
H   -2.8919123   -0.0002920    0.3920865  
H    2.1388273    0.0000664   -0.5261645  
C    4.5298623   -2.1105781   -2.7870401  
C    4.8358779   -1.6476822   -4.0264580  
C    3.7723838   -0.7519980   -4.4157720  
C    2.8148500   -0.7308466   -3.2935094  
N    3.3319992   -1.5752937   -2.3383368  
C    1.6707642   -0.0012340   -3.2725973  
C    1.3617420    0.8177040   -4.4329339  
O    0.3555482    1.5104318   -4.5104134  
C    2.3615449    0.8103626   -5.6329946  
O    2.1118346    1.4956459   -6.6154876  
C    3.5619268   -0.0167192   -5.5388084  
H    5.7070853   -1.9045221   -4.6023435  
H    5.0785345   -2.7978854   -2.1637768  
H    2.9059925   -1.7708746   -1.4510301  
C    5.1685016   -1.0663465   -7.1990263  
C    4.4960380   -0.0158372   -6.6738574  
C    4.8976047    1.1271240   -7.4793898  
C    5.8418669    0.5703208   -8.4718230  
N    6.0045640   -0.7150292   -8.3124662  
C    6.4726504    1.3931100   -9.4669193  
C    6.1734112    2.7121158   -9.4706609  
O    6.6883688    3.5961014  -10.3421128  
C    5.2240710    3.3039509   -8.4824068  
O    4.9983534    4.5124289   -8.5444759  
C    4.5899713    2.4391189   -7.4715111  
H    7.1588351    0.9595918  -10.1797462  
H    6.2889950    4.4495905  -10.0947078  
H    3.9081270    2.9063220   -6.7736299  
H    5.1430923   -2.0967443   -6.8818372  
C    2.5528530    2.1414826    2.8079335  
C    2.0663498    1.7338582    4.0032312  
C    0.9804344    0.8229586    3.6752840  
C    0.9495562    0.7966882    2.1971295  
N    1.8690446    1.5676019    1.6831036  
C    0.0000000    0.0000000    1.4700000  
C   -0.8785127   -0.7372425    2.1869543  
O   -1.8187535   -1.5261249    1.6395491  
C   -0.8723269   -0.7321790    3.6796354  
O   -1.7010379   -1.4274584    4.2670412  
C    0.1115397    0.0933559    4.4024240  
H    2.4028853    2.0163452    4.9860947  
H   -2.2861435   -1.9184361    2.3990168  
H    0.0832434    0.0693689    5.4835595  
H    3.3664920    2.8238276    2.6198634  
