58

C    4.3838637   -0.6854898   -4.3010295  
C    3.2973495   -0.0000931   -3.8752376  
C    2.8436551    0.7447005   -5.0396878  
C    3.7974309    0.3810128   -6.1095599  
N    4.7025025   -0.4571191   -5.6825108  
C    3.6904765    0.9168843   -7.4386529  
C    2.6765534    1.7766834   -7.6877294  
O    2.4570210    2.3525098   -8.8819949  
C    1.6976165    2.1629620   -6.6291297  
O    0.7998267    2.9507658   -6.9267193  
C    1.8286343    1.5997205   -5.2735789  
H    1.6686653    2.9089591   -8.7477893  
H    1.0992684    1.9045379   -4.5351067  
H    5.0092510   -1.3572114   -3.7347658  
C    3.3321169    0.0004714   -1.3379332  
C    2.6974178    0.0000117   -2.5332310  
C    1.2800432   -0.0002117   -2.2052837  
C    1.2395030    0.0000645   -0.7271291  
N    2.4394062    0.0005458   -0.2131035  
C    0.0000000    0.0000000    0.0000000  
C   -1.1468704    0.0000636   -0.7169535  
O   -2.3742208    0.0000071   -0.1695482  
C   -1.1388774    0.0001605   -2.2096347  
O   -2.2206240    0.0000902   -2.7970402  
C    0.1454518    0.0001815   -2.9324234  
H   -2.9844350    0.0001024   -0.9290156  
H    0.1083569    0.0003682   -4.0135593  
H    4.3940038    0.0007622   -1.1498638  
C    5.4903868   -2.9567301   -8.3005874  
C    6.2862490   -2.6722116   -9.3575790  
C    6.0910113   -1.2514920   -9.6024000  
C    5.1187216   -0.8260224   -8.5727342  
N    4.7630637   -1.8213059   -7.8066347  
C    4.6582015    0.5317893   -8.4760100  
C    5.1470810    1.4240819   -9.3671584  
O    4.8047045    2.7233669   -9.3931753  
C    6.1296936    1.0255374  -10.4177757  
O    6.5322321    1.8904071  -11.1957117  
C    6.5866638   -0.3733618  -10.4964058  
H    6.9267719   -3.3435077   -9.9036279  
H    5.3137113    3.0991171  -10.1340378  
H    7.2990793   -0.6216122  -11.2716919  
H    5.3511952   -3.9074635   -7.8109906  
C    2.5528530    2.1414826    2.8079335  
C    2.0663498    1.7338582    4.0032312  
C    0.9804344    0.8229586    3.6752840  
C    0.9495562    0.7966882    2.1971295  
N    1.8690446    1.5676019    1.6831036  
C    0.0000000    0.0000000    1.4700000  
C   -0.8785127   -0.7372425    2.1869543  
O   -1.8187535   -1.5261249    1.6395491  
C   -0.8723269   -0.7321790    3.6796354  
O   -1.7010379   -1.4274584    4.2670412  
C    0.1115397    0.0933559    4.4024240  
H    2.4028853    2.0163452    4.9860947  
H   -2.2861435   -1.9184361    2.3990168  
H    0.0832434    0.0693689    5.4835595  
H    3.3664920    2.8238276    2.6198634  
