58

C    5.9779326   -2.0928591   -4.4468277  
C    5.0400352   -1.6304885   -3.5804345  
C    4.1859902   -0.7341816   -4.3234529  
C    4.7069269   -0.7121368   -5.7036447  
N    5.7934745   -1.5560772   -5.7119679  
C    4.1728102    0.0176376   -6.7155010  
C    3.0072073    0.8361659   -6.4258163  
O    2.4535603    1.5290922   -7.2693979  
C    2.4388219    0.8282647   -4.9709350  
O    1.4580061    1.5136693   -4.7150421  
C    3.1006054    0.0006263   -3.9654951  
H    4.9561722   -1.8877887   -2.5395800  
H    4.5702547    0.0195460   -7.7209580  
H    6.7884831   -2.7804147   -4.2674805  
C    7.6485198   -5.2727375   -7.2091903  
C    6.9586956   -4.3548542   -6.4841327  
C    7.1020337   -3.0883699   -7.1625915  
C    7.9378797   -3.3454998   -8.3508823  
N    8.2360728   -4.6882852   -8.3209163  
C    8.3027634   -2.4000276   -9.2534611  
C    7.8416569   -1.0382504   -9.0402020  
O    8.1165973   -0.1157972   -9.7963691  
C    6.9555664   -0.7431097   -7.7881870  
O    6.5616923    0.3996800   -7.5980396  
C    6.6282253   -1.8451256   -6.8869325  
H    6.4119979   -4.5434261   -5.5773931  
H    8.9164247   -2.6096914  -10.1185454  
H    7.7772711   -6.3269235   -7.0247867  
H    8.7928915   -5.1699514   -9.0028230  
C    3.2798083    0.0005857   -1.4499652  
C    2.5571142    0.0005565   -2.5996556  
C    1.1637432    0.0001548   -2.2210361  
C    1.1336964   -0.0000200   -0.7459473  
N    2.4483512   -0.0001428   -0.3402723  
C    0.0000000    0.0000000    0.0000000  
C   -1.2757368   -0.0000186   -0.6964415  
O   -2.3524598   -0.0000639   -0.1142311  
C   -1.2676497   -0.0000872   -2.2584083  
O   -2.3355766   -0.0004101   -2.8557295  
C    0.0181558    0.0001758   -2.9516296  
H    0.0150788    0.0003319   -4.0331631  
H    4.3498547    0.0008612   -1.3200026  
H    2.7563626    0.0012823    0.6148059  
C    0.0000000    0.0000000    1.4700000  
C    1.0662921    0.0000102    2.3034270  
C    0.4961870   -0.0000064    3.6418889  
C   -0.9663858    0.0000850    3.4240247  
N   -1.2632773    0.0000084    2.1528658  
C   -1.8985362    0.0000517    4.5177257  
C   -1.3925775   -0.0004564    5.7720543  
O   -2.1456383   -0.0005410    6.8851312  
C    0.0786232   -0.0009323    6.0245000  
O    0.4683759   -0.0012588    7.1921102  
C    1.0143166   -0.0008442    4.8859032  
H    2.1107198   -0.0000632    2.0421868  
H   -2.9622183    0.0003270    4.3293377  
H   -1.5042274   -0.0009692    7.6184419  
H    2.0724152   -0.0013148    5.1109744  
