58

C    3.2798081    0.0005857   -1.4499657  
C    2.5571142    0.0005567   -2.5996561  
C    1.1637430    0.0001548   -2.2210366  
C    1.1336963   -0.0000200   -0.7459478  
N    2.4483512   -0.0001427   -0.3402726  
C    0.0000000    0.0000000    0.0000000  
C   -1.2757371   -0.0000187   -0.6964413  
O   -2.3524595   -0.0000640   -0.1142313  
C   -1.2676499   -0.0000873   -2.2584085  
O   -2.3355766   -0.0004101   -2.8557295  
C    0.0181555    0.0001760   -2.9516302  
H    2.9547346    0.0006076   -3.5989114  
H    4.3498548    0.0008613   -1.3200033  
H    2.7563629    0.0012825    0.6148052  
C    0.0139731    0.0003879   -4.4216244  
C    1.0778890    0.0017007   -5.2580815  
C    0.5039785    0.0012672   -6.5949154  
C   -0.9579676   -0.0005055   -6.3728915  
N   -1.2512410   -0.0009470   -5.1008930  
C   -1.8932254   -0.0013660   -7.4639361  
C   -1.3908385   -0.0001062   -8.7196987  
O   -2.1470625   -0.0007107   -9.8306290  
C    0.0796367    0.0020657   -8.9763287  
O    0.4660651    0.0030002  -10.1450437  
C    1.0185653    0.0028688   -7.8403991  
H    2.1230551    0.0029145   -4.9998134  
H   -2.9563661   -0.0028682   -7.2725224  
H   -1.5077415    0.0005468  -10.5657614  
C    3.4423814   -0.6798122   -7.5270557  
C    2.4555188    0.0051743   -8.1503333  
C    3.1251457    0.7524450   -9.2037499  
C    4.5524274    0.3904907   -9.0679523  
N    4.7444921   -0.4488418   -8.0868196  
C    5.5601700    0.9290269   -9.9394562  
C    5.1601886    1.7897190  -10.9030741  
O    5.9925768    2.3679882  -11.7855561  
C    3.7270855    2.1742962  -11.0657927  
O    3.4350050    2.9630425  -11.9645633  
C    2.7122773    1.6083280  -10.1592783  
H    6.5958308    0.6472606   -9.8172912  
H    5.4173500    2.9244852  -12.3410540  
H    1.6850245    1.9119774  -10.3102058  
H    3.3565515   -1.3528987   -6.6888660  
C    2.5528530    2.1414826    2.8079335  
C    2.0663498    1.7338582    4.0032312  
C    0.9804344    0.8229586    3.6752840  
C    0.9495562    0.7966882    2.1971295  
N    1.8690446    1.5676019    1.6831036  
C    0.0000000    0.0000000    1.4700000  
C   -0.8785127   -0.7372425    2.1869543  
O   -1.8187535   -1.5261249    1.6395491  
C   -0.8723269   -0.7321790    3.6796354  
O   -1.7010379   -1.4274584    4.2670412  
C    0.1115397    0.0933559    4.4024240  
H    2.4028853    2.0163452    4.9860947  
H   -2.2861435   -1.9184361    2.3990168  
H    0.0832434    0.0693689    5.4835595  
H    3.3664920    2.8238276    2.6198634  
