58

C    2.5229107   -2.1069161   -5.8790356  
C    1.9659601   -1.6422910   -7.0270794  
C    0.8993074   -0.7471217   -6.6452951  
C    0.8803721   -0.7281566   -5.1701434  
N    1.8886141   -1.5732494   -4.7674571  
C    0.0139741    0.0003876   -4.4216236  
C   -0.9653704    0.8204008   -5.1151637  
O   -1.7886285    1.5123013   -4.5305094  
C   -0.9636625    0.8153756   -6.6771425  
O   -1.7837157    1.5015801   -7.2720346  
C    0.0195995   -0.0107210   -7.3732829  
H    0.0142656   -0.0084682   -8.4548052  
H    3.3432280   -2.7944520   -5.7515051  
H    2.1282169   -1.7702568   -3.8130851  
C    3.2254724   -5.4504644   -8.8144754  
C    3.4512415   -5.0371028  -10.0881460  
C    3.1578855   -3.6239517  -10.1303647  
C    2.7397334   -3.2451865   -8.7671059  
N    2.8019424   -4.3974515   -8.0179036  
C    2.3784917   -1.9913471   -8.3941489  
C    2.4029625   -0.9451158   -9.4027798  
O    2.0952438    0.2157206   -9.1659897  
C    2.8423215   -1.3237045  -10.8531030  
O    2.8665343   -0.4513622  -11.7108291  
C    3.2094194   -2.7094289  -11.1339236  
H    3.7849984   -5.6520020  -10.9049185  
H    3.5126698   -2.9632880  -12.1405605  
H    3.3326552   -6.4358051   -8.3907949  
H    2.5765452   -4.4629029   -7.0422193  
C    3.2798085    0.0005853   -1.4499648  
C    2.5571144    0.0005562   -2.5996554  
C    1.1637436    0.0001546   -2.2210360  
C    1.1336965   -0.0000201   -0.7459470  
N    2.4483513   -0.0001430   -0.3402717  
C    0.0000000    0.0000000    0.0000000  
C   -1.2757367   -0.0000188   -0.6964414  
O   -2.3524597   -0.0000640   -0.1142313  
C   -1.2676494   -0.0000875   -2.2584081  
O   -2.3355762   -0.0004102   -2.8557294  
C    0.0181562    0.0001757   -2.9516296  
H    2.9547357    0.0006072   -3.5989105  
H    4.3498550    0.0008609   -1.3200021  
H    2.7563627    0.0012824    0.6148063  
C    0.0000000    0.0000000    1.4700000  
C    1.0662921    0.0000102    2.3034270  
C    0.4961870   -0.0000064    3.6418889  
C   -0.9663858    0.0000850    3.4240247  
N   -1.2632773    0.0000084    2.1528658  
C   -1.8985362    0.0000517    4.5177257  
C   -1.3925775   -0.0004564    5.7720543  
O   -2.1456383   -0.0005410    6.8851312  
C    0.0786232   -0.0009323    6.0245000  
O    0.4683759   -0.0012588    7.1921102  
C    1.0143166   -0.0008442    4.8859032  
H    2.1107198   -0.0000632    2.0421868  
H   -2.9622183    0.0003270    4.3293377  
H   -1.5042274   -0.0009692    7.6184419  
H    2.0724152   -0.0013148    5.1109744  
