58

C    3.2573668   -0.0002917   -1.5109385  
C    2.5379467   -0.0001706   -0.3591963  
C    1.1435041    0.0000333   -0.7338499  
C    1.1092603   -0.0000080   -2.2088473  
N    2.4227558    0.0001912   -2.6182611  
C   -0.0265539   -0.0002521   -2.9515659  
C   -1.3003041   -0.0002638   -2.2514973  
O   -2.3786791   -0.0004131   -2.8306423  
C   -1.2877726    0.0000313   -0.6895601  
O   -2.3539955    0.0003306   -0.0892030  
C    0.0000000    0.0000000    0.0000000  
H    2.9384090   -0.0000365    0.6389235  
H   -0.0296301   -0.0004082   -4.0327230  
H    4.3270393   -0.0004761   -1.6439451  
C    5.7040765   -2.1117450   -4.6322120  
C    5.5266109   -1.6490474   -5.8965268  
C    4.3947067   -0.7532597   -5.8619885  
C    3.9239244   -0.7318312   -4.4638843  
N    4.7594829   -1.5762331   -3.7698258  
C    2.8699635   -0.0020523   -4.0185829  
C    2.1511670    0.8167851   -4.9805457  
O    1.1885413    1.5096470   -4.6779000  
C    2.6322108    0.8091508   -6.4665956  
O    2.0346724    1.4943473   -7.2855673  
C    3.7812697   -0.0180910   -6.8260214  
H    6.1207058   -1.9060839   -6.7553616  
H    4.1081478   -0.0176445   -7.8569797  
H    4.6944954   -1.7716421   -2.7876654  
C    8.9347873   -4.1649062   -6.7141660  
C    9.5093885   -4.8767346   -5.7168129  
C    8.7309914   -4.5558477   -4.5303771  
C    7.6985352   -3.6103512   -5.0064590  
N    7.8129308   -3.3774442   -6.2857783  
C    6.7149387   -3.0490616   -4.1218246  
C    6.7604473   -3.4159556   -2.8208049  
O    5.9051772   -2.9702268   -1.8849209  
C    7.7899656   -4.3684382   -2.3098943  
O    7.7718802   -4.6577539   -1.1135708  
C    8.7880935   -4.9304564   -3.2371493  
H   10.3567458   -5.5379769   -5.7786200  
H    6.1892880   -3.4065102   -1.0614583  
H    9.5169611   -5.6170434   -2.8277829  
H    9.2195975   -4.1288244   -7.7536636  
C    2.3971438    2.0127888    3.1728260  
C    1.9431056    1.6308205    1.9564670  
C    0.8496017    0.7127664    2.2356185  
C    0.7794028    0.6545384    3.7115134  
N    1.6840587    1.4146091    4.2663826  
C   -0.1885723   -0.1578550    4.3957118  
C   -1.0476298   -0.8789867    3.6398520  
O   -2.0015663   -1.6796266    4.1448486  
C   -1.0022026   -0.8410666    2.1483229  
O   -1.8147390   -1.5232959    1.5241687  
C    0.0000000    0.0000000    1.4700000  
H    2.3054237    1.9346118    0.9892483  
H   -0.2170646   -0.1815267    5.4753125  
H   -2.4487139   -2.0549881    3.3649027  
H    3.2048689    2.6911772    3.3971983  
