62

C    1.1243355    0.0105987   -0.7919006  
C    0.7473945    0.0238570   -2.1148544  
C   -0.6787509    0.0230821   -2.1414699  
C   -1.1201794    0.0092544   -0.7935549  
N    0.0000000    0.0000000    0.0000000  
C   -2.4730849    0.0050361   -0.4408239  
C   -3.3972045    0.0152643   -1.4675060  
O   -4.7313584    0.0120721   -1.1793468  
C   -2.9763813    0.0287439   -2.8186323  
O   -4.0166687    0.0373435   -3.7247617  
C   -1.6418745    0.0326391   -3.1673482  
H   -2.8160141   -0.0056308    0.5845971  
H   -5.1938933    0.0202831   -2.0274379  
H   -3.6464930    0.0462604   -4.6127340  
H   -1.3497708    0.0428573   -4.2109231  
H    2.1062432    0.0064181   -0.3505407  
C    2.8413489   -0.6900443   -3.3574580  
C    3.4610195   -0.4621977   -4.5441211  
C    2.6379327    0.4710677   -5.2765002  
C    1.4796534    0.7704252   -4.4130394  
N    1.6628762    0.0347866   -3.2649301  
C    0.4697019    1.6134185   -4.7463024  
C    0.5272240    2.2695144   -6.0419741  
O   -0.3338532    3.0460519   -6.4341940  
C    1.7445935    1.9670035   -6.9727284  
O    1.8037296    2.5132628   -8.0660556  
C    2.7713942    1.0402236   -6.5030348  
H   -0.3708369    1.8193134   -4.0982197  
H    3.6111336    0.8362795   -7.1533954  
H    3.1463371   -1.3266531   -2.5428408  
C    5.1148573   -2.3630050   -4.7854460  
C    4.7290698   -1.0582727   -4.9886912  
C    5.7863170   -0.4175009   -5.7001966  
C    6.7990034   -1.3893232   -5.9050213  
N    6.3600134   -2.5587695   -5.3355474  
C    7.9928665   -1.1076751   -6.5759569  
C    8.1674812    0.1783713   -7.0490021  
O    9.3144724    0.5075206   -7.7116371  
C    7.1687986    1.1619832   -6.8541725  
O    7.4917029    2.3944206   -7.3834889  
C    5.9908936    0.8849088   -6.1921332  
H    6.8631219   -3.4275939   -5.3328588  
H    8.7686653   -1.8438669   -6.7352005  
H    9.2330529    1.4396544   -7.9519757  
H    6.7650879    3.0003106   -7.2087563  
H    5.2443322    1.6589328   -6.0579276  
H    4.6009574   -3.1690757   -4.2903539  
C    2.3971438    2.0127888    3.1728260  
C    1.9431056    1.6308205    1.9564670  
C    0.8496017    0.7127664    2.2356185  
C    0.7794028    0.6545384    3.7115134  
N    1.6840587    1.4146091    4.2663826  
C   -0.1885723   -0.1578550    4.3957118  
C   -1.0476298   -0.8789867    3.6398520  
O   -2.0015663   -1.6796266    4.1448486  
C   -1.0022026   -0.8410666    2.1483229  
O   -1.8147390   -1.5232959    1.5241687  
C    0.0000000    0.0000000    1.4700000  
H    2.3054237    1.9346118    0.9892483  
H   -0.2170646   -0.1815267    5.4753125  
H   -2.4487139   -2.0549881    3.3649027  
H    3.2048689    2.6911772    3.3971983  
