60

C   -1.0832748    0.2799545   -0.8003809  
C    0.0000000    0.0000000    0.0000000  
C    1.0959338   -0.2850048   -0.8673528  
C    0.6173515   -0.1620617   -2.1969283  
N   -0.7099358    0.1800522   -2.1202242  
C    1.4291478   -0.3732828   -3.3154813  
C    2.7481751   -0.7145398   -3.0876863  
O    3.5848057   -0.9317690   -4.1440355  
C    3.2442024   -0.8423941   -1.7684336  
O    4.5784087   -1.1880822   -1.7073132  
C    2.4438469   -0.6344307   -0.6644823  
H    1.0704196   -0.2812932   -4.3313817  
H    4.4464774   -1.1548613   -3.7685139  
H    4.8335201   -1.2536841   -0.7819922  
H    2.8518565   -0.7398302    0.3339649  
H   -2.0930551    0.5415903   -0.5342069  
C   -3.8692410    3.1713937   -2.8732838  
C   -2.8752659    2.4290943   -2.3209436  
C   -2.5140721    1.4215024   -3.2900321  
C   -3.3853235    1.6392137   -4.4606358  
N   -4.1835584    2.7141513   -4.1440610  
C   -3.3535744    0.8911211   -5.5924725  
C   -2.3976513   -0.2015225   -5.6623074  
O   -2.2918976   -0.9326757   -6.6382852  
C   -1.4652396   -0.4504217   -4.4341124  
O   -0.6566563   -1.3676101   -4.4812229  
C   -1.5926123    0.4231735   -3.2703000  
H   -2.4444012    2.5710567   -1.3458456  
H   -4.0013667    1.0676703   -6.4398835  
H   -4.8848883    3.1073405   -4.7445492  
C   -3.5609334    5.2754193    0.9963998  
C   -3.3867119    4.4250819   -0.0479407  
C   -4.3296275    4.8145160   -1.0697462  
C   -5.0727737    5.9697390   -0.5312446  
N   -4.5593232    6.1984786    0.7245172  
C   -6.0554594    6.6291790   -1.1954521  
C   -6.4046379    6.1703982   -2.5296669  
O   -7.2757843    6.6979490   -3.2087064  
C   -5.6307724    4.9485743   -3.1196532  
O   -5.9162224    4.5531341   -4.2418860  
C   -4.5913279    4.3203094   -2.3080554  
H   -2.6786120    3.6171102   -0.0968338  
H   -6.5881084    7.4744954   -0.7823703  
H   -3.0441148    5.3052789    1.9418609  
H   -4.8617434    6.9253949    1.3467558  
C    2.3971438    2.0127888    3.1728260  
C    1.9431056    1.6308205    1.9564670  
C    0.8496017    0.7127664    2.2356185  
C    0.7794028    0.6545384    3.7115134  
N    1.6840587    1.4146091    4.2663826  
C   -0.1885723   -0.1578550    4.3957118  
C   -1.0476298   -0.8789867    3.6398520  
O   -2.0015663   -1.6796266    4.1448486  
C   -1.0022026   -0.8410666    2.1483229  
O   -1.8147390   -1.5232959    1.5241687  
C    0.0000000    0.0000000    1.4700000  
H    2.3054237    1.9346118    0.9892483  
H   -0.2170646   -0.1815267    5.4753125  
H   -2.4487139   -2.0549881    3.3649027  
H    3.2048689    2.6911772    3.3971983  
