58

C    6.6317365    0.0027575   -4.3241616  
C    5.4016570    0.0020952   -3.7488541  
C    5.6054510    0.0015082   -2.3194127  
C    7.0655596    0.0019147   -2.1075798  
N    7.6303533    0.0022710   -3.3621307  
C    7.6659163    0.0019587   -0.8905029  
C    6.8173803    0.0013542    0.2895489  
O    7.2622819    0.0012813    1.4298841  
C    5.2683488    0.0006643    0.0887881  
O    4.5438178   -0.0001546    1.0748482  
C    4.7390840    0.0009613   -1.2727298  
H    4.4591013    0.0018433   -4.2667372  
H    8.7388159    0.0023901   -0.7570955  
H    6.8927419    0.0033431   -5.3699948  
C   10.0874602    2.0996490   -6.3721245  
C    9.0601231    1.6354553   -5.6150401  
C    9.6298441    0.7406242   -4.6354837  
C   11.0837361    0.7214323   -4.8857226  
N   11.2958893    1.5654473   -5.9513301  
C   11.9776597   -0.0062994   -4.1694739  
C   11.4742171   -0.8254824   -3.0795107  
O   12.1991370   -1.5167112   -2.3759523  
C    9.9380317   -0.8205895   -2.7968157  
O    9.5024820   -1.5065702   -1.8819457  
C    9.0743780    0.0050258   -3.6372403  
H    8.0216954    1.8906203   -5.7298142  
H   13.0401759   -0.0061285   -4.3693974  
H   10.0634062    2.7868805   -7.2021991  
H   12.1909671    1.7644428   -6.3591079  
C    3.2798077    0.0005856   -1.4499661  
C    2.5571132    0.0005565   -2.5996564  
C    1.1637425    0.0001547   -2.2210366  
C    1.1336959   -0.0000200   -0.7459475  
N    2.4483509   -0.0001429   -0.3402730  
C    0.0000000    0.0000000    0.0000000  
C   -1.2757370   -0.0000187   -0.6964411  
O   -2.3524597   -0.0000640   -0.1142306  
C   -1.2676502   -0.0000874   -2.2584078  
O   -2.3355774   -0.0004102   -2.8557287  
C    0.0181551    0.0001758   -2.9516297  
H    2.9547342    0.0006074   -3.5989118  
H    0.0150776    0.0003317   -4.0331632  
H    2.7563626    0.0012823    0.6148051  
C    2.3971438    2.0127888    3.1728260  
C    1.9431056    1.6308205    1.9564670  
C    0.8496017    0.7127664    2.2356185  
C    0.7794028    0.6545384    3.7115134  
N    1.6840587    1.4146091    4.2663826  
C   -0.1885723   -0.1578550    4.3957118  
C   -1.0476298   -0.8789867    3.6398520  
O   -2.0015663   -1.6796266    4.1448486  
C   -1.0022026   -0.8410666    2.1483229  
O   -1.8147390   -1.5232959    1.5241687  
C    0.0000000    0.0000000    1.4700000  
H    2.3054237    1.9346118    0.9892483  
H   -0.2170646   -0.1815267    5.4753125  
H   -2.4487139   -2.0549881    3.3649027  
H    3.2048689    2.6911772    3.3971983  
