58

C    0.0000000    0.0000000    0.0000000  
C    1.0541693   -0.0001723   -0.8560387  
C    0.5103147   -0.0000456   -2.1935954  
C   -0.9576362    0.0002458   -2.0455734  
N   -1.2018452   -0.0001392   -0.6915973  
C   -1.8348299    0.0008314   -3.0810616  
C   -1.2972829    0.0009735   -4.4314608  
O   -2.0050649    0.0014262   -5.4301328  
C    0.2542648    0.0004182   -4.6117572  
O    0.7184698    0.0002254   -5.7439116  
C    1.0974567    0.0000872   -3.4189126  
H    2.0940757   -0.0005483   -0.5817976  
H    2.1707290   -0.0000912   -3.5523662  
H   -2.1128189    0.0014911   -0.2706799  
C   -3.2941061    0.0012872   -2.9038251  
C   -3.9928917    0.0012411   -1.7448266  
C   -5.3903257    0.0018076   -2.1493958  
C   -5.3503919    0.0022630   -3.6275667  
N   -4.1243019    0.0018800   -4.0755544  
C   -6.5485024    0.0028438   -4.4210506  
C   -7.7326777    0.0025751   -3.7675502  
O   -8.9284306    0.0030578   -4.3809146  
C   -7.8059009    0.0017434   -2.2766448  
O   -8.9180020    0.0016638   -1.7489580  
C   -6.5627953    0.0012025   -1.4850567  
H   -3.6076316    0.0007786   -0.7395153  
H   -6.4897352    0.0033745   -5.4996866  
H   -9.5790577    0.0026677   -3.6557686  
C   -4.2689149    2.1408285    1.5394451  
C   -4.8593964    1.7324172    2.6866639  
C   -5.9119298    0.8217363    2.2631859  
C   -5.8117060    0.7964403    0.7880929  
N   -4.8503307    1.5676907    0.3580710  
C   -6.6930516    0.0002336   -0.0208394  
C   -7.6315964   -0.7374795    0.6149655  
O   -8.5195884   -1.5259990   -0.0141188  
C   -7.7577011   -0.7333999    2.1023261  
O   -8.6351626   -1.4290646    2.6135328  
C   -6.8417971    0.0916563    2.9099937  
H   -4.6112919    2.0142558    3.6956668  
H   -9.0524141   -1.9188096    0.7006884  
H   -6.9657801    0.0669568    3.9843534  
H   -3.4418501    2.8232955    1.4246594  
C    3.1301144    0.0010313    3.1728260  
C    2.5367765    0.0002768    1.9564670  
C    1.1089900   -0.0001027    2.2356185  
C    1.0177864    0.0004150    3.7115134  
N    2.1993570    0.0011613    4.2663826  
C   -0.2459220    0.0002880    4.3957118  
C   -1.3675327    0.0000606    3.6398520  
O   -2.6129319   -0.0000866    4.1448486  
C   -1.3083589   -0.0000910    2.1483229  
O   -2.3693264   -0.0004206    1.5241687  
C    0.0000000    0.0000000    1.4700000  
H    3.0096015    0.0001008    0.9892483  
H   -0.2829642    0.0004689    5.4753125  
H   -3.1967446   -0.0002093    3.3649027  
H    4.1849273    0.0015113    3.3971983  
