64

C    3.3041272    0.0001177   -1.5420434  
C    2.5845370   -0.0004780   -0.3695851  
C    1.2040004   -0.0000009   -0.7283586  
C    1.1422373    0.0006035   -2.1454377  
N    2.4348637    0.0026107   -2.6077466  
C   -0.0655184    0.0008795   -2.8497920  
C   -1.2321773    0.0002321   -2.1101396  
O   -2.4392818    0.0001142   -2.7472517  
C   -1.1911213   -0.0000008   -0.6955263  
O   -2.4371528   -0.0002322   -0.1032857  
C    0.0000000    0.0000000    0.0000000  
H    3.0031534   -0.0000660    0.6222583  
H   -0.1193551    0.0014839   -3.9297468  
H   -3.1132995   -0.0000650   -2.0551788  
H   -2.3200282   -0.0004072    0.8516412  
H    4.3686622    0.0004073   -1.7024294  
C    5.6928652   -2.1325520   -4.8023231  
C    4.8437654   -1.6629839   -3.8271294  
C    3.9187210   -0.7861193   -4.4674434  
C    4.2553071   -0.7600055   -5.8451058  
N    5.3381028   -1.5868707   -6.0138198  
C    3.5511949    0.0032252   -6.7813181  
C    2.4877422    0.7535302   -6.3184054  
O    1.7657453    1.5166936   -7.1897919  
C    2.1367186    0.7408777   -4.9474784  
O    1.0544921    1.5406693   -4.6434021  
C    2.8310660   -0.0116222   -4.0232754  
H    4.8866013   -1.9198940   -2.7825456  
H    5.7930173   -1.7762038   -6.8885700  
H    1.0801159    1.9528830   -6.6673787  
H    0.8837164    1.4751238   -3.6988685  
H    6.5243667   -2.8124293   -4.7293100  
C    3.8932280    0.0362953   -8.2105903  
C    4.8909082   -0.6148787   -8.8983942  
C    4.7741246   -0.2283901  -10.2664543  
C    3.6781620    0.6678160  -10.3536683  
N    3.1647509    0.8050681   -9.0878920  
C    3.2721801    1.2511317  -11.5577077  
C    3.9857508    0.9240053  -12.6943605  
O    3.6322684    1.4653428  -13.8964505  
C    5.0820076    0.0314855  -12.6276740  
O    5.6899520   -0.1941423  -13.8453922  
C    5.4829088   -0.5445541  -11.4402471  
H    5.6132315   -1.2867552   -8.4673209  
H    2.3864326    1.3876665   -8.8373304  
H    2.4376556    1.9348120  -11.6308693  
H    4.2504507    1.1100280  -14.5482680  
H    6.4194453   -0.8070896  -13.7122054  
H    6.3263472   -1.2247667  -11.4202039  
C    2.5528530    2.1414826    2.8079335  
C    2.0663498    1.7338582    4.0032312  
C    0.9804344    0.8229586    3.6752840  
C    0.9495562    0.7966882    2.1971295  
N    1.8690446    1.5676019    1.6831036  
C    0.0000000    0.0000000    1.4700000  
C   -0.8785127   -0.7372425    2.1869543  
O   -1.8187535   -1.5261249    1.6395491  
C   -0.8723269   -0.7321790    3.6796354  
O   -1.7010379   -1.4274584    4.2670412  
C    0.1115397    0.0933559    4.4024240  
H    2.4028853    2.0163452    4.9860947  
H   -2.2861435   -1.9184361    2.3990168  
H    0.0832434    0.0693689    5.4835595  
H    3.3664920    2.8238276    2.6198634  
