58

C    1.1319246    0.0015676   -0.8009264  
C    0.7969921    0.0034954   -2.1169399  
C   -0.6453335    0.0035693   -2.1842671  
C   -1.1266829    0.0015408   -0.7896032  
N    0.0000000    0.0000000    0.0000000  
C   -2.4346128    0.0013914   -0.4276300  
C   -3.4350110    0.0031336   -1.4820189  
O   -4.6384608    0.0030878   -1.2583926  
C   -2.9478954    0.0050440   -2.9661081  
O   -3.7809368    0.0062135   -3.8623782  
C   -1.5113817    0.0053053   -3.2312129  
H    1.4821240    0.0045431   -2.9459191  
H   -2.7664563    0.0000176    0.6013434  
H    2.1104319    0.0009432   -0.3488054  
C    1.7765376   -2.1310607   -5.1320084  
C    1.6763837   -1.7219598   -6.4181596  
C    0.5413924   -0.8120091   -6.4350136  
C    0.0622656   -0.7878465   -5.0362863  
N    0.7824508   -1.5590785   -4.2678307  
C   -1.0641729    0.0073880   -4.6315341  
C   -1.6835601    0.7452547   -5.5808744  
O   -2.7464415    1.5329418   -5.3445031  
C   -1.2235539    0.7423083   -7.0009259  
O   -1.8348759    1.4380505   -7.8117584  
C   -0.0657273   -0.0817637   -7.3911398  
H   -2.9609648    1.9261206   -6.2096869  
H    0.2362041   -0.0562576   -8.4296086  
H    2.4949782   -2.8133092   -4.7061525  
C    3.5731843   -5.4994720   -7.8313100  
C    2.8600556   -4.6228298   -7.0866448  
C    2.9887216   -3.3502724   -7.7798567  
C    3.8359512   -3.6495859   -8.9542479  
N    4.1815782   -4.9078666   -8.9897724  
C    4.2013286   -2.6373821   -9.9066293  
C    3.7409197   -1.3832579   -9.6956040  
O    4.0035554   -0.3415377  -10.5029960  
C    2.8836629   -1.0497612   -8.5199966  
O    2.5005395    0.1128744   -8.3907083  
C    2.5227103   -2.1055627   -7.5572292  
H    2.3140567   -4.8159097   -6.1790759  
H    4.8219020   -2.8842438  -10.7556622  
H    3.5413835    0.4121125  -10.0936542  
H    3.7258778   -6.5520148   -7.6529535  
C    0.8175213    0.6860729    2.3021913  
C    0.0000000    0.0000000    1.4700000  
C   -0.8887526   -0.7456559    2.3478473  
C   -0.4549825   -0.3816753    3.7138435  
N    0.5448156    0.4573574    3.6934124  
C   -1.0945674   -0.9182058    4.8835240  
C   -2.1210866   -1.7789155    4.6970523  
O   -2.8083856   -2.3554314    5.6976972  
C   -2.5824069   -2.1655116    3.3310774  
O   -3.5227682   -2.9541547    3.2362962  
C   -1.9100805   -1.6015804    2.1470656  
H   -0.7567140   -0.6349833    5.8697035  
H   -3.4728268   -2.9124471    5.2533954  
H   -2.2742832   -1.9066565    1.1752040  
H    1.6189533    1.3585343    2.0405121  
