62

C   -3.3003284   -0.0132753   -1.4738976  
C   -2.5232619   -0.0100960   -2.6090741  
C   -1.1623133   -0.0043576   -2.1820095  
C   -1.1711796   -0.0045821   -0.7636135  
N   -2.4852176   -0.0081074   -0.3662350  
C    0.0000000    0.0000000    0.0000000  
C    1.2020289    0.0045909   -0.6806481  
O    2.3759077    0.0088277    0.0157742  
C    1.2314530    0.0052677   -2.0955513  
O    2.5054160    0.0104809   -2.6250183  
C    0.0764466    0.0010224   -2.8495191  
H   -2.8919774   -0.0106086   -3.6205293  
H   -2.8035713   -0.0196472    0.5858673  
H    3.0835406    0.0118757   -0.6418825  
H    2.4359807    0.0105618   -3.5845921  
H    0.1304027    0.0018456   -3.9319086  
C   -5.6708102   -0.0220601   -2.3611548  
C   -4.7630138   -0.0188731   -1.3275388  
C   -5.5133116   -0.0203130   -0.1144228  
C   -6.8854705   -0.0247226   -0.4737104  
N   -6.9456207   -0.0237281   -1.8452054  
C   -7.9149459   -0.0274972    0.4723137  
C   -7.5526339   -0.0260965    1.8053202  
O   -8.5176702   -0.0290281    2.7705720  
C   -6.1889440   -0.0213342    2.1836645  
O   -5.9909051   -0.0200734    3.5489934  
C   -5.1728145   -0.0183216    1.2509277  
H   -7.7894045   -0.0367212   -2.3891184  
H   -8.0553978   -0.0270931    3.6188440  
H   -5.0439614   -0.0168339    3.7189671  
H   -4.1373787   -0.0145095    1.5708280  
H   -5.5098161   -0.0218296   -3.4255986  
C  -10.1166129   -2.1427541   -2.6839005  
C  -11.3688827   -1.6819278   -2.4318403  
C  -11.2686809   -0.7859804   -1.3039780  
C   -9.8451729   -0.7624191   -0.9168598  
N   -9.2005778   -1.6058643   -1.7920665  
C   -9.3392994   -0.0318745    0.1088600  
C  -10.2582081    0.7855948    0.8833830  
O   -9.9000960    1.4790009    1.8263812  
C  -11.7701359    0.7756956    0.4912320  
O  -12.5532882    1.4597260    1.1362392  
C  -12.1957730   -0.0521927   -0.6345057  
H  -12.2610229   -1.9403035   -2.9740039  
H  -13.2442868   -0.0533171   -0.8997258  
H   -9.7859075   -2.8295741   -3.4460043  
H   -8.2160010   -1.7998005   -1.7853844  
C    2.3971438    2.0127888    3.1728260  
C    1.9431056    1.6308205    1.9564670  
C    0.8496017    0.7127664    2.2356185  
C    0.7794028    0.6545384    3.7115134  
N    1.6840587    1.4146091    4.2663826  
C   -0.1885723   -0.1578550    4.3957118  
C   -1.0476298   -0.8789867    3.6398520  
O   -2.0015663   -1.6796266    4.1448486  
C   -1.0022026   -0.8410666    2.1483229  
O   -1.8147390   -1.5232959    1.5241687  
C    0.0000000    0.0000000    1.4700000  
H    2.3054237    1.9346118    0.9892483  
H   -0.2170646   -0.1815267    5.4753125  
H   -2.4487139   -2.0549881    3.3649027  
H    3.2048689    2.6911772    3.3971983  
