58

C    1.0965513    0.0001360   -0.8010308  
C    0.0000000    0.0000000    0.0000000  
C   -1.1546566    0.0001471   -0.8669507  
C   -0.6372025    0.0003523   -2.2486278  
N    0.7342862    0.0007339   -2.1395012  
C   -1.4147755    0.0001357   -3.3608706  
C   -2.8576064   -0.0001045   -3.1854448  
O   -3.6427799   -0.0002486   -4.1244886  
C   -3.4275850   -0.0000723   -1.7311649  
O   -4.6406838    0.0000336   -1.5710037  
C   -2.4891870   -0.0001088   -0.6116735  
H   -2.8919123   -0.0002917    0.3920882  
H    2.1388268    0.0000662   -0.5261650  
H    1.3735858   -0.0006096   -2.9130264  
C    1.9879915   -2.0094977   -5.4216937  
C    1.1159529   -1.6281419   -4.4595634  
C    0.2020378   -0.7114852   -5.1236411  
C    0.6824134   -0.6533114   -6.5209379  
N    1.7290277   -1.4122069   -6.7016770  
C    0.0350143    0.1578558   -7.5149044  
C   -1.0434962    0.8778658   -7.1305404  
O   -1.7440922    1.6772932   -7.9528071  
C   -1.5526929    0.8399679   -5.7278847  
O   -2.5392372    1.5211385   -5.4486768  
C   -0.8712846    0.0001716   -4.7267104  
H    1.0953609   -1.9314918   -3.4267849  
H   -2.4483696    2.0520616   -7.3936156  
H    2.8222532   -2.6868434   -5.3312280  
C    1.6661718   -2.8538704  -10.3667935  
C    1.1453578   -2.2963451   -9.2489839  
C    0.9967942   -0.8847615   -9.5681403  
C    1.4897937   -0.7627505  -10.9568983  
N    1.8834455   -1.9137743  -11.4303661  
C    1.5089058    0.4961551  -11.6496303  
C    1.0557369    1.5836655  -10.9853314  
O    1.0161925    2.8206274  -11.5091655  
C    0.5515051    1.4927757   -9.5833147  
O    0.1542800    2.5234965   -9.0401319  
C    0.5421216    0.1900545   -8.8942905  
H    0.8930624   -2.7829127   -8.3223371  
H    1.8748082    0.5562323  -12.6642323  
H    0.6469808    3.3782253  -10.8007016  
H    1.9242880   -3.8873159  -10.5351363  
C    2.3971438    2.0127888    3.1728260  
C    1.9431056    1.6308205    1.9564670  
C    0.8496017    0.7127664    2.2356185  
C    0.7794028    0.6545384    3.7115134  
N    1.6840587    1.4146091    4.2663826  
C   -0.1885723   -0.1578550    4.3957118  
C   -1.0476298   -0.8789867    3.6398520  
O   -2.0015663   -1.6796266    4.1448486  
C   -1.0022026   -0.8410666    2.1483229  
O   -1.8147390   -1.5232959    1.5241687  
C    0.0000000    0.0000000    1.4700000  
H    2.3054237    1.9346118    0.9892483  
H   -0.2170646   -0.1815267    5.4753125  
H   -2.4487139   -2.0549881    3.3649027  
H    3.2048689    2.6911772    3.3971983  
