64

C    4.6027286   -2.0944966   -2.9150978  
C    3.4411565   -1.6373418   -2.3369738  
C    2.8377887   -0.7405117   -3.2676952  
C    3.6836208   -0.6899840   -4.4052108  
N    4.7469283   -1.5221604   -4.1572680  
C    3.3988812    0.0972720   -5.5250057  
C    2.2389983    0.8469474   -5.4960812  
O    1.9125736    1.6330035   -6.5631221  
C    1.3824833    0.8101281   -4.3700960  
O    0.2670646    1.6125636   -4.4937157  
C    1.6628945    0.0339172   -3.2649299  
H    3.0744459   -1.9151391   -1.3636571  
H    5.5062366   -1.6979111   -4.7901526  
H    4.0395081    0.1402706   -6.3950345  
H    1.0776859    2.0643820   -6.3391996  
H   -0.2575675    1.5298020   -3.6915214  
C    5.5690014   -3.6438528   -1.1697471  
C    6.6798655   -4.4415786   -1.0211442  
C    7.4450556   -4.3170702   -2.2184668  
C    6.7456482   -3.4222825   -3.0682367  
N    5.6101309   -3.0338605   -2.4016426  
C    7.2107481   -3.0652875   -4.3374984  
C    8.4037795   -3.6214764   -4.7564331  
O    8.9038244   -3.3068297   -5.9868677  
C    9.1160104   -4.5165291   -3.9231116  
O   10.2864789   -4.9853490   -4.4830719  
C    8.6576366   -4.8693713   -2.6709442  
H    6.9097841   -5.0405083   -0.1566137  
H    6.6823297   -2.3839843   -4.9900351  
H    9.7315621   -3.7964281   -6.0785632  
H   10.7055389   -5.5828679   -3.8562042  
H    9.2249030   -5.5575524   -2.0552389  
H    4.7498713   -3.4628439   -0.4950467  
C    1.1243410    0.0100105   -0.7919003  
C    0.7474072    0.0234665   -2.1148542  
C   -0.6787384    0.0234379   -2.1414698  
C   -1.1201748    0.0098411   -0.7935547  
N    0.0000000    0.0000000    0.0000000  
C   -2.4730818    0.0063307   -0.4408240  
C   -3.3971962    0.0170429   -1.4675058  
O   -4.7313520    0.0145490   -1.1793468  
C   -2.9763654    0.0303020   -2.8186325  
O   -4.0166484    0.0394464   -3.7247625  
C   -1.6418567    0.0334992   -3.1673480  
H   -2.8160166   -0.0041569    0.5845966  
H   -5.1938823    0.0230023   -2.0274386  
H   -3.6464680    0.0481700   -4.6127343  
H   -1.3497475    0.0435647   -4.2109234  
H    2.1062466    0.0053162   -0.3505405  
C    2.3971438    2.0127888    3.1728260  
C    1.9431056    1.6308205    1.9564670  
C    0.8496017    0.7127664    2.2356185  
C    0.7794028    0.6545384    3.7115134  
N    1.6840587    1.4146091    4.2663826  
C   -0.1885723   -0.1578550    4.3957118  
C   -1.0476298   -0.8789867    3.6398520  
O   -2.0015663   -1.6796266    4.1448486  
C   -1.0022026   -0.8410666    2.1483229  
O   -1.8147390   -1.5232959    1.5241687  
C    0.0000000    0.0000000    1.4700000  
H    2.3054237    1.9346118    0.9892483  
H   -0.2170646   -0.1815267    5.4753125  
H   -2.4487139   -2.0549881    3.3649027  
H    3.2048689    2.6911772    3.3971983  
