58

C    3.2798081    0.0005857   -1.4499657  
C    2.5571142    0.0005567   -2.5996561  
C    1.1637430    0.0001548   -2.2210366  
C    1.1336963   -0.0000200   -0.7459478  
N    2.4483512   -0.0001427   -0.3402726  
C    0.0000000    0.0000000    0.0000000  
C   -1.2757371   -0.0000187   -0.6964413  
O   -2.3524595   -0.0000640   -0.1142313  
C   -1.2676499   -0.0000873   -2.2584085  
O   -2.3355766   -0.0004101   -2.8557295  
C    0.0181555    0.0001760   -2.9516302  
H    2.9547346    0.0006076   -3.5989114  
H    4.3498548    0.0008613   -1.3200033  
H    2.7563629    0.0012825    0.6148052  
C    0.0139731    0.0003879   -4.4216244  
C    1.0778890    0.0017007   -5.2580815  
C    0.5039785    0.0012672   -6.5949154  
C   -0.9579676   -0.0005055   -6.3728915  
N   -1.2512410   -0.0009470   -5.1008930  
C   -1.8932254   -0.0013660   -7.4639361  
C   -1.3908385   -0.0001062   -8.7196987  
O   -2.1470625   -0.0007107   -9.8306290  
C    0.0796367    0.0020657   -8.9763287  
O    0.4660651    0.0030002  -10.1450437  
C    1.0185653    0.0028688   -7.8403991  
H    2.1230551    0.0029145   -4.9998134  
H   -2.9563661   -0.0028682   -7.2725224  
H   -1.5077415    0.0005468  -10.5657614  
C    4.4058104   -2.1009960   -6.0009262  
C    5.4122411   -1.6345282   -6.7842395  
C    4.8157095   -0.7395023   -7.7475229  
C    3.3688764   -0.7226296   -7.4591139  
N    3.1858862   -1.5686733   -6.3897154  
C    2.4555188    0.0051743   -8.1503333  
C    2.9290429    0.8265418   -9.2519978  
O    2.1849885    1.5179189   -9.9351392  
C    4.4572006    0.8237388   -9.5753124  
O    4.8675530    1.5110977  -10.5007364  
C    5.3437674   -0.0017359   -8.7589542  
H    6.4536376   -1.8885894   -6.6972937  
H    6.4005085    0.0020581   -8.9891887  
H    4.4526481   -2.7890209   -5.1724829  
H    2.3025105   -1.7671289   -5.9569217  
C    0.8175213    0.6860729    2.3021913  
C    0.0000000    0.0000000    1.4700000  
C   -0.8887526   -0.7456559    2.3478473  
C   -0.4549825   -0.3816753    3.7138435  
N    0.5448156    0.4573574    3.6934124  
C   -1.0945674   -0.9182058    4.8835240  
C   -2.1210866   -1.7789155    4.6970523  
O   -2.8083856   -2.3554314    5.6976972  
C   -2.5824069   -2.1655116    3.3310774  
O   -3.5227682   -2.9541547    3.2362962  
C   -1.9100805   -1.6015804    2.1470656  
H   -0.7567140   -0.6349833    5.8697035  
H   -3.4728268   -2.9124471    5.2533954  
H   -2.2742832   -1.9066565    1.1752040  
H    1.6189533    1.3585343    2.0405121  
