60

C   -3.2745626   -0.4410155   -1.5420435  
C   -2.5614874   -0.3444039   -0.3695855  
C   -1.1932332   -0.1606597   -0.7283590  
C   -1.1319416   -0.1530171   -2.1454376  
N   -2.4127403   -0.3274929   -2.6077469  
C    0.0650500    0.0078709   -2.8497918  
C    1.2211890    0.1641901   -2.1101396  
O    2.4174824    0.3253814   -2.7472516  
C    1.1804689    0.1589426   -0.6955257  
O    2.4153259    0.3254407   -0.1032863  
C    0.0000000    0.0000000    0.0000000  
H   -2.9763056   -0.4006719    0.6222582  
H    0.1184861    0.0144556   -3.9297468  
H    3.0854483    0.4154993   -2.0551783  
H    2.2992260    0.3099853    0.8516420  
H   -4.3295390   -0.5833526   -1.7024297  
C   -2.8072986   -0.3662561   -4.0232754  
C   -4.0421865   -0.5313425   -4.5635281  
C   -3.8826400   -0.4931269   -5.9980731  
C   -2.4432515   -0.2908224   -6.2511032  
N   -1.8470470   -0.2216832   -5.0131012  
C   -1.8847422   -0.1999780   -7.4846019  
C   -2.7597031   -0.3084858   -8.6401127  
O   -2.3528559   -0.2394691   -9.7925066  
C   -4.2874951   -0.5226949   -8.3956312  
O   -5.0339960   -0.6151893   -9.3607439  
C   -4.7713155   -0.6050400   -7.0197718  
H   -4.9601292   -0.6644916   -4.0192241  
H   -5.8304721   -0.7536519   -6.8590674  
H   -0.8652776   -0.0888966   -4.8532764  
C    1.8603071   -1.7338577   -5.6174485  
C    0.5484499   -1.5270611   -5.8779204  
C    0.5301559   -0.5905306   -6.9910582  
C    1.9562880   -0.3310220   -7.2832678  
N    2.7407298   -0.9985306   -6.4813496  
C    2.3680005    0.5577146   -8.3348031  
C    1.3990569    1.1595342   -9.0616429  
O    1.6390876    2.0121786  -10.0722981  
C   -0.0489172    0.9177433   -8.7913306  
O   -0.8765517    1.4995778   -9.4925510  
C   -0.4457608    0.0017601   -7.7071651  
H   -0.3018106   -1.9570226   -5.3766562  
H    3.4172580    0.7290328   -8.5261635  
H    0.7563848    2.2723932  -10.3921053  
H    2.2953397   -2.3668014   -4.8604134  
C    0.0000000    0.0000000    1.4700000  
C    1.0662921    0.0000102    2.3034270  
C    0.4961870   -0.0000064    3.6418889  
C   -0.9663858    0.0000850    3.4240247  
N   -1.2632773    0.0000084    2.1528658  
C   -1.8985362    0.0000517    4.5177257  
C   -1.3925775   -0.0004564    5.7720543  
O   -2.1456383   -0.0005410    6.8851312  
C    0.0786232   -0.0009323    6.0245000  
O    0.4683759   -0.0012588    7.1921102  
C    1.0143166   -0.0008442    4.8859032  
H    2.1107198   -0.0000632    2.0421868  
H   -2.9622183    0.0003270    4.3293377  
H   -1.5042274   -0.0009692    7.6184419  
H    2.0724152   -0.0013148    5.1109744  
