60

C   -3.1254322   -1.0718814   -1.5420434  
C   -2.4449442   -0.8379023   -0.3695853  
C   -1.1388996   -0.3905447   -0.7283586  
C   -1.0802798   -0.3710820   -2.1454377  
N   -2.3023617   -0.7922740   -2.6077470  
C    0.0622612    0.0204205   -2.8497918  
C    1.1656274    0.3994654   -2.1101393  
O    2.3074250    0.7911293   -2.7472516  
C    1.1267160    0.3863685   -0.6955258  
O    2.3052984    0.7907663   -0.1032863  
C    0.0000000    0.0000000    0.0000000  
H   -2.8407921   -0.9740799    0.6222580  
H    0.1133830    0.0373118   -3.9297469  
H    2.9449394    1.0099321   -2.0551783  
H    2.1944501    0.7529398    0.8516413  
H   -4.1323131   -1.4174617   -1.7024297  
C   -2.6817579   -0.9073279   -4.0232754  
C   -3.8657729   -1.3125966   -4.5384886  
C   -3.6931755   -1.2355606   -5.9809784  
C   -2.3079763   -0.7519983   -6.1653008  
N   -1.7100975   -0.5578990   -5.0212492  
C   -1.7432218   -0.5403625   -7.4696584  
C   -2.5265387   -0.8003699   -8.5411746  
O   -2.1295023   -0.6474120   -9.8159324  
C   -3.9283768   -1.2897535   -8.3878310  
O   -4.5837789   -1.5057432   -9.4071528  
C   -4.4847816   -1.4989535   -7.0392858  
H   -4.7473676   -1.6252941   -4.0054910  
H   -0.7281518   -0.1861425   -7.5748755  
H   -2.9014562   -0.9097614  -10.3492356  
C   -6.8033080   -1.5708428   -6.0497044  
C   -5.8700257   -1.9820292   -6.9463566  
C   -6.4990149   -2.9772976   -7.7822094  
C   -7.8851902   -3.1131936   -7.2955466  
N   -8.0054694   -2.2339631   -6.2441779  
C   -8.8068103   -3.9568549   -7.8252243  
C   -8.4067312   -4.7865611   -8.9495284  
O   -9.1638801   -5.5780322   -9.4959724  
C   -6.9435214   -4.6592855   -9.4811497  
O   -6.5951180   -5.3529414  -10.4270452  
C   -6.0413214   -3.7141329   -8.8280240  
H   -9.8184965   -4.0411079   -7.4533338  
H   -5.0299396   -3.6318711   -9.2022738  
H   -6.7139530   -0.8393316   -5.2630681  
H   -8.8388418   -2.0939463   -5.7029447  
C    0.0000000    0.0000000    1.4700000  
C    1.0662921    0.0000102    2.3034270  
C    0.4961870   -0.0000064    3.6418889  
C   -0.9663858    0.0000850    3.4240247  
N   -1.2632773    0.0000084    2.1528658  
C   -1.8985362    0.0000517    4.5177257  
C   -1.3925775   -0.0004564    5.7720543  
O   -2.1456383   -0.0005410    6.8851312  
C    0.0786232   -0.0009323    6.0245000  
O    0.4683759   -0.0012588    7.1921102  
C    1.0143166   -0.0008442    4.8859032  
H    2.1107198   -0.0000632    2.0421868  
H   -2.9622183    0.0003270    4.3293377  
H   -1.5042274   -0.0009692    7.6184419  
H    2.0724152   -0.0013148    5.1109744  
