64

C   -3.3003122   -0.0165560   -1.4739002  
C   -2.5232480   -0.0126041   -2.6090757  
C   -1.1623054   -0.0055129   -2.1820104  
C   -1.1711743   -0.0057463   -0.7636144  
N   -2.4852076   -0.0105778   -0.3662369  
C    0.0000000    0.0000000    0.0000000  
C    1.2020255    0.0057859   -0.6806470  
O    2.3758985    0.0111895    0.0157760  
C    1.2314490    0.0064920   -2.0955499  
O    2.5054065    0.0129717   -2.6250164  
C    0.0764491    0.0010986   -2.8495191  
H   -2.8919620   -0.0134832   -3.6205313  
H   -2.8035507   -0.0224341    0.5858653  
H    3.0835282    0.0149409   -0.6418800  
H    2.4359729    0.0129836   -3.5845905  
H    0.1304035    0.0019756   -3.9319084  
C   -6.5581266   -0.0348230   -4.4647512  
C   -7.6102847   -0.0393463   -3.5785178  
C   -7.0498508   -0.0358524   -2.2668388  
C   -5.6394028   -0.0288706   -2.4168833  
N   -5.3748187   -0.0303751   -3.7639581  
C   -4.7629912   -0.0236076   -1.3275425  
C   -5.3205775   -0.0251189   -0.0637101  
O   -4.5107559   -0.0198188    1.0350052  
C   -6.7255014   -0.0324280    0.1064437  
O   -7.1254968   -0.0334565    1.4268025  
C   -7.5907042   -0.0378959   -0.9677632  
H   -4.4592075   -0.0159485   -4.1755765  
H   -5.0946849   -0.0222863    1.8046062  
H   -8.0872029   -0.0385070    1.4532517  
H   -8.6623283   -0.0436268   -0.8063069  
H   -6.5581208   -0.0358635   -5.5413006  
C   -9.8905990   -2.1791380   -6.7740020  
C   -8.8936336   -1.7105444   -5.9500195  
C   -9.5078171   -0.8255318   -5.0150696  
C  -10.8927097   -0.7936706   -5.3200046  
N  -11.0906959   -1.6251069   -6.3943100  
C  -11.8083998   -0.0218102   -4.5985261  
C  -11.3171476    0.7313765   -3.5499277  
O  -12.1676191    1.5029100   -2.8120607  
C   -9.9385856    0.7130863   -3.2304750  
O   -9.6054308    1.5167139   -2.1597114  
C   -9.0346193   -0.0479290   -3.9419708  
H   -7.8516892   -1.9733218   -6.0155365  
H  -11.9766822   -1.8120121   -6.8279874  
H  -12.8651104    0.0069280   -4.8259875  
H  -11.6272493    1.9397453   -2.1409132  
H   -8.6575754    1.4469240   -2.0103717  
H   -9.8403595   -2.8636214   -7.6034099  
C    0.0000000    0.0000000    1.4700000  
C    1.0662921    0.0000102    2.3034270  
C    0.4961870   -0.0000064    3.6418889  
C   -0.9663858    0.0000850    3.4240247  
N   -1.2632773    0.0000084    2.1528658  
C   -1.8985362    0.0000517    4.5177257  
C   -1.3925775   -0.0004564    5.7720543  
O   -2.1456383   -0.0005410    6.8851312  
C    0.0786232   -0.0009323    6.0245000  
O    0.4683759   -0.0012588    7.1921102  
C    1.0143166   -0.0008442    4.8859032  
H    2.1107198   -0.0000632    2.0421868  
H   -2.9622183    0.0003270    4.3293377  
H   -1.5042274   -0.0009692    7.6184419  
H    2.0724152   -0.0013148    5.1109744  
