62

C    1.1188644    0.0008221   -0.8003803  
C    0.0000000    0.0000000    0.0000000  
C   -1.1323861    0.0008897   -0.8673528  
C   -0.6382656    0.0019677   -2.1969279  
N    0.7324021    0.0038481   -2.1202232  
C   -1.4770906    0.0027314   -3.3154809  
C   -2.8395466    0.0020937   -3.0876859  
O   -3.7039194    0.0024420   -4.1440356  
C   -3.3517866    0.0013925   -1.7684332  
O   -4.7300489    0.0012359   -1.7073127  
C   -2.5248544    0.0009119   -0.6644817  
H    1.3576319   -0.0056169   -2.9057036  
H   -4.5940025    0.0021821   -3.7685136  
H   -4.9934594    0.0007257   -0.7819926  
H   -2.9462580    0.0005599    0.3339654  
H    2.1619891    0.0009355   -0.5342062  
C    1.9333069   -2.1182742   -5.2802152  
C    1.0133392   -1.6572494   -4.3672080  
C    0.1426192   -0.7691972   -5.0656420  
C    0.5838560   -0.7277675   -6.4130547  
N    1.6740004   -1.5566761   -6.5085133  
C   -0.0442372    0.0493812   -7.3909745  
C   -1.1378606    0.7981155   -7.0016641  
O   -1.7887534    1.5744842   -7.9163248  
C   -1.5929370    0.7702827   -5.6619077  
O   -2.6929646    1.5704861   -5.4317836  
C   -0.9736286    0.0040459   -4.6965760  
H    0.9752628   -1.9268941   -3.3256537  
H    0.2872442    0.0854147   -8.4195773  
H   -2.5111337    2.0069652   -7.4426248  
H   -2.9358037    1.4942139   -4.5039822  
H    2.7547995   -2.8021592   -5.1521112  
C    2.4354514   -1.8209803   -7.7378370  
C    3.5121940   -2.6279106   -7.9210401  
C    3.8783279   -2.5314760   -9.3144111  
C    2.9197741   -1.5954852   -9.9323807  
N    2.0714493   -1.2010894   -8.9235761  
C    2.9294217   -1.2379394  -11.2414917  
C    3.9520051   -1.8135526  -12.0991201  
O    4.0442974   -1.5544118  -13.2918611  
C    4.9773475   -2.8073221  -11.4659529  
O    5.8426084   -3.2985277  -12.1782031  
C    4.8659143   -3.1153224  -10.0423763  
H    3.9947645   -3.2229405   -7.1662693  
H    2.2171988   -0.5495295  -11.6747803  
H    5.5798374   -3.8041691   -9.6116468  
H    1.3070266   -0.5599645   -9.0315803  
C    0.0000000    0.0000000    1.4700000  
C    1.0662921    0.0000102    2.3034270  
C    0.4961870   -0.0000064    3.6418889  
C   -0.9663858    0.0000850    3.4240247  
N   -1.2632773    0.0000084    2.1528658  
C   -1.8985362    0.0000517    4.5177257  
C   -1.3925775   -0.0004564    5.7720543  
O   -2.1456383   -0.0005410    6.8851312  
C    0.0786232   -0.0009323    6.0245000  
O    0.4683759   -0.0012588    7.1921102  
C    1.0143166   -0.0008442    4.8859032  
H    2.1107198   -0.0000632    2.0421868  
H   -2.9622183    0.0003270    4.3293377  
H   -1.5042274   -0.0009692    7.6184419  
H    2.0724152   -0.0013148    5.1109744  
