58

C    5.9779326   -2.0928591   -4.4468277  
C    5.0400352   -1.6304885   -3.5804345  
C    4.1859902   -0.7341816   -4.3234529  
C    4.7069269   -0.7121368   -5.7036447  
N    5.7934745   -1.5560772   -5.7119679  
C    4.1728102    0.0176376   -6.7155010  
C    3.0072073    0.8361659   -6.4258163  
O    2.4535603    1.5290922   -7.2693979  
C    2.4388219    0.8282647   -4.9709350  
O    1.4580061    1.5136693   -4.7150421  
C    3.1006054    0.0006263   -3.9654951  
H    4.9561722   -1.8877887   -2.5395800  
H    4.5702547    0.0195460   -7.7209580  
H    6.7884831   -2.7804147   -4.2674805  
C    7.6129742   -5.2827968   -7.1556849  
C    8.2303586   -4.8141877   -8.2707258  
C    7.9466735   -3.4004560   -8.3463646  
C    7.1074151   -3.0815583   -7.1755780  
N    6.9414399   -4.2655092   -6.4946947  
C    6.6282253   -1.8451256   -6.8869325  
C    6.9611077   -0.7557858   -7.7897404  
O    6.5776385    0.3936732   -7.6165459  
C    7.8484229   -1.0707051   -9.0360559  
O    8.1349634   -0.1616882   -9.8034175  
C    8.3053670   -2.4429283   -9.2411368  
H    8.8173415   -5.3928717   -8.9615157  
H    8.9195012   -2.6526043  -10.1063532  
H    7.5918921   -6.2857579   -6.7613307  
H    6.4153719   -4.3735071   -5.6469709  
C    3.2798083    0.0005857   -1.4499652  
C    2.5571142    0.0005565   -2.5996556  
C    1.1637432    0.0001548   -2.2210361  
C    1.1336964   -0.0000200   -0.7459473  
N    2.4483512   -0.0001428   -0.3402723  
C    0.0000000    0.0000000    0.0000000  
C   -1.2757368   -0.0000186   -0.6964415  
O   -2.3524598   -0.0000639   -0.1142311  
C   -1.2676497   -0.0000872   -2.2584083  
O   -2.3355766   -0.0004101   -2.8557295  
C    0.0181558    0.0001758   -2.9516296  
H    0.0150788    0.0003319   -4.0331631  
H    4.3498547    0.0008612   -1.3200026  
H    2.7563626    0.0012823    0.6148059  
C    0.8175213    0.6860729    2.3021913  
C    0.0000000    0.0000000    1.4700000  
C   -0.8887526   -0.7456559    2.3478473  
C   -0.4549825   -0.3816753    3.7138435  
N    0.5448156    0.4573574    3.6934124  
C   -1.0945674   -0.9182058    4.8835240  
C   -2.1210866   -1.7789155    4.6970523  
O   -2.8083856   -2.3554314    5.6976972  
C   -2.5824069   -2.1655116    3.3310774  
O   -3.5227682   -2.9541547    3.2362962  
C   -1.9100805   -1.6015804    2.1470656  
H   -0.7567140   -0.6349833    5.8697035  
H   -3.4728268   -2.9124471    5.2533954  
H   -2.2742832   -1.9066565    1.1752040  
H    1.6189533    1.3585343    2.0405121  
