60

C    3.3003545    0.0005275   -1.4738985  
C    2.5232816    0.0003498   -2.6090745  
C    1.1623201   -0.0001318   -2.1820100  
C    1.1711884    0.0000584   -0.7636138  
N    2.4852303   -0.0014918   -0.3662355  
C    0.0000000    0.0000000    0.0000000  
C   -1.2020383    0.0000520   -0.6806475  
O   -2.3759247    0.0003495    0.0157748  
C   -1.2314656   -0.0005111   -2.0955504  
O   -2.5054387   -0.0008035   -2.6250179  
C   -0.0764515   -0.0007273   -2.8495193  
H    2.8919956   -0.0005620   -3.6205297  
H    2.8036266    0.0088180    0.5858667  
H   -3.0835637    0.0000349   -0.6418815  
H   -2.4360046   -0.0011526   -3.5845919  
H    4.3715550    0.0004893   -1.3667129  
C    2.3339072   -2.1433066   -5.7798814  
C    1.7884039   -1.7364551   -6.9497006  
C    0.7199610   -0.8255803   -6.5686008  
C    0.7627111   -0.7984773   -5.0907571  
N    1.7068232   -1.5689207   -4.6227199  
C   -0.1496414   -0.0015612   -4.3176957  
C   -1.0629248    0.7351038   -4.9904306  
O   -1.9749198    1.5241139   -4.3973303  
C   -1.1310647    0.7291946   -6.4815657  
O   -1.9881487    1.4239795   -7.0273692  
C   -0.1842217   -0.0965591   -7.2519837  
H    2.0756490   -2.0194342   -7.9479435  
H   -2.4796306    1.9159033   -5.1328036  
H    3.1560524   -2.8253865   -5.6321748  
C    0.1490486   -3.2391652  -10.3357135  
C    0.1129403   -2.5557387   -9.1628112  
C   -0.1549270   -1.1747513   -9.4883198  
C   -0.2727893   -1.1091825  -10.9575372  
N   -0.0779395   -2.3934685  -11.4108938  
C   -0.5245837    0.0250527  -11.6588324  
C   -0.6903613    1.2639628  -10.9171089  
O   -0.9197779    2.3381309  -11.4573225  
C   -0.5693833    1.2179366   -9.3604936  
O   -0.7067589    2.2547398   -8.7253332  
C   -0.2957794   -0.0648046   -8.7174008  
H    0.2576385   -2.9715405   -8.1815948  
H   -0.6073142    0.0514086  -12.7365023  
H    0.3225970   -4.2894400  -10.5051059  
H   -0.0995258   -2.6736525  -12.3742624  
C    0.8175213    0.6860729    2.3021913  
C    0.0000000    0.0000000    1.4700000  
C   -0.8887526   -0.7456559    2.3478473  
C   -0.4549825   -0.3816753    3.7138435  
N    0.5448156    0.4573574    3.6934124  
C   -1.0945674   -0.9182058    4.8835240  
C   -2.1210866   -1.7789155    4.6970523  
O   -2.8083856   -2.3554314    5.6976972  
C   -2.5824069   -2.1655116    3.3310774  
O   -3.5227682   -2.9541547    3.2362962  
C   -1.9100805   -1.6015804    2.1470656  
H   -0.7567140   -0.6349833    5.8697035  
H   -3.4728268   -2.9124471    5.2533954  
H   -2.2742832   -1.9066565    1.1752040  
H    1.6189533    1.3585343    2.0405121  
