62

C    3.3003547    0.0005275   -1.4738980  
C    2.5232816    0.0003495   -2.6090742  
C    1.1623206   -0.0001320   -2.1820096  
C    1.1711889    0.0000583   -0.7636136  
N    2.4852300   -0.0014920   -0.3662353  
C    0.0000000    0.0000000    0.0000000  
C   -1.2020382    0.0000519   -0.6806479  
O   -2.3759247    0.0003494    0.0157745  
C   -1.2314650   -0.0005113   -2.0955508  
O   -2.5054383   -0.0008037   -2.6250181  
C   -0.0764510   -0.0007273   -2.8495192  
H    2.8919962   -0.0005621   -3.6205295  
H    2.8036265    0.0088181    0.5858667  
H   -3.0835641    0.0000347   -0.6418820  
H   -2.4360047   -0.0011529   -3.5845921  
C    6.5907968    0.0004118   -4.4182867  
C    5.3731496    0.0003983   -3.8171125  
C    5.6071060    0.0003103   -2.3922969  
C    7.0713653    0.0003027   -2.2113673  
N    7.6095207   -0.0000327   -3.4775735  
C    7.6973073    0.0006258   -1.0072490  
C    6.8738985    0.0007804    0.1904707  
O    7.3427981    0.0010092    1.3211495  
C    5.3209696    0.0005394    0.0224896  
O    4.6174382    0.0003600    1.0236411  
C    4.7630506    0.0004754   -1.3275394  
H    4.4198603    0.0002623   -4.3149615  
H    8.7727856    0.0007440   -0.8965445  
H    6.8296430    0.0004925   -5.4694015  
H    8.5911171    0.0014367   -3.6861718  
C    0.6255550   -0.6879834   -5.1891748  
C   -0.1496409   -0.0015614   -4.3176961  
C   -1.0811315    0.7434624   -5.1506208  
C   -0.7158460    0.3787721   -6.5363162  
N    0.2838792   -0.4600984   -6.5652203  
C   -1.4129707    0.9145424   -7.6730016  
C   -2.4290864    1.7752033   -7.4361333  
O   -3.1654571    2.3510478   -8.4016397  
C   -2.8218931    2.1625050   -6.0491002  
O   -3.7565099    2.9510602   -5.9080577  
C   -2.0913489    1.5993469   -4.8997161  
H   -1.1245867    0.6308112   -8.6746207  
H   -3.8070523    2.9082157   -7.9251188  
H   -2.4067664    1.9049196   -3.9110975  
H    1.4391420   -1.3601755   -4.9673468  
C    0.8576279    0.7185626    2.2703808  
C    0.0000000    0.0000000    1.4700000  
C   -0.8668858   -0.7285659    2.3373528  
C   -0.4876752   -0.4117774    3.6669281  
N    0.5635254    0.4678311    3.5902241  
C   -1.1297612   -0.9515493    4.7854808  
C   -2.1738724   -1.8268314    4.5576857  
O   -2.8357962   -2.3827064    5.6140350  
C   -2.5667212   -2.1555554    3.2384331  
O   -3.6226318   -3.0413663    3.1773122  
C   -1.9335634   -1.6236449    2.1344818  
H    1.0363952    0.8769718    4.3757045  
H   -0.8454472   -0.7142436    5.8013813  
H   -3.5178062   -2.9546422    5.2385129  
H   -3.8247440   -3.2102924    2.2519915  
H   -2.2566033   -1.8942483    1.1360343  
H    1.6567807    1.3889844    2.0042067  
