60

C    1.1188647    0.0008222   -0.8003809  
C    0.0000000    0.0000000    0.0000000  
C   -1.1323858    0.0008897   -0.8673529  
C   -0.6382654    0.0019677   -2.1969285  
N    0.7324023    0.0038481   -2.1202242  
C   -1.4770906    0.0027315   -3.3154813  
C   -2.8395469    0.0020940   -3.0876862  
O   -3.7039191    0.0024420   -4.1440354  
C   -3.3517865    0.0013925   -1.7684334  
O   -4.7300487    0.0012361   -1.7073134  
C   -2.5248542    0.0009120   -0.6644822  
H   -1.1067563    0.0036985   -4.3313815  
H   -4.5940025    0.0021823   -3.7685139  
H   -4.9934597    0.0007257   -0.7819921  
H   -2.9462573    0.0005599    0.3339647  
H    2.1619897    0.0009356   -0.5342067  
C    4.5154630   -2.1146754   -2.8156717  
C    4.7985782   -1.6646934   -4.0652465  
C    3.7280663   -0.7729176   -4.4441600  
C    2.7913715   -0.7399860   -3.3047266  
N    3.3260549   -1.5745769   -2.3505458  
C    1.6478442   -0.0100100   -3.2703000  
C    1.3174732    0.7969139   -4.4331690  
O    0.3100026    1.4889655   -4.4992703  
C    2.2949961    0.7769789   -5.6513050  
O    2.0272072    1.4520882   -6.6360779  
C    3.4969332   -0.0492778   -5.5706860  
H    5.6590353   -1.9276269   -4.6543934  
H    5.0755446   -2.7955783   -2.1955354  
H    2.9164740   -1.7608863   -1.4535624  
C    5.0726768   -1.1163084   -7.2492567  
C    4.4099732   -0.0603058   -6.7226998  
C    4.7965986    1.0741842   -7.5472929  
C    5.7224315    0.5069766   -8.5511322  
N    5.8880736   -0.7766800   -8.3814916  
C    6.3347502    1.3193107   -9.5661511  
C    6.0354553    2.6382556   -9.5780444  
O    6.5342447    3.5130823  -10.4679473  
C    5.1044672    3.2404506   -8.5786526  
O    4.8776099    4.4482575   -8.6490697  
C    4.4891251    2.3862401   -7.5473412  
H    7.0076976    0.8783200  -10.2869692  
H    6.1394725    4.3691535  -10.2220824  
H    3.8202407    2.8607583   -6.8418935  
H    5.0531449   -2.1433609   -6.9209950  
C    0.8175213    0.6860729    2.3021913  
C    0.0000000    0.0000000    1.4700000  
C   -0.8887526   -0.7456559    2.3478473  
C   -0.4549825   -0.3816753    3.7138435  
N    0.5448156    0.4573574    3.6934124  
C   -1.0945674   -0.9182058    4.8835240  
C   -2.1210866   -1.7789155    4.6970523  
O   -2.8083856   -2.3554314    5.6976972  
C   -2.5824069   -2.1655116    3.3310774  
O   -3.5227682   -2.9541547    3.2362962  
C   -1.9100805   -1.6015804    2.1470656  
H   -0.7567140   -0.6349833    5.8697035  
H   -3.4728268   -2.9124471    5.2533954  
H   -2.2742832   -1.9066565    1.1752040  
H    1.6189533    1.3585343    2.0405121  
