62

C   -3.3000858   -0.0420369   -1.4739007  
C   -2.5230754   -0.0320855   -2.6090763  
C   -1.1622279   -0.0144870   -2.1820107  
C   -1.1710945   -0.0147886   -0.7636148  
N   -2.4850515   -0.0297654   -0.3662375  
C    0.0000000    0.0000000    0.0000000  
C    1.2019447    0.0150663   -0.6806468  
O    2.3757414    0.0295330    0.0157761  
C    1.2313639    0.0159994   -2.0955502  
O    2.5052322    0.0323149   -2.6250163  
C    0.0764385    0.0016885   -2.8495194  
H   -2.8917711   -0.0358114   -3.6205317  
H   -2.8032936   -0.0440792    0.5858646  
H    3.0833215    0.0387477   -0.6418798  
H    2.4358009    0.0317906   -3.5845906  
H    0.1303849    0.0029820   -3.9319085  
C   -6.6258339   -0.0865808   -4.4617214  
C   -5.3876554   -0.0710046   -3.8624401  
C   -5.6072001   -0.0720491   -2.4530434  
C   -7.0109863   -0.0889966   -2.2504990  
N   -7.5996604   -0.0955262   -3.4906752  
C   -7.5915647   -0.0949249   -0.9786176  
C   -6.7395037   -0.0838442    0.1086024  
O   -7.2532385   -0.0893285    1.3731419  
C   -5.3361135   -0.0665118   -0.0730925  
O   -4.6228244   -0.0566848    1.1077829  
C   -4.7626664   -0.0603814   -1.3275431  
H   -4.4424937   -0.0591112   -4.3777273  
H   -8.6607173   -0.1076821   -0.8175253  
H   -6.4975622   -0.0794284    1.9749050  
H   -3.6843739   -0.0451938    0.8961654  
H   -6.8913822   -0.0905719   -5.5049985  
C   -9.7107798   -0.8318243   -4.6907417  
C   -9.0473048   -0.1282708   -3.7439621  
C  -10.0814540    0.5966822   -3.0218282  
C  -11.3438733    0.2028343   -3.6834670  
N  -11.1328986   -0.6344511   -4.6624625  
C  -12.6178531    0.7124833   -3.2564778  
C  -12.6301562    1.5760202   -2.2155709  
O  -13.7467779    2.1293583   -1.7125666  
C  -11.3730066    1.9924477   -1.5268604  
O  -11.4591635    2.7819869   -0.5864213  
C  -10.0786653    1.4557594   -1.9835561  
H  -13.5245474    0.4077300   -3.7584146  
H  -13.4360577    2.6954125   -0.9830543  
H   -9.1910950    1.7820135   -1.4581918  
H   -9.3000949   -1.4974211   -5.4332325  
C    2.5528530    2.1414826    2.8079335  
C    2.0663498    1.7338582    4.0032312  
C    0.9804344    0.8229586    3.6752840  
C    0.9495562    0.7966882    2.1971295  
N    1.8690446    1.5676019    1.6831036  
C    0.0000000    0.0000000    1.4700000  
C   -0.8785127   -0.7372425    2.1869543  
O   -1.8187535   -1.5261249    1.6395491  
C   -0.8723269   -0.7321790    3.6796354  
O   -1.7010379   -1.4274584    4.2670412  
C    0.1115397    0.0933559    4.4024240  
H    2.4028853    2.0163452    4.9860947  
H   -2.2861435   -1.9184361    2.3990168  
H    0.0832434    0.0693689    5.4835595  
H    3.3664920    2.8238276    2.6198634  
