58

C    0.2055739   -0.7043959   -5.1603477  
C   -0.8712826    0.0001710   -4.7267111  
C   -1.3726447    0.7423359   -5.8592582  
C   -0.4933186    0.4099884   -6.9964127  
N    0.4429028   -0.4710986   -6.5064482  
C   -0.6357679    0.9095507   -8.2501475  
C   -1.7278975    1.8365869   -8.4958965  
O   -1.9397499    2.3410845   -9.5908403  
C   -2.6713157    2.2028687   -7.3061049  
O   -3.5940523    2.9825344   -7.5008824  
C   -2.4172085    1.5997592   -6.0001415  
H    0.0202135    0.6527125   -9.0702891  
H   -3.0751241    1.8584032   -5.1816215  
H    0.8458871   -1.3742665   -4.6097462  
C    1.9558952   -2.3891629   -7.1921951  
C    2.9763095   -2.6368521   -8.0532869  
C    3.2341092   -1.4074699   -8.7653225  
C    2.2733726   -0.4161343   -8.2447173  
N    1.5273207   -1.0743986   -7.2944628  
C    2.1949418    0.8722496   -8.6637886  
C    3.1182398    1.3118393   -9.6966568  
O    3.1268621    2.4524178  -10.1408492  
C    4.1440352    0.2787465  -10.2625786  
O    4.9261671    0.6372240  -11.1326497  
C    4.1325297   -1.0819136   -9.7312368  
H    3.4896939   -3.5738870   -8.1758262  
H    1.4828374    1.5833836   -8.2686869  
H    4.8461027   -1.7910852  -10.1282421  
H    1.4807850   -3.0565498   -6.4916563  
C    1.0965514    0.0001359   -0.8010305  
C    0.0000000    0.0000000    0.0000000  
C   -1.1546563    0.0001470   -0.8669513  
C   -0.6372014    0.0003519   -2.2486282  
N    0.7342871    0.0007337   -2.1395014  
C   -1.4147739    0.0001352   -3.3608717  
C   -2.8576049   -0.0001048   -3.1854462  
O   -3.6427779   -0.0002494   -4.1244907  
C   -3.4275840   -0.0000725   -1.7311666  
O   -4.6406831    0.0000333   -1.5710060  
C   -2.4891867   -0.0001091   -0.6116744  
H   -2.8919122   -0.0002918    0.3920866  
H    2.1388272    0.0000663   -0.5261648  
H    1.3735872   -0.0006099   -2.9130262  
C    0.8175213    0.6860729    2.3021913  
C    0.0000000    0.0000000    1.4700000  
C   -0.8887526   -0.7456559    2.3478473  
C   -0.4549825   -0.3816753    3.7138435  
N    0.5448156    0.4573574    3.6934124  
C   -1.0945674   -0.9182058    4.8835240  
C   -2.1210866   -1.7789155    4.6970523  
O   -2.8083856   -2.3554314    5.6976972  
C   -2.5824069   -2.1655116    3.3310774  
O   -3.5227682   -2.9541547    3.2362962  
C   -1.9100805   -1.6015804    2.1470656  
H   -0.7567140   -0.6349833    5.8697035  
H   -3.4728268   -2.9124471    5.2533954  
H   -2.2742832   -1.9066565    1.1752040  
H    1.6189533    1.3585343    2.0405121  
