60

C    3.3003540    0.0005278   -1.4738998  
C    2.5232805    0.0003501   -2.6090759  
C    1.1623190   -0.0001315   -2.1820106  
C    1.1711880    0.0000584   -0.7636147  
N    2.4852300   -0.0014918   -0.3662366  
C    0.0000000    0.0000000    0.0000000  
C   -1.2020387    0.0000521   -0.6806476  
O   -2.3759253    0.0003495    0.0157752  
C   -1.2314666   -0.0005110   -2.0955505  
O   -2.5054395   -0.0008035   -2.6250174  
C   -0.0764524   -0.0007269   -2.8495195  
H    2.8919942   -0.0005615   -3.6205312  
H    2.8036265    0.0088181    0.5858650  
H   -3.0835639    0.0000348   -0.6418810  
H   -2.4360058   -0.0011523   -3.5845915  
C    0.6503137   -0.7058441   -5.1591997  
C   -0.1496428   -0.0015607   -4.3176960  
C   -1.0769634    0.7392938   -5.1399167  
C   -0.7493514    0.4064861   -6.5394521  
N    0.3066291   -0.4735887   -6.4823321  
C   -1.4003426    0.9048532   -7.6209074  
C   -2.4966998    1.8309964   -7.3911354  
O   -3.1448416    2.3343959   -8.2993216  
C   -2.8607685    2.1977452   -5.9171087  
O   -3.7817321    2.9766681   -5.7112803  
C   -2.0864171    1.5959463   -4.8344874  
H   -1.1442244    0.6476967   -8.6393293  
H   -2.3449694    1.8549059   -3.8167374  
H    1.4621417   -1.3748322   -4.9240836  
H    0.7568381   -0.8854573   -7.2790271  
C    4.7630502    0.0004759   -1.3275418  
C    5.6984991    0.0014508   -2.3055565  
C    6.9735489    0.0008553   -1.6050227  
C    6.6111488   -0.0004093   -0.1714090  
N    5.3167467   -0.0007178   -0.0025536  
C    7.6066074   -0.0013505    0.8650018  
C    8.9050791   -0.0014312    0.4864421  
O    9.9376484   -0.0022573    1.3465822  
C    9.3027476   -0.0005442   -0.9523141  
O   10.5033612   -0.0005486   -1.2238793  
C    8.2629691    0.0004566   -1.9967202  
H    5.5425438    0.0023604   -3.3708044  
H    7.3132519   -0.0020603    1.9046420  
H   10.7311765   -0.0021134    0.7813691  
H    8.5922696    0.0009646   -3.0271525  
C    0.8400945    0.7047457    2.2710304  
C    0.0000000    0.0000000    1.4700000  
C   -0.8844236   -0.7423113    2.3369512  
C   -0.4878984   -0.4098547    3.7186280  
N    0.5629682    0.4714286    3.6095011  
C   -1.0836927   -0.9095027    4.8308716  
C   -2.1891196   -1.8367527    4.6554461  
O   -2.7906899   -2.3413415    5.5944904  
C   -2.6257283   -2.2031529    3.2011665  
O   -3.5549479   -2.9829990    3.0410059  
C   -1.9068976   -1.5999348    2.0816745  
H   -0.7774656   -0.6525820    5.8354244  
H   -2.2155208   -1.8586617    1.0779135  
H    1.6384792    1.3747609    1.9961646  
H    1.0518368    0.8833920    4.3830260  
