58

C    3.2573678   -0.0002919   -1.5109373  
C    2.5379468   -0.0001706   -0.3591954  
C    1.1435045    0.0000332   -0.7338494  
C    1.1092616   -0.0000083   -2.2088474  
N    2.4227573    0.0001909   -2.6182603  
C   -0.0265521   -0.0002524   -2.9515662  
C   -1.3003027   -0.0002640   -2.2514981  
O   -2.3786774   -0.0004131   -2.8306438  
C   -1.2877723    0.0000312   -0.6895612  
O   -2.3539951    0.0003306   -0.0892047  
C    0.0000000    0.0000000    0.0000000  
H    2.9384090   -0.0000365    0.6389246  
H   -0.0296275   -0.0004088   -4.0327232  
H    4.3270401   -0.0004765   -1.6439427  
C    3.9018586   -0.6890598   -4.5615347  
C    2.8699655   -0.0020526   -4.0185813  
C    2.2904561    0.7418983   -5.1263747  
C    3.1192068    0.3760112   -6.2950844  
N    4.0653378   -0.4625798   -5.9701355  
C    2.8658217    0.9104935   -7.6047448  
C    1.8312933    1.7710660   -7.7407617  
O    1.4810339    2.3457724   -8.9039780  
C    0.9763066    2.1595573   -6.5804890  
O    0.0517412    2.9479590   -6.7775250  
C    1.2565191    1.5977096   -5.2471726  
H    0.7129611    2.9031933   -8.6837540  
H    0.6139389    1.9041193   -4.4326584  
H    4.5856444   -1.3607925   -4.0673834  
C    4.1972008   -0.7200587   -8.9935327  
C    3.7120263    0.5232212   -8.7426628  
C    4.1859868    1.3818285   -9.8023758  
C    4.9928176    0.5307443  -10.6976229  
N    4.9602673   -0.7315238  -10.1512630  
C    5.6159194    0.9696720  -11.8204726  
C    5.4832257    2.3740958  -12.1705036  
O    6.0065182    2.8658232  -13.1618003  
C    4.6336472    3.2938029  -11.2366077  
O    4.5150408    4.4780122  -11.5209342  
C    4.0096786    2.7053336  -10.0541442  
H    6.2029421    0.3287287  -12.4635168  
H    3.4229185    3.3488559   -9.4128062  
H    4.0616832   -1.6288419   -8.4299395  
H    5.4184116   -1.5374194  -10.5355576  
C    2.3971438    2.0127888    3.1728260  
C    1.9431056    1.6308205    1.9564670  
C    0.8496017    0.7127664    2.2356185  
C    0.7794028    0.6545384    3.7115134  
N    1.6840587    1.4146091    4.2663826  
C   -0.1885723   -0.1578550    4.3957118  
C   -1.0476298   -0.8789867    3.6398520  
O   -2.0015663   -1.6796266    4.1448486  
C   -1.0022026   -0.8410666    2.1483229  
O   -1.8147390   -1.5232959    1.5241687  
C    0.0000000    0.0000000    1.4700000  
H    2.3054237    1.9346118    0.9892483  
H   -0.2170646   -0.1815267    5.4753125  
H   -2.4487139   -2.0549881    3.3649027  
H    3.2048689    2.6911772    3.3971983  
