58

C    2.8912669   -0.6998115   -3.3332351  
C    1.7334695    0.0049281   -3.2500363  
C    1.6041098    0.7488997   -4.4807302  
C    2.7899380    0.4174240   -5.2935810  
N    3.5303611   -0.4649345   -4.5411804  
C    3.0393019    0.9187051   -6.5298007  
C    2.0755503    1.8468034   -7.0975613  
O    2.2101242    2.3528617   -8.2039496  
C    0.8125759    2.2121889   -6.2542374  
O   -0.0056411    2.9927351   -6.7217067  
C    0.6534233    1.6072169   -4.9341877  
H    3.9152832    0.6624810   -7.1093829  
H   -0.2239004    1.8652502   -4.3567398  
H    3.3315067   -1.3708305   -2.6136436  
C    5.1803175   -2.3831415   -4.7322045  
C    6.4157122   -2.6304123   -5.2388911  
C    6.8799249   -1.4002859   -5.8356588  
C    5.8060216   -0.4089697   -5.6336359  
N    4.8041503   -1.0679540   -4.9591845  
C    5.8603273    0.8800086   -6.0546948  
C    7.0561904    1.3203044   -6.7536840  
O    7.2010210    2.4614505   -7.1721456  
C    8.2059113    0.2872452   -6.9789284  
O    9.2174340    0.6463147   -7.5664239  
C    8.0315322   -1.0740930   -6.4787261  
H    6.9416914   -3.5676379   -5.1992916  
H    5.0615049    1.5911163   -5.8962072  
H    8.8323370   -1.7832369   -6.6385717  
H    4.5129539   -3.0511101   -4.2122684  
C    1.1319246    0.0015678   -0.8009268  
C    0.7969914    0.0034958   -2.1169401  
C   -0.6453340    0.0035696   -2.1842669  
C   -1.1266832    0.0015410   -0.7896025  
N    0.0000000    0.0000000    0.0000000  
C   -2.4346129    0.0013913   -0.4276292  
C   -3.4350111    0.0031335   -1.4820181  
O   -4.6384614    0.0030875   -1.2583914  
C   -2.9478961    0.0050442   -2.9661074  
O   -3.7809382    0.0062135   -3.8623773  
C   -1.5113825    0.0053055   -3.2312122  
H   -2.7664565    0.0000174    0.6013448  
H   -1.1823533    0.0068381   -4.2614848  
H    2.1104316    0.0009435   -0.3488059  
C    2.5528530    2.1414826    2.8079335  
C    2.0663498    1.7338582    4.0032312  
C    0.9804344    0.8229586    3.6752840  
C    0.9495562    0.7966882    2.1971295  
N    1.8690446    1.5676019    1.6831036  
C    0.0000000    0.0000000    1.4700000  
C   -0.8785127   -0.7372425    2.1869543  
O   -1.8187535   -1.5261249    1.6395491  
C   -0.8723269   -0.7321790    3.6796354  
O   -1.7010379   -1.4274584    4.2670412  
C    0.1115397    0.0933559    4.4024240  
H    2.4028853    2.0163452    4.9860947  
H   -2.2861435   -1.9184361    2.3990168  
H    0.0832434    0.0693689    5.4835595  
H    3.3664920    2.8238276    2.6198634  
