62

C    3.3003537    0.0005277   -1.4739000  
C    2.5232799    0.0003499   -2.6090757  
C    1.1623189   -0.0001317   -2.1820106  
C    1.1711885    0.0000585   -0.7636144  
N    2.4852295   -0.0014918   -0.3662368  
C    0.0000000    0.0000000    0.0000000  
C   -1.2020393    0.0000521   -0.6806474  
O   -2.3759254    0.0003495    0.0157755  
C   -1.2314656   -0.0005110   -2.0955503  
O   -2.5054398   -0.0008034   -2.6250168  
C   -0.0764531   -0.0007269   -2.8495194  
H    2.8919938   -0.0005616   -3.6205312  
H    2.8036265    0.0088181    0.5858651  
H   -3.0835643    0.0000349   -0.6418807  
H   -2.4360069   -0.0011524   -3.5845912  
H   -0.1304110   -0.0013418   -3.9319084  
C    6.5907940    0.0004125   -4.4182901  
C    5.3731470    0.0003988   -3.8171156  
C    5.6071040    0.0003106   -2.3923001  
C    7.0713633    0.0003030   -2.2113713  
N    7.6095187   -0.0000323   -3.4775776  
C    7.6973063    0.0006260   -1.0072532  
C    6.8738980    0.0007803    0.1904669  
O    7.3427984    0.0010090    1.3211452  
C    5.3209689    0.0005394    0.0224868  
O    4.6174387    0.0003599    1.0236386  
C    4.7630496    0.0004757   -1.3275420  
H    4.4198578    0.0002628   -4.3149641  
H    6.8296397    0.0004931   -5.4694055  
H    8.5911147    0.0014371   -3.6861768  
C    9.1595802    0.0007866   -0.8567347  
C   10.1488913    0.0018681   -1.8126267  
C   11.3962901    0.0021264   -1.1208202  
C   11.1026110    0.0008750    0.2668675  
N    9.7355241    0.0020354    0.3921191  
C   12.0964861    0.0004451    1.2502299  
C   13.4107696    0.0009868    0.8249825  
O   14.4207884    0.0002515    1.7430652  
C   13.7238866    0.0026100   -0.5551525  
O   15.0782618    0.0033883   -0.8178485  
C   12.7439182    0.0033082   -1.5258161  
H    9.9909228    0.0035100   -2.8775382  
H    9.2323211   -0.0090090    1.2608232  
H   11.8792270   -0.0003634    2.3094750  
H   15.2461351    0.0011078    1.2410034  
H   15.2030457    0.0044499   -1.7718043  
H   13.0142543    0.0047362   -2.5752894  
C    0.0000000    0.0000000    1.4700000  
C    1.0662921    0.0000102    2.3034270  
C    0.4961870   -0.0000064    3.6418889  
C   -0.9663858    0.0000850    3.4240247  
N   -1.2632773    0.0000084    2.1528658  
C   -1.8985362    0.0000517    4.5177257  
C   -1.3925775   -0.0004564    5.7720543  
O   -2.1456383   -0.0005410    6.8851312  
C    0.0786232   -0.0009323    6.0245000  
O    0.4683759   -0.0012588    7.1921102  
C    1.0143166   -0.0008442    4.8859032  
H    2.1107198   -0.0000632    2.0421868  
H   -2.9622183    0.0003270    4.3293377  
H   -1.5042274   -0.0009692    7.6184419  
H    2.0724152   -0.0013148    5.1109744  
