62

C    3.3041272    0.0001177   -1.5420431  
C    2.5845370   -0.0004780   -0.3695856  
C    1.2040004   -0.0000008   -0.7283590  
C    1.1422372    0.0006037   -2.1454372  
N    2.4348639    0.0026111   -2.6077465  
C   -0.0655183    0.0008798   -2.8497916  
C   -1.2321770    0.0002324   -2.1101397  
O   -2.4392813    0.0001147   -2.7472520  
C   -1.1911211   -0.0000007   -0.6955262  
O   -2.4371526   -0.0002320   -0.1032861  
C    0.0000000    0.0000000    0.0000000  
H    3.0031535   -0.0000661    0.6222581  
H    2.7054628   -0.0071098   -3.5745262  
H   -3.1132988   -0.0000650   -2.0551783  
H   -2.3200283   -0.0004072    0.8516412  
C    0.6611979   -0.7016925   -5.1602634  
C   -0.1387085    0.0017018   -4.3179686  
C   -1.0659757    0.7435466   -5.1393559  
C   -0.7383875    0.4122891   -6.5392645  
N    0.3175303   -0.4679251   -6.4831333  
C   -1.3893429    0.9119183   -7.6201588  
C   -2.4856335    1.8378811   -7.3893459  
O   -3.1337393    2.3423480   -8.2969656  
C   -2.8496763    2.2029987   -5.9149073  
O   -3.7705841    2.9817557   -5.7082045  
C   -2.0753680    1.5999277   -4.8329633  
H   -1.1332425    0.6558886   -8.6388694  
H   -2.3339020    1.8577613   -3.8149230  
H    1.4729779   -1.3710026   -4.9258989  
H    0.7677096   -0.8789301   -7.2802914  
C    5.7396279   -0.0009029   -0.8296830  
C    4.7577221    0.0005130   -1.7610465  
C    5.4529346    0.0023818   -3.0390038  
C    6.8880473    0.0019129   -2.6825830  
N    7.0622971   -0.0000910   -1.3888974  
C    7.9203001    0.0033443   -3.6823523  
C    7.5363318    0.0047726   -4.9792335  
O    8.3921606    0.0062107   -6.0153777  
C    6.0959299    0.0049096   -5.3709018  
O    5.8193624    0.0063725   -6.5703718  
C    5.0558664    0.0034672   -4.3267796  
H    8.9611542    0.0031679   -3.3933327  
H    7.8236449    0.0069709   -6.8065427  
H    4.0240706    0.0035016   -4.6517825  
H    5.6367315   -0.0024969    0.2438081  
C    0.0000000    0.0000000    1.4700000  
C    1.0521667    0.0011902    2.3562342  
C    0.4917218    0.0011957    3.6679131  
C   -0.9187428   -0.0003148    3.5178682  
N   -1.1833171    0.0009411    2.1707914  
C   -1.7951701   -0.0010350    4.6072090  
C   -1.2375837   -0.0005224    5.8710424  
O   -2.0474215   -0.0015360    6.9697579  
C    0.1673580    0.0013566    6.0411963  
O    0.5673524    0.0020687    7.3615553  
C    1.0325770    0.0023412    4.9669890  
H    2.0953057    0.0030649    2.0900562  
H   -2.0989778   -0.0102372    1.7591824  
H   -2.8710934   -0.0020419    4.4995513  
H   -1.4634884   -0.0006497    7.7393593  
H    1.5290710    0.0033153    7.3880045  
H    2.1042148    0.0039609    5.1284455  
