58

C   -3.2572691   -0.0253752   -1.5109369  
C   -2.5378701   -0.0198273   -0.3591951  
C   -1.1434695   -0.0090437   -0.7338495  
C   -1.1092277   -0.0087325   -2.2088470  
N   -2.4226807   -0.0192816   -2.6182597  
C    0.0265492    0.0004614   -2.9515661  
C    1.3002601    0.0105098   -2.2514981  
O    2.3785993    0.0191564   -2.8306436  
C    1.2877313    0.0101160   -0.6895611  
O    2.3539251    0.0182181   -0.0892044  
C    0.0000000    0.0000000    0.0000000  
H   -2.9383180   -0.0231170    0.6389248  
H    0.0296226    0.0006417   -4.0327229  
H   -2.7279771   -0.0201558   -3.5742104  
C   -6.6172423   -0.0537774    1.3537108  
C   -5.3855714   -0.0437875    0.7819048  
C   -5.5853002   -0.0443336   -0.6481105  
C   -7.0447573   -0.0555115   -0.8640960  
N   -7.6130908   -0.0612190    0.3888425  
C   -7.6416410   -0.0588925   -2.0828754  
C   -6.7897852   -0.0512214   -3.2605080  
O   -7.2314356   -0.0535501   -4.4021032  
C   -5.2413743   -0.0395930   -3.0553413  
O   -4.5140675   -0.0333711   -4.0393366  
C   -4.7159920   -0.0366183   -1.6923239  
H   -4.4445174   -0.0370125    1.3024670  
H   -8.7141259   -0.0669999   -2.2193342  
H   -6.8812084   -0.0565459    2.3987966  
C   -9.0578649   -0.0704951    0.6598453  
C   -9.6804133   -0.0749695    1.8615074  
C  -11.1010078   -0.0838463    1.5479272  
C  -11.1565152   -0.0834424    0.0702593  
N   -9.9619028   -0.0757133   -0.4558889  
C  -12.4032940   -0.0910543   -0.6442836  
C  -13.5428177   -0.0991101    0.0842448  
O  -14.7756235   -0.1067655   -0.4507062  
C  -13.5197059   -0.1001104    1.5767680  
O  -14.5954243   -0.1075217    2.1750955  
C  -12.2281494   -0.0921578    2.2865165  
H   -9.2311106   -0.0726358    2.8398722  
H  -12.4142347   -0.0903629   -1.7244640  
H  -15.3781003   -0.1113552    0.3149002  
H  -12.2542896   -0.0932801    3.3679716  
C    0.0000000    0.0000000    1.4700000  
C    1.0662921    0.0000102    2.3034270  
C    0.4961870   -0.0000064    3.6418889  
C   -0.9663858    0.0000850    3.4240247  
N   -1.2632773    0.0000084    2.1528658  
C   -1.8985362    0.0000517    4.5177257  
C   -1.3925775   -0.0004564    5.7720543  
O   -2.1456383   -0.0005410    6.8851312  
C    0.0786232   -0.0009323    6.0245000  
O    0.4683759   -0.0012588    7.1921102  
C    1.0143166   -0.0008442    4.8859032  
H    2.1107198   -0.0000632    2.0421868  
H   -2.9622183    0.0003270    4.3293377  
H   -1.5042274   -0.0009692    7.6184419  
H    2.0724152   -0.0013148    5.1109744  
