60

C    3.3003546    0.0005277   -1.4738991  
C    2.5232814    0.0003500   -2.6090751  
C    1.1623200   -0.0001317   -2.1820105  
C    1.1711884    0.0000584   -0.7636149  
N    2.4852301   -0.0014918   -0.3662360  
C    0.0000000    0.0000000    0.0000000  
C   -1.2020381    0.0000520   -0.6806482  
O   -2.3759249    0.0003494    0.0157741  
C   -1.2314658   -0.0005112   -2.0955513  
O   -2.5054389   -0.0008037   -2.6250183  
C   -0.0764516   -0.0007271   -2.8495197  
H    2.8919954   -0.0005617   -3.6205304  
H    2.8036264    0.0088181    0.5858648  
H   -3.0835636    0.0000347   -0.6418825  
H   -2.4360049   -0.0011526   -3.5845926  
H    4.3715554    0.0004896   -1.3667140  
C   -0.1496415   -0.0015610   -4.3176962  
C    0.8605985   -0.0020141   -5.2251600  
C    0.2508223   -0.0027517   -6.5339793  
C   -1.2079382   -0.0026617   -6.3130523  
N   -1.3844307   -0.0023261   -4.9485967  
C   -2.1356001   -0.0028338   -7.3035813  
C   -1.6659557   -0.0033535   -8.6790695  
O   -2.4225831   -0.0036047   -9.6412625  
C   -0.1253096   -0.0037095   -8.9363927  
O    0.2819504   -0.0044544  -10.0902555  
C    0.7762281   -0.0032001   -7.7870096  
H    1.9128695   -0.0020326   -5.0030345  
H   -3.2010530   -0.0026332   -7.1199510  
H   -2.2733178   -0.0006339   -4.4828456  
C    3.1582157   -0.7077104   -7.3513421  
C    2.2241539   -0.0032620   -8.0408031  
C    2.9253725    0.7386643   -9.0619173  
C    4.3547696    0.4063057   -8.9097595  
N    4.4287353   -0.4745589   -7.8554843  
C    5.3474348    0.9056720   -9.6888322  
C    4.9837685    1.8324938  -10.7477389  
O    5.8048377    2.3368059  -11.5025996  
C    3.4759373    2.1987831  -10.9268563  
O    3.1577327    2.9782699  -11.8147786  
C    2.4973778    1.5958956  -10.0253024  
H    6.3897794    0.6488297   -9.5605362  
H    1.4553991    1.8545431  -10.1560965  
H    3.0253349   -1.3773994   -6.5172263  
H    5.2750583   -0.8863622   -7.5073419  
C    2.5528530    2.1414826    2.8079335  
C    2.0663498    1.7338582    4.0032312  
C    0.9804344    0.8229586    3.6752840  
C    0.9495562    0.7966882    2.1971295  
N    1.8690446    1.5676019    1.6831036  
C    0.0000000    0.0000000    1.4700000  
C   -0.8785127   -0.7372425    2.1869543  
O   -1.8187535   -1.5261249    1.6395491  
C   -0.8723269   -0.7321790    3.6796354  
O   -1.7010379   -1.4274584    4.2670412  
C    0.1115397    0.0933559    4.4024240  
H    2.4028853    2.0163452    4.9860947  
H   -2.2861435   -1.9184361    2.3990168  
H    0.0832434    0.0693689    5.4835595  
H    3.3664920    2.8238276    2.6198634  
