60

C    1.1243413    0.0100079   -0.7919010  
C    0.7474070    0.0234651   -2.1148550  
C   -0.6787388    0.0234399   -2.1414702  
C   -1.1201747    0.0098438   -0.7935545  
N    0.0000000    0.0000000    0.0000000  
C   -2.4730817    0.0063369   -0.4408242  
C   -3.3971961    0.0170512   -1.4675056  
O   -4.7313521    0.0145605   -1.1793465  
C   -2.9763657    0.0303099   -2.8186320  
O   -4.0166484    0.0394565   -3.7247623  
C   -1.6418570    0.0335037   -3.1673482  
H    1.4178708    0.0311173   -2.9571212  
H   -2.8160165   -0.0041501    0.5845966  
H   -5.1938822    0.0230152   -2.0274380  
H   -3.6464686    0.0481796   -4.6127344  
H    2.1062466    0.0053110   -0.3505410  
C   -0.2339312   -0.6331207   -5.1704656  
C   -1.2456341    0.0471560   -4.5828766  
C   -1.8650203    0.8030657   -5.6605875  
C   -1.0790456    0.4507462   -6.8625437  
N   -0.1215984   -0.3908400   -6.5814426  
C   -1.3797858    0.9996517   -8.1561217  
C   -2.4187375    1.8610562   -8.2449812  
O   -2.8109953    2.4484903   -9.3882643  
C   -3.2312411    2.2360566   -7.0502540  
O   -4.1624961    3.0260431   -7.2048758  
C   -2.9028290    1.6595399   -5.7343140  
H   -3.5707074    3.0029504   -9.1341700  
H   -3.5155652    1.9564509   -4.8937021  
H    0.4674337   -1.3099070   -4.7089236  
C   -0.0992179   -0.6144919   -9.6103195  
C   -0.5752495    0.6256153   -9.3281787  
C   -0.1401395    1.4962814  -10.3946947  
C    0.6339301    0.6557304  -11.3280122  
N    0.6214398   -0.6125740  -10.7949667  
C    1.2158848    1.1075381  -12.4677067  
C    1.0703158    2.5156988  -12.7969926  
O    1.5572786    3.0187742  -13.8010267  
C    0.2549128    3.4244105  -11.8227420  
O    0.1258472    4.6116453  -12.0893419  
C   -0.3257190    2.8224047  -10.6251161  
H    1.7793763    0.4741674  -13.1386975  
H   -0.8890108    3.4583739   -9.9558108  
H   -0.2140569   -1.5295889   -9.0523775  
H    1.0655388   -1.4138525  -11.2045722  
C    2.3971438    2.0127888    3.1728260  
C    1.9431056    1.6308205    1.9564670  
C    0.8496017    0.7127664    2.2356185  
C    0.7794028    0.6545384    3.7115134  
N    1.6840587    1.4146091    4.2663826  
C   -0.1885723   -0.1578550    4.3957118  
C   -1.0476298   -0.8789867    3.6398520  
O   -2.0015663   -1.6796266    4.1448486  
C   -1.0022026   -0.8410666    2.1483229  
O   -1.8147390   -1.5232959    1.5241687  
C    0.0000000    0.0000000    1.4700000  
H    2.3054237    1.9346118    0.9892483  
H   -0.2170646   -0.1815267    5.4753125  
H   -2.4487139   -2.0549881    3.3649027  
H    3.2048689    2.6911772    3.3971983  
