58

C    3.2573678   -0.0002919   -1.5109373  
C    2.5379468   -0.0001706   -0.3591954  
C    1.1435045    0.0000332   -0.7338494  
C    1.1092616   -0.0000083   -2.2088474  
N    2.4227573    0.0001909   -2.6182603  
C   -0.0265521   -0.0002524   -2.9515662  
C   -1.3003027   -0.0002640   -2.2514981  
O   -2.3786774   -0.0004131   -2.8306438  
C   -1.2877723    0.0000312   -0.6895612  
O   -2.3539951    0.0003306   -0.0892047  
C    0.0000000    0.0000000    0.0000000  
H    2.9384090   -0.0000365    0.6389246  
H   -0.0296275   -0.0004088   -4.0327232  
H    4.3270401   -0.0004765   -1.6439427  
C    3.9018586   -0.6890598   -4.5615347  
C    2.8699655   -0.0020526   -4.0185813  
C    2.2904561    0.7418983   -5.1263747  
C    3.1192068    0.3760112   -6.2950844  
N    4.0653378   -0.4625798   -5.9701355  
C    2.8658217    0.9104935   -7.6047448  
C    1.8312933    1.7710660   -7.7407617  
O    1.4810339    2.3457724   -8.9039780  
C    0.9763066    2.1595573   -6.5804890  
O    0.0517412    2.9479590   -6.7775250  
C    1.2565191    1.5977096   -5.2471726  
H    0.7129611    2.9031933   -8.6837540  
H    0.6139389    1.9041193   -4.4326584  
H    4.5856444   -1.3607925   -4.0673834  
C    4.2143309   -0.7007338   -9.0276261  
C    3.7120263    0.5232212   -8.7426628  
C    4.1919594    1.3840572   -9.8127683  
C    4.9906599    0.4911255  -10.6795641  
N    5.0073425   -0.7322122  -10.2244205  
C    5.6456603    0.9688411  -11.8660913  
C    5.5086566    2.2789542  -12.1729600  
O    6.0649602    2.8597978  -13.2496154  
C    4.7088754    3.2053518  -11.3183845  
O    4.6272492    4.3856055  -11.6583248  
C    4.0466029    2.6912318  -10.1063613  
H    6.2231525    0.2940540  -12.4809691  
H    5.7899372    3.7929786  -13.1977642  
H    3.4764447    3.3944310   -9.5141950  
H    4.0865582   -1.6166508   -8.4728791  
C    0.0000000    0.0000000    1.4700000  
C    1.0662921    0.0000102    2.3034270  
C    0.4961870   -0.0000064    3.6418889  
C   -0.9663858    0.0000850    3.4240247  
N   -1.2632773    0.0000084    2.1528658  
C   -1.8985362    0.0000517    4.5177257  
C   -1.3925775   -0.0004564    5.7720543  
O   -2.1456383   -0.0005410    6.8851312  
C    0.0786232   -0.0009323    6.0245000  
O    0.4683759   -0.0012588    7.1921102  
C    1.0143166   -0.0008442    4.8859032  
H    2.1107198   -0.0000632    2.0421868  
H   -2.9622183    0.0003270    4.3293377  
H   -1.5042274   -0.0009692    7.6184419  
H    2.0724152   -0.0013148    5.1109744  
