62

C   -3.3038943    0.0393370   -1.5420411  
C   -2.5843474    0.0313399   -0.3695838  
C   -1.2039152    0.0143778   -0.7283583  
C   -1.1421651    0.0130359   -2.1454367  
N   -2.4347232    0.0264641   -2.6077452  
C    0.0655010   -0.0016619   -2.8497915  
C    1.2320853   -0.0149458   -2.1101404  
O    2.4391044   -0.0292420   -2.7472531  
C    1.1910344   -0.0142223   -0.6955271  
O    2.4369807   -0.0288701   -0.1032874  
C    0.0000000    0.0000000    0.0000000  
H   -3.0029384    0.0359268    0.6222598  
H   -2.7051871    0.0394155   -3.5745251  
H    0.1193268   -0.0029094   -3.9297474  
H    3.1130763   -0.0371110   -2.0551801  
H    2.3198683   -0.0272965    0.8516397  
C   -6.7063457    0.0835041    1.2828929  
C   -7.7130270    0.0942555    0.3453726  
C   -7.0880317    0.0853864   -0.9367751  
C   -5.6868838    0.0688582   -0.7166909  
N   -5.4896795    0.0700935    0.6418842  
C   -4.7573902    0.0562992   -1.7610435  
C   -5.2513492    0.0601949   -3.0510692  
O   -4.3878951    0.0480467   -4.1081002  
C   -6.6459767    0.0769890   -3.2909630  
O   -6.9797335    0.0792507   -4.6295988  
C   -7.5635209    0.0896583   -2.2611677  
H   -4.5958156    0.0498325    1.0985879  
H   -4.9327588    0.0536503   -4.9058197  
H   -7.9388724    0.0908978   -4.7038985  
H   -8.6257132    0.1025875   -2.4757799  
H   -6.7599221    0.0857865    2.3581062  
C   -9.9301222    2.2684763    3.4022913  
C  -11.2033636    1.8767634    3.1635529  
C  -11.1093936    0.9630294    2.0353864  
C   -9.6673070    0.9178763    1.7114563  
N   -8.9710199    1.6810555    2.5094106  
C   -9.1535942    0.1130726    0.6374563  
C  -10.0401745   -0.6138892   -0.0800646  
O   -9.7006362   -1.4085982   -1.1092353  
C  -11.5016740   -0.5897259    0.2225811  
O  -12.2508683   -1.2764455   -0.4719300  
C  -12.0039474    0.2438258    1.3293050  
H  -12.0960683    2.1714094    3.6882792  
H  -10.5427814   -1.7906006   -1.4158603  
H  -13.0693651    0.2337137    1.5164238  
H   -9.5754282    2.9473921    4.1613953  
C    0.8175213    0.6860729    2.3021913  
C    0.0000000    0.0000000    1.4700000  
C   -0.8887526   -0.7456559    2.3478473  
C   -0.4549825   -0.3816753    3.7138435  
N    0.5448156    0.4573574    3.6934124  
C   -1.0945674   -0.9182058    4.8835240  
C   -2.1210866   -1.7789155    4.6970523  
O   -2.8083856   -2.3554314    5.6976972  
C   -2.5824069   -2.1655116    3.3310774  
O   -3.5227682   -2.9541547    3.2362962  
C   -1.9100805   -1.6015804    2.1470656  
H   -0.7567140   -0.6349833    5.8697035  
H   -3.4728268   -2.9124471    5.2533954  
H   -2.2742832   -1.9066565    1.1752040  
H    1.6189533    1.3585343    2.0405121  
