58

C   -3.2798089    0.0016579   -1.4499641  
C   -2.5571155    0.0011927   -2.5996549  
C   -1.1637440    0.0006414   -2.2210358  
C   -1.1336964    0.0007955   -0.7459466  
N   -2.4483508    0.0018177   -0.3402713  
C    0.0000000    0.0000000    0.0000000  
C    1.2757365   -0.0008538   -0.6964419  
O    2.3524585   -0.0015451   -0.1142321  
C    1.2676485   -0.0007796   -2.2584084  
O    2.3355748   -0.0011872   -2.8557301  
C   -0.0181574   -0.0001633   -2.9516296  
H   -2.9547358    0.0014138   -3.5989097  
H   -0.0150804   -0.0003213   -4.0331626  
H   -2.7563631    0.0006030    0.6148069  
C   -6.4690095    0.0024495   -4.4192220  
C   -7.5790620    0.0026612   -3.6450370  
C   -7.0826152    0.0026685   -2.2775427  
C   -5.6103560    0.0023294   -2.4155185  
N   -5.2447516    0.0022804   -3.6686438  
C   -4.7390850    0.0022803   -1.2727270  
C   -5.3125310    0.0029464   -0.0477806  
O   -4.6211383    0.0029785    1.1046155  
C   -6.7952862    0.0036736    0.1242559  
O   -7.2479816    0.0041343    1.2689334  
C   -7.6676533    0.0036657   -1.0635576  
H   -5.3014924    0.0035545    1.8019464  
H   -8.7364289    0.0043198   -0.8963814  
H   -6.4103425    0.0023834   -5.4960378  
C   -9.5092014   -2.1384923   -6.9126849  
C  -10.7947377   -1.7305692   -6.8005507  
C  -10.8016016   -0.8196285   -5.6662494  
C   -9.3983656   -0.7936638   -5.2005906  
N   -8.6360915   -1.5647777   -5.9274402  
C   -8.9836123    0.0029683   -4.0787873  
C   -9.9276970    0.7404492   -3.4509654  
O   -9.6819185    1.5293122   -2.3910932  
C  -11.3520936    0.7356969   -3.8973181  
O  -12.1577130    1.4311826   -3.2788535  
C  -11.7525828   -0.0897863   -5.0506225  
H  -11.6346042   -2.0128849   -7.4121042  
H  -10.5453941    1.9218291   -2.1686216  
H  -12.7939261   -0.0655706   -5.3425956  
H   -9.0895824   -2.8209586   -7.6345800  
C    0.8175213    0.6860729    2.3021913  
C    0.0000000    0.0000000    1.4700000  
C   -0.8887526   -0.7456559    2.3478473  
C   -0.4549825   -0.3816753    3.7138435  
N    0.5448156    0.4573574    3.6934124  
C   -1.0945674   -0.9182058    4.8835240  
C   -2.1210866   -1.7789155    4.6970523  
O   -2.8083856   -2.3554314    5.6976972  
C   -2.5824069   -2.1655116    3.3310774  
O   -3.5227682   -2.9541547    3.2362962  
C   -1.9100805   -1.6015804    2.1470656  
H   -0.7567140   -0.6349833    5.8697035  
H   -3.4728268   -2.9124471    5.2533954  
H   -2.2742832   -1.9066565    1.1752040  
H    1.6189533    1.3585343    2.0405121  
