60

C   -1.0832748    0.2799545   -0.8003809  
C    0.0000000    0.0000000    0.0000000  
C    1.0959338   -0.2850048   -0.8673528  
C    0.6173515   -0.1620617   -2.1969283  
N   -0.7099358    0.1800522   -2.1202242  
C    1.4291478   -0.3732828   -3.3154813  
C    2.7481751   -0.7145398   -3.0876863  
O    3.5848057   -0.9317690   -4.1440355  
C    3.2442024   -0.8423941   -1.7684336  
O    4.5784087   -1.1880822   -1.7073132  
C    2.4438469   -0.6344307   -0.6644823  
H    1.0704196   -0.2812932   -4.3313817  
H    4.4464774   -1.1548613   -3.7685139  
H    4.8335201   -1.2536841   -0.7819922  
H    2.8518565   -0.7398302    0.3339649  
H   -2.0930551    0.5415903   -0.5342069  
C   -3.8692410    3.1713937   -2.8732838  
C   -2.8752659    2.4290943   -2.3209436  
C   -2.5140721    1.4215024   -3.2900321  
C   -3.3853235    1.6392137   -4.4606358  
N   -4.1835584    2.7141513   -4.1440610  
C   -3.3535744    0.8911211   -5.5924725  
C   -2.3976513   -0.2015225   -5.6623074  
O   -2.2918976   -0.9326757   -6.6382852  
C   -1.4652396   -0.4504217   -4.4341124  
O   -0.6566563   -1.3676101   -4.4812229  
C   -1.5926123    0.4231735   -3.2703000  
H   -2.4444012    2.5710567   -1.3458456  
H   -4.0013667    1.0676703   -6.4398835  
H   -4.8848883    3.1073405   -4.7445492  
C   -3.4357973    5.1345444    0.9926783  
C   -4.3679842    6.1130771    0.9214068  
C   -4.9779588    5.9552322   -0.3898962  
C   -4.2741129    4.8025843   -0.9920495  
N   -3.3690539    4.3172912   -0.1862273  
C   -4.5913279    4.3203094   -2.3080554  
C   -5.5675829    4.9601889   -2.9912939  
O   -5.9664738    4.6175338   -4.2280289  
C   -6.2965279    6.1262168   -2.4106230  
O   -7.1736206    6.6604091   -3.0892739  
C   -5.9527602    6.6020158   -1.0588227  
H   -4.6116552    6.8508240    1.6666782  
H   -6.6716298    5.2533904   -4.4461910  
H   -6.5041420    7.4494627   -0.6740596  
H   -2.7658202    4.9137039    1.8083582  
C    0.8175213    0.6860729    2.3021913  
C    0.0000000    0.0000000    1.4700000  
C   -0.8887526   -0.7456559    2.3478473  
C   -0.4549825   -0.3816753    3.7138435  
N    0.5448156    0.4573574    3.6934124  
C   -1.0945674   -0.9182058    4.8835240  
C   -2.1210866   -1.7789155    4.6970523  
O   -2.8083856   -2.3554314    5.6976972  
C   -2.5824069   -2.1655116    3.3310774  
O   -3.5227682   -2.9541547    3.2362962  
C   -1.9100805   -1.6015804    2.1470656  
H   -0.7567140   -0.6349833    5.8697035  
H   -3.4728268   -2.9124471    5.2533954  
H   -2.2742832   -1.9066565    1.1752040  
H    1.6189533    1.3585343    2.0405121  
