62

C   -3.3003336   -0.0116859   -1.4738995  
C   -2.5232652   -0.0088807   -2.6090753  
C   -1.1623132   -0.0037977   -2.1820103  
C   -1.1711820   -0.0040180   -0.7636147  
N   -2.4852208   -0.0069105   -0.3662363  
C    0.0000000    0.0000000    0.0000000  
C    1.2020317    0.0040121   -0.6806479  
O    2.3759123    0.0076835    0.0157751  
C    1.2314569    0.0046749   -2.0955507  
O    2.5054224    0.0092746   -2.6250177  
C    0.0764494    0.0009858   -2.8495196  
H   -2.8919801   -0.0092157   -3.6205311  
H   -2.8035809   -0.0182971    0.5858655  
H    3.0835471    0.0103907   -0.6418812  
H    2.4359883    0.0093889   -3.5845917  
H    0.1304050    0.0017832   -3.9319086  
C   -6.6263522   -0.0256428   -4.4617188  
C   -5.3880822   -0.0214541   -3.8624378  
C   -5.6076268   -0.0204797   -2.4530411  
C   -7.0115092   -0.0245167   -2.2504960  
N   -7.6002195   -0.0256321   -3.4906722  
C   -7.5921172   -0.0251055   -0.9786146  
C   -6.7399904   -0.0218614    0.1086050  
O   -7.2537533   -0.0226210    1.3731449  
C   -5.3365001   -0.0174359   -0.0730905  
O   -4.6231504   -0.0141690    1.1077841  
C   -4.7630214   -0.0165792   -1.3275413  
H   -4.4428513   -0.0182533   -4.3777255  
H   -8.5890976   -0.0389025   -3.6636619  
H   -8.6613421   -0.0280300   -0.8175220  
H   -6.4980170   -0.0196709    1.9749078  
H   -3.6846338   -0.0113089    0.8961664  
C   -6.9889867   -0.0277576   -5.8862858  
C   -6.1785758   -0.0274343   -6.9759228  
C   -7.0355836   -0.0301227   -8.1379755  
C   -8.4216486   -0.0320233   -7.6323958  
N   -8.3242961   -0.0308607   -6.2600216  
C   -9.5271767   -0.0343643   -8.4194830  
C   -9.3393749   -0.0352844   -9.8607554  
O  -10.2716447   -0.0374278  -10.6539573  
C   -7.8802587   -0.0335572  -10.4182341  
O   -7.7096928   -0.0346183  -11.6299129  
C   -6.7688636   -0.0307909   -9.4702654  
H   -5.1031571   -0.0257123   -6.9666947  
H  -10.5351217   -0.0355999   -8.0283898  
H   -5.7616846   -0.0294030   -9.8643631  
H   -9.1032812   -0.0301171   -5.6273845  
C    2.3971438    2.0127888    3.1728260  
C    1.9431056    1.6308205    1.9564670  
C    0.8496017    0.7127664    2.2356185  
C    0.7794028    0.6545384    3.7115134  
N    1.6840587    1.4146091    4.2663826  
C   -0.1885723   -0.1578550    4.3957118  
C   -1.0476298   -0.8789867    3.6398520  
O   -2.0015663   -1.6796266    4.1448486  
C   -1.0022026   -0.8410666    2.1483229  
O   -1.8147390   -1.5232959    1.5241687  
C    0.0000000    0.0000000    1.4700000  
H    2.3054237    1.9346118    0.9892483  
H   -0.2170646   -0.1815267    5.4753125  
H   -2.4487139   -2.0549881    3.3649027  
H    3.2048689    2.6911772    3.3971983  
