58

C    2.4602721   -2.0944455   -5.9392888  
C    1.9124732   -1.6318086   -4.7860506  
C    0.8432456   -0.7354855   -5.1577931  
C    0.8127885   -0.7137215   -6.6327131  
N    1.8180306   -1.5578234   -7.0448664  
C   -0.0596370    0.0159821   -7.3730582  
C   -1.0334827    0.8347252   -6.6703347  
O   -1.8613775    1.5276086   -7.2472268  
C   -1.0192493    0.8271229   -5.1084309  
O   -1.8341903    1.5127100   -4.5058515  
C   -0.0307352   -0.0004646   -4.4215603  
H    2.2221962   -1.8889424   -3.7887702  
H   -0.0651695    0.0176832   -8.4542048  
H    3.2792598   -2.7820945   -6.0745265  
C    2.5064984   -3.0924747   -8.9446618  
C    2.7610793   -3.0292133  -10.2770514  
C    2.5649937   -1.6561470  -10.6783926  
C    2.1725207   -0.9193693   -9.4618757  
N    2.1552142   -1.8471688   -8.4461110  
C    1.8974658    0.4089788   -9.4226211  
C    1.9942287    1.1633185  -10.6612267  
O    1.7663351    2.3640335  -10.7294033  
C    2.4079458    0.4033743  -11.9616614  
O    2.4924412    1.0278705  -13.0105297  
C    2.6797534   -1.0294750  -11.8784967  
H    3.0527501   -3.8507028  -10.9068906  
H    1.6114374    0.9302040   -8.5196144  
H    2.9658194   -1.5482202  -12.7833692  
H    2.5457456   -3.9441035   -8.2850580  
C    3.2573670   -0.0002920   -1.5109380  
C    2.5379468   -0.0001709   -0.3591961  
C    1.1435043    0.0000332   -0.7338500  
C    1.1092609   -0.0000082   -2.2088477  
N    2.4227562    0.0001909   -2.6182613  
C   -0.0265532   -0.0002522   -2.9515663  
C   -1.3003035   -0.0002639   -2.2514981  
O   -2.3786784   -0.0004131   -2.8306429  
C   -1.2877725    0.0000312   -0.6895608  
O   -2.3539958    0.0003307   -0.0892036  
C    0.0000000    0.0000000    0.0000000  
H    2.9384091   -0.0000369    0.6389239  
H    4.3270394   -0.0004765   -1.6439446  
H    2.7280494   -0.0013406   -3.5742113  
C    0.0000000    0.0000000    1.4700000  
C    1.0662921    0.0000102    2.3034270  
C    0.4961870   -0.0000064    3.6418889  
C   -0.9663858    0.0000850    3.4240247  
N   -1.2632773    0.0000084    2.1528658  
C   -1.8985362    0.0000517    4.5177257  
C   -1.3925775   -0.0004564    5.7720543  
O   -2.1456383   -0.0005410    6.8851312  
C    0.0786232   -0.0009323    6.0245000  
O    0.4683759   -0.0012588    7.1921102  
C    1.0143166   -0.0008442    4.8859032  
H    2.1107198   -0.0000632    2.0421868  
H   -2.9622183    0.0003270    4.3293377  
H   -1.5042274   -0.0009692    7.6184419  
H    2.0724152   -0.0013148    5.1109744  
