62

C    3.3041274    0.0001175   -1.5420432  
C    2.5845371   -0.0004779   -0.3695850  
C    1.2040006   -0.0000009   -0.7283590  
C    1.1422375    0.0006034   -2.1454377  
N    2.4348639    0.0026105   -2.6077467  
C   -0.0655182    0.0008793   -2.8497919  
C   -1.2321770    0.0002321   -2.1101397  
O   -2.4392816    0.0001141   -2.7472520  
C   -1.1911208   -0.0000009   -0.6955263  
O   -2.4371531   -0.0002320   -0.1032852  
C    0.0000000    0.0000000    0.0000000  
H    3.0031535   -0.0000660    0.6222585  
H   -0.1193549    0.0014838   -3.9297470  
H   -3.1132993   -0.0000652   -2.0551786  
H   -2.3200280   -0.0004070    0.8516415  
H    4.3686623    0.0004069   -1.7024293  
C    5.6587027   -2.1482572   -4.5997633  
C    5.5107200   -1.7555988   -5.8864254  
C    4.3729215   -0.8490962   -5.8734398  
C    3.9446799   -0.8087292   -4.4586734  
N    4.6947113   -1.5682539   -3.7072984  
C    2.8310662   -0.0116225   -4.0232751  
C    2.1753243    0.7125519   -4.9586407  
O    1.1191532    1.5001777   -4.6937097  
C    2.5836171    0.6930789   -6.3942863  
O    1.9410867    1.3768917   -7.1910142  
C    3.7292179   -0.1325933   -6.8159362  
H    6.1008491   -2.0452553   -6.7390230  
H    0.8721710    1.8818760   -5.5553698  
H    6.3942974   -2.8231069   -4.1917795  
C    4.4831583   -1.2049214   -8.9811548  
C    4.0880272   -0.1144907   -8.2413581  
C    4.0991970    1.0100857   -9.1187421  
C    4.5126347    0.5406722  -10.3917884  
N    4.7394705   -0.8080250  -10.2727144  
C    4.6372077    1.3795935  -11.5033107  
C    4.3386925    2.7166887  -11.3265529  
O    4.4431426    3.5798955  -12.3786835  
C    3.9249113    3.2041182  -10.0640107  
O    3.6647267    4.5588988  -10.0492667  
C    3.8020574    2.3771245   -8.9669625  
H    5.0333678   -1.4149906  -11.0164877  
H    4.9519607    1.0280438  -12.4762166  
H    4.1929382    4.4506473  -12.0433414  
H    3.3915344    4.8064837   -9.1606322  
H    3.4830683    2.7792278   -8.0124799  
H    4.6038107   -2.2341231   -8.6893572  
C    0.8175213    0.6860729    2.3021913  
C    0.0000000    0.0000000    1.4700000  
C   -0.8887526   -0.7456559    2.3478473  
C   -0.4549825   -0.3816753    3.7138435  
N    0.5448156    0.4573574    3.6934124  
C   -1.0945674   -0.9182058    4.8835240  
C   -2.1210866   -1.7789155    4.6970523  
O   -2.8083856   -2.3554314    5.6976972  
C   -2.5824069   -2.1655116    3.3310774  
O   -3.5227682   -2.9541547    3.2362962  
C   -1.9100805   -1.6015804    2.1470656  
H   -0.7567140   -0.6349833    5.8697035  
H   -3.4728268   -2.9124471    5.2533954  
H   -2.2742832   -1.9066565    1.1752040  
H    1.6189533    1.3585343    2.0405121  
