58

C    1.9999920   -2.1070891   -5.1447765  
C    1.9105668   -1.6426496   -6.4177157  
C    0.7784255   -0.7475274   -6.4606980  
C    0.2115580   -0.7283875   -5.0986827  
N    0.9973788   -1.5733446   -4.3494007  
C   -0.8712826    0.0001710   -4.7267111  
C   -1.5219795    0.8200162   -5.7351665  
O   -2.5037636    1.5119150   -5.4992073  
C   -0.9387696    0.8148043   -7.1841817  
O   -1.4783588    1.5008667   -8.0417497  
C    0.2330301   -0.0112901   -7.4640107  
H    0.6307995   -0.0091670   -8.4697438  
H    2.7138545   -2.7945383   -4.7208621  
H    0.8643844   -1.7702170   -3.3744131  
C    3.3114756   -3.2566838   -7.7854554  
C    4.1050579   -3.2508301   -8.8873937  
C    4.1182219   -1.8971211   -9.3895234  
C    3.2611352   -1.1091395   -8.4832802  
N    2.8024918   -1.9918335   -7.5328129  
C    3.0162280    0.2188725   -8.6178500  
C    3.6381200    0.9187852   -9.7295633  
O    3.4792469    2.1147374   -9.9363421  
C    4.5494823    0.1040620  -10.7019058  
O    5.0782001    0.6824893  -11.6416617  
C    4.7381773   -1.3230255  -10.4535756  
H    4.6220555   -4.0981594   -9.3013524  
H    2.3844206    0.7781454   -7.9418734  
H    5.3708438   -1.8799016  -11.1313258  
H    3.0554778   -4.0786417   -7.1368110  
C    1.0965514    0.0001359   -0.8010305  
C    0.0000000    0.0000000    0.0000000  
C   -1.1546563    0.0001470   -0.8669513  
C   -0.6372014    0.0003519   -2.2486282  
N    0.7342871    0.0007337   -2.1395014  
C   -1.4147739    0.0001352   -3.3608717  
C   -2.8576049   -0.0001048   -3.1854462  
O   -3.6427779   -0.0002494   -4.1244907  
C   -3.4275840   -0.0000725   -1.7311666  
O   -4.6406831    0.0000333   -1.5710060  
C   -2.4891867   -0.0001091   -0.6116744  
H   -2.8919122   -0.0002918    0.3920866  
H    2.1388272    0.0000663   -0.5261648  
H    1.3735872   -0.0006099   -2.9130262  
C    2.5528530    2.1414826    2.8079335  
C    2.0663498    1.7338582    4.0032312  
C    0.9804344    0.8229586    3.6752840  
C    0.9495562    0.7966882    2.1971295  
N    1.8690446    1.5676019    1.6831036  
C    0.0000000    0.0000000    1.4700000  
C   -0.8785127   -0.7372425    2.1869543  
O   -1.8187535   -1.5261249    1.6395491  
C   -0.8723269   -0.7321790    3.6796354  
O   -1.7010379   -1.4274584    4.2670412  
C    0.1115397    0.0933559    4.4024240  
H    2.4028853    2.0163452    4.9860947  
H   -2.2861435   -1.9184361    2.3990168  
H    0.0832434    0.0693689    5.4835595  
H    3.3664920    2.8238276    2.6198634  
