60

C   -3.3041232    0.0042829   -1.5420452  
C   -2.5845340    0.0039202   -0.3695870  
C   -1.2039992    0.0016043   -0.7283597  
C   -1.1422357    0.0009174   -2.1454381  
N   -2.4348635    0.0006318   -2.6077479  
C    0.0655195   -0.0009673   -2.8497916  
C    1.2321773   -0.0018738   -2.1101388  
O    2.4392807   -0.0033637   -2.7472500  
C    1.1911203   -0.0015857   -0.6955256  
O    2.4371508   -0.0030140   -0.1032845  
C    0.0000000    0.0000000    0.0000000  
H   -3.0031509    0.0040659    0.6222562  
H   -2.7054484    0.0107130   -3.5745279  
H    0.1193552   -0.0016437   -3.9297472  
H    3.1132975   -0.0040819   -2.0551762  
H    2.3200262   -0.0026829    0.8516425  
C   -4.7577174    0.0058236   -1.7610493  
C   -5.7612528    0.0086530   -0.8461813  
C   -7.0028575    0.0090202   -1.5832383  
C   -6.6377917    0.0061232   -3.0127520  
N   -5.2625437    0.0046814   -3.0525169  
C   -7.5310382    0.0051584   -4.0344236  
C   -8.9464506    0.0073294   -3.7040626  
O   -9.8285309    0.0067417   -4.5527289  
C   -9.3558838    0.0106636   -2.1966943  
O  -10.5445603    0.0128181   -1.9063422  
C   -8.3019718    0.0111520   -1.1852005  
H   -5.6449977    0.0104776    0.2229749  
H   -7.2422423    0.0028950   -5.0762976  
H   -4.7106083    0.0010891   -3.8906112  
C   -8.0780646    0.7414122    1.2344996  
C   -8.6793098    0.5273753    2.4331520  
C   -9.7623847   -0.3989506    2.2014121  
C   -9.7426863   -0.7092857    0.7591589  
N   -8.6986626    0.0140199    0.2302598  
C  -10.6108175   -1.5499561    0.1416429  
C  -11.6329266   -2.1917866    0.9515074  
O  -12.4611849   -2.9651596    0.4887070  
C  -11.6725734   -1.8774835    2.4810322  
O  -12.5287997   -2.4116915    3.1729571  
C  -10.6832916   -0.9544987    3.0317341  
H   -8.3964956    0.9682476    3.3724402  
H  -10.5790095   -1.7640524   -0.9176308  
H  -10.7174301   -0.7423290    4.0917070  
H   -7.2339536    1.3695003    1.0002524  
C    2.3971438    2.0127888    3.1728260  
C    1.9431056    1.6308205    1.9564670  
C    0.8496017    0.7127664    2.2356185  
C    0.7794028    0.6545384    3.7115134  
N    1.6840587    1.4146091    4.2663826  
C   -0.1885723   -0.1578550    4.3957118  
C   -1.0476298   -0.8789867    3.6398520  
O   -2.0015663   -1.6796266    4.1448486  
C   -1.0022026   -0.8410666    2.1483229  
O   -1.8147390   -1.5232959    1.5241687  
C    0.0000000    0.0000000    1.4700000  
H    2.3054237    1.9346118    0.9892483  
H   -0.2170646   -0.1815267    5.4753125  
H   -2.4487139   -2.0549881    3.3649027  
H    3.2048689    2.6911772    3.3971983  
