60

C    3.2573676   -0.0002917   -1.5109371  
C    2.5379470   -0.0001708   -0.3591953  
C    1.1435045    0.0000333   -0.7338497  
C    1.1092616   -0.0000080   -2.2088472  
N    2.4227572    0.0001912   -2.6182604  
C   -0.0265522   -0.0002520   -2.9515663  
C   -1.3003029   -0.0002638   -2.2514982  
O   -2.3786772   -0.0004130   -2.8306437  
C   -1.2877723    0.0000313   -0.6895611  
O   -2.3539953    0.0003306   -0.0892043  
C    0.0000000    0.0000000    0.0000000  
H    2.9384088   -0.0000367    0.6389246  
H    2.7280505   -0.0013403   -3.5742105  
C    2.4782044   -2.1081871   -5.8783636  
C    1.9212540   -1.6438938   -7.0265418  
C    0.8546005   -0.7486149   -6.6450160  
C    0.8356651   -0.7292243   -5.1698696  
N    1.8439072   -1.5742002   -4.7669391  
C   -0.0307336   -0.0004643   -4.4215606  
C   -1.0100784    0.8193482   -5.1153375  
O   -1.8333372    1.5114171   -4.5308830  
C   -1.0083697    0.8138723   -6.6773141  
O   -1.8284231    1.4999050   -7.2724045  
C   -0.0251070   -0.0124249   -7.3732163  
H    2.2230648   -1.8995536   -8.0266223  
H   -0.0304407   -0.0104840   -8.4547393  
H    3.2985217   -2.7956858   -5.7506342  
H    2.0835096   -1.7709321   -3.8125103  
C    6.7921787   -0.0024531    1.2037538  
C    5.5119023   -0.0013792    0.7650399  
C    5.6127424   -0.0007796   -0.6862806  
C    7.0661046   -0.0015327   -0.9589016  
N    7.7625301   -0.0025956    0.1451727  
C    7.5891422   -0.0012857   -2.2973775  
C    6.7006605   -0.0007186   -3.3171495  
O    7.0481252   -0.0004242   -4.6153438  
C    5.2278315   -0.0003229   -3.0743842  
O    4.4775319    0.0003125   -4.0502277  
C    4.7161340   -0.0005432   -1.6923240  
H    4.6104180   -0.0011264    1.3535991  
H    8.6559224   -0.0016444   -2.4673513  
H    6.2021013   -0.0000585   -5.0984555  
H    7.1449923   -0.0031693    2.2228199  
C    2.5285572    2.1210227    2.9438989  
C    1.9331703    1.6216660    4.0790748  
C    0.8903039    0.7472258    3.6520102  
C    0.8972198    0.7527806    2.2336141  
N    1.9028376    1.5986179    1.8362361  
C    0.0000000    0.0000000    1.4700000  
C   -0.9207814   -0.7726952    2.1506477  
O   -1.8198395   -1.5274828    1.4542253  
C   -0.9436862   -0.7911793    3.5655508  
O   -1.9197945   -1.6098497    4.0950179  
C   -0.0590329   -0.0485852    4.3195194  
H    2.2150357    1.8593692    5.0905303  
H    2.1533708    1.7953814    0.8841339  
H   -2.3621246   -1.9821033    2.1118817  
H   -1.8668290   -1.5649508    5.0545920  
H   -0.1007624   -0.0827977    5.4019087  
H    3.3491200    2.8096064    2.8367138  
