60

C    1.1188642    0.0008260   -0.8003807  
C    0.0000000    0.0000000    0.0000000  
C   -1.1323859    0.0008858   -0.8673528  
C   -0.6382662    0.0019654   -2.1969279  
N    0.7324018    0.0038503   -2.1202241  
C   -1.4770916    0.0027262   -3.3154807  
C   -2.8395477    0.0020839   -3.0876858  
O   -3.7039197    0.0024290   -4.1440346  
C   -3.3517868    0.0013808   -1.7684330  
O   -4.7300496    0.0012196   -1.7073117  
C   -2.5248539    0.0009033   -0.6644820  
H   -1.1067568    0.0036942   -4.3313810  
H   -4.5940032    0.0021660   -3.7685128  
H   -4.9934601    0.0007085   -0.7819912  
H   -2.9462574    0.0005498    0.3339654  
H    2.1619895    0.0009428   -0.5342069  
C    2.8254844   -0.7379357   -3.3478732  
C    3.4453611   -0.5353376   -4.5389995  
C    2.6233064    0.3835518   -5.2904673  
C    1.4654083    0.7019891   -4.4333442  
N    1.6478435   -0.0100047   -3.2703000  
C    0.4564042    1.5390767   -4.7839138  
C    0.5146164    2.1682244   -6.0928523  
O   -0.3455921    2.9374835   -6.5009978  
C    1.7315981    1.8451780   -7.0171907  
O    1.7913080    2.3686871   -8.1215610  
C    2.7573620    0.9271184   -6.5284908  
H   -0.3838700    1.7592632   -4.1402006  
H    3.5968388    0.7088361   -7.1745215  
H    3.1297830   -1.3579433   -2.5202967  
C    4.7127109   -1.1419087   -4.9711995  
C    5.5187100   -2.0076950   -4.3042257  
C    6.6368259   -2.2951536   -5.1714156  
C    6.4145845   -1.5202908   -6.4071282  
N    5.2313041   -0.8431837   -6.2220247  
C    7.2509842   -1.5207184   -7.4758375  
C    8.4499972   -2.3391265   -7.4043354  
O    9.2655263   -2.4068147   -8.3146263  
C    8.7053280   -3.1681455   -6.1053596  
O    9.7112798   -3.8611055   -6.0337408  
C    7.7311968   -3.0860630   -5.0199183  
H    5.3492229   -2.4003143   -3.3174439  
H    7.0694768   -0.9449613   -8.3727587  
H    7.9154559   -3.6629783   -4.1238480  
H    4.8104190   -0.2254253   -6.8915608  
C    0.8175213    0.6860729    2.3021913  
C    0.0000000    0.0000000    1.4700000  
C   -0.8887526   -0.7456559    2.3478473  
C   -0.4549825   -0.3816753    3.7138435  
N    0.5448156    0.4573574    3.6934124  
C   -1.0945674   -0.9182058    4.8835240  
C   -2.1210866   -1.7789155    4.6970523  
O   -2.8083856   -2.3554314    5.6976972  
C   -2.5824069   -2.1655116    3.3310774  
O   -3.5227682   -2.9541547    3.2362962  
C   -1.9100805   -1.6015804    2.1470656  
H   -0.7567140   -0.6349833    5.8697035  
H   -3.4728268   -2.9124471    5.2533954  
H   -2.2742832   -1.9066565    1.1752040  
H    1.6189533    1.3585343    2.0405121  
