60

C   -1.0714891    0.3408123   -0.7919010  
C   -0.7175115    0.2105797   -2.1148549  
C    0.6376482   -0.2337551   -2.1414699  
C    1.0613451   -0.3583782   -0.7935544  
N    0.0000000    0.0000000    0.0000000  
C    2.3479973   -0.7765847   -0.4408233  
C    3.2227707   -1.0747019   -1.4675046  
O    4.4912882   -1.4880315   -1.1793450  
C    2.8187588   -0.9561781   -2.8186313  
O    3.8044064   -1.2890013   -3.7247605  
C    1.5496868   -0.5434067   -3.1673474  
H    2.6771277   -0.8734716    0.5845979  
H    4.9281600   -1.6401807   -2.0274359  
H    3.4499365   -1.1819497   -4.6127328  
H    1.2689836   -0.4619556   -4.2109230  
H   -2.0030520    0.6512177   -0.3505420  
C   -3.6884934    3.3785238   -2.9109880  
C   -2.7393042    2.5864165   -2.3491336  
C   -2.4480560    1.5393839   -3.2997819  
C   -3.3115435    1.7882297   -4.4699338  
N   -4.0389763    2.9170361   -4.1707222  
C   -3.3339229    1.0175741   -5.5867569  
C   -2.4486256   -0.1339363   -5.6397505  
O   -2.3950807   -0.8892673   -6.6014722  
C   -1.5256759   -0.4166032   -4.4117166  
O   -0.7763149   -1.3833658   -4.4447244  
C   -1.5906809    0.4858985   -3.2649310  
H   -2.2941184    2.7202104   -1.3793282  
H   -3.9748773    1.2176909   -6.4341303  
H   -4.7182276    3.3415183   -4.7752714  
C   -4.3336991    4.5812554   -2.3650511  
C   -4.1193156    5.1704927   -1.1657107  
C   -5.0169984    6.3151367   -1.1443717  
C   -5.7171094    6.2640393   -2.4458394  
N   -5.3207748    5.2497544   -3.1656547  
C   -6.7043674    7.2398774   -2.8175217  
C   -6.9799781    8.2218916   -1.9292521  
O   -7.8783326    9.1979902   -2.1442666  
C   -6.2906257    8.3003144   -0.6075849  
O   -6.5912731    9.2215785    0.1514304  
C   -5.2816954    7.2874667   -0.2496419  
H   -3.4364224    4.8659434   -0.3911253  
H   -7.2002440    7.1783361   -3.7752423  
H   -7.8515022    9.7419891   -1.3364932  
H   -4.8050973    7.3793957    0.7171223  
C    0.8175213    0.6860729    2.3021913  
C    0.0000000    0.0000000    1.4700000  
C   -0.8887526   -0.7456559    2.3478473  
C   -0.4549825   -0.3816753    3.7138435  
N    0.5448156    0.4573574    3.6934124  
C   -1.0945674   -0.9182058    4.8835240  
C   -2.1210866   -1.7789155    4.6970523  
O   -2.8083856   -2.3554314    5.6976972  
C   -2.5824069   -2.1655116    3.3310774  
O   -3.5227682   -2.9541547    3.2362962  
C   -1.9100805   -1.6015804    2.1470656  
H   -0.7567140   -0.6349833    5.8697035  
H   -3.4728268   -2.9124471    5.2533954  
H   -2.2742832   -1.9066565    1.1752040  
H    1.6189533    1.3585343    2.0405121  
