60

C   -3.3041232    0.0064568   -1.5420398  
C   -2.5845322    0.0056207   -0.3695828  
C   -1.2039993    0.0023964   -0.7283578  
C   -1.1422396    0.0016690   -2.1454364  
N   -2.4348672    0.0022339   -2.6077441  
C    0.0655126   -0.0010103   -2.8497916  
C    1.2321704   -0.0026844   -2.1101410  
O    2.4392731   -0.0049686   -2.7472546  
C    1.1911172   -0.0023693   -0.6955280  
O    2.4371472   -0.0046175   -0.1032889  
C    0.0000000    0.0000000    0.0000000  
H   -3.0031471    0.0060418    0.6222612  
H   -2.7054473    0.0124931   -3.5745231  
H    0.1193475   -0.0017221   -3.9297473  
H    3.1132901   -0.0061302   -2.0551820  
H    2.3200255   -0.0042093    0.8516386  
C   -4.7577163    0.0089541   -1.7610415  
C   -5.7406947    0.0122646   -0.8308149  
C   -6.9792840    0.0135142   -1.5939617  
C   -6.5459610    0.0106506   -3.0077535  
N   -5.2447597    0.0078898   -3.1119529  
C   -7.4885852    0.0108277   -4.0924404  
C   -8.8042911    0.0133446   -3.7789987  
O   -9.7927559    0.0138200   -4.6894812  
C   -9.2730961    0.0158977   -2.3618266  
O  -10.4857399    0.0182436   -2.1503751  
C   -8.2866053    0.0157054   -1.2669479  
H   -5.6379666    0.0135933    0.2408761  
H   -7.1438342    0.0089030   -5.1161846  
H  -10.6134385    0.0157711   -4.1644777  
C   -8.3293575    0.7048076    1.1748613  
C   -8.8032425    0.0181266    0.1092715  
C   -9.9449013   -0.7252542    0.6196638  
C  -10.0183606   -0.3594283    2.0505235  
N   -9.0739475    0.4786380    2.3817615  
C  -11.0290095   -0.8934355    2.9214490  
C  -11.9257542   -1.7534948    2.3871430  
O  -12.9217230   -2.3277212    3.0830955  
C  -11.8781273   -2.1419104    0.9466478  
O  -12.7263302   -2.9298324    0.5283763  
C  -10.8317492   -1.5805566    0.0737797  
H  -11.0588954   -0.6089039    3.9631102  
H  -13.3884321   -2.8848491    2.4342937  
H  -10.8315950   -1.8868938   -0.9637115  
H   -7.4861097    1.3760903    1.2107273  
C    2.3971438    2.0127888    3.1728260  
C    1.9431056    1.6308205    1.9564670  
C    0.8496017    0.7127664    2.2356185  
C    0.7794028    0.6545384    3.7115134  
N    1.6840587    1.4146091    4.2663826  
C   -0.1885723   -0.1578550    4.3957118  
C   -1.0476298   -0.8789867    3.6398520  
O   -2.0015663   -1.6796266    4.1448486  
C   -1.0022026   -0.8410666    2.1483229  
O   -1.8147390   -1.5232959    1.5241687  
C    0.0000000    0.0000000    1.4700000  
H    2.3054237    1.9346118    0.9892483  
H   -0.2170646   -0.1815267    5.4753125  
H   -2.4487139   -2.0549881    3.3649027  
H    3.2048689    2.6911772    3.3971983  
