62

C   -3.3003545   -0.0022218   -1.4738975  
C   -2.5232822   -0.0016451   -2.6090738  
C   -1.1623209   -0.0004649   -2.1820094  
C   -1.1711889   -0.0006596   -0.7636136  
N   -2.4852309    0.0002161   -0.3662348  
C    0.0000000    0.0000000    0.0000000  
C    1.2020379    0.0005650   -0.6806484  
O    2.3759245    0.0008701    0.0157740  
C    1.2314642    0.0011432   -2.0955513  
O    2.5054365    0.0020896   -2.6250185  
C    0.0764499    0.0007662   -2.8495195  
H   -2.8919966   -0.0009228   -3.6205290  
H   -2.8036219   -0.0102573    0.5858672  
H    3.0835634    0.0015480   -0.6418824  
H    2.4360022    0.0024030   -3.5845926  
H    0.1304074    0.0014088   -3.9319083  
C   -5.6692774   -0.0032614   -2.3388877  
C   -4.7630502   -0.0029207   -1.3275386  
C   -5.5107315   -0.0030851   -0.0923023  
C   -6.9370629   -0.0035821   -0.4696211  
N   -6.9650290   -0.0032680   -1.8451599  
C   -7.9663613   -0.0042596    0.4148273  
C   -7.6481534   -0.0042905    1.8330231  
O   -8.5043571   -0.0048129    2.7077896  
C   -6.1443507   -0.0035172    2.2553760  
O   -5.8642052   -0.0032294    3.4465016  
C   -5.1238522   -0.0031034    1.2101804  
H   -9.0057214   -0.0047458    0.1171013  
H   -4.0849818   -0.0027739    1.5109665  
H   -5.4995502   -0.0032910   -3.4033509  
C   -7.9976213   -2.1291097   -5.5832654  
C   -9.2727730   -1.6318376   -5.7217407  
C   -9.5005141   -0.7567960   -4.6185469  
C   -8.3188007   -0.7598522   -3.8340279  
N   -7.4272303   -1.6048446   -4.4469776  
C   -8.1857334   -0.0058565   -2.6641684  
C   -9.2651549    0.7655073   -2.2794283  
O   -9.1889113    1.5213915   -1.1454791  
C  -10.4528956    0.7814967   -3.0487347  
O  -11.4376714    1.5990940   -2.5338604  
C  -10.5849702    0.0377027   -4.2027938  
H   -9.9552892   -1.8712811   -6.5191312  
H   -6.4967064   -1.7998955   -4.1243915  
H  -10.0378705    1.9747758   -1.0619629  
H  -12.2049332    1.5525131   -3.1124297  
H  -11.5071009    0.0700033   -4.7712225  
H   -7.4503759   -2.8173861   -6.2043588  
C    0.0000000    0.0000000    1.4700000  
C    1.0662921    0.0000102    2.3034270  
C    0.4961870   -0.0000064    3.6418889  
C   -0.9663858    0.0000850    3.4240247  
N   -1.2632773    0.0000084    2.1528658  
C   -1.8985362    0.0000517    4.5177257  
C   -1.3925775   -0.0004564    5.7720543  
O   -2.1456383   -0.0005410    6.8851312  
C    0.0786232   -0.0009323    6.0245000  
O    0.4683759   -0.0012588    7.1921102  
C    1.0143166   -0.0008442    4.8859032  
H    2.1107198   -0.0000632    2.0421868  
H   -2.9622183    0.0003270    4.3293377  
H   -1.5042274   -0.0009692    7.6184419  
H    2.0724152   -0.0013148    5.1109744  
