58

C   -3.2573655    0.0019060   -1.5109399  
C   -2.5379463    0.0014285   -0.3591975  
C   -1.1435032    0.0005335   -0.7338505  
C   -1.1092589    0.0005578   -2.2088482  
N   -2.4227539    0.0010095   -2.6182621  
C    0.0265553    0.0002391   -2.9515663  
C    1.3003051   -0.0003804   -2.2514967  
O    2.3786804   -0.0007656   -2.8306408  
C    1.2877732   -0.0006693   -0.6895599  
O    2.3539964   -0.0014971   -0.0892019  
C    0.0000000    0.0000000    0.0000000  
H   -2.9384086    0.0014928    0.6389220  
H    0.0296317    0.0003937   -4.0327229  
H   -2.7280459    0.0026924   -3.5742130  
C   -4.7161314    0.0028805   -1.6923284  
C   -5.6747623    0.0037083   -0.7370247  
C   -6.9326473    0.0044371   -1.4679303  
C   -6.5359767    0.0040204   -2.8924430  
N   -5.2378980    0.0030273   -3.0302125  
C   -7.5062980    0.0044802   -3.9524252  
C   -8.8134725    0.0049293   -3.6051092  
O   -9.8251206    0.0053953   -4.4897612  
C   -9.2455256    0.0049866   -2.1763015  
O  -10.4523053    0.0055310   -1.9336028  
C   -8.2310892    0.0045527   -1.1072636  
H   -5.5443939    0.0037215    0.3316569  
H   -7.1880980    0.0043660   -4.9847324  
H  -10.6319731    0.0056127   -3.9437379  
C   -8.1800755    0.7089794    1.3137250  
C   -8.7120160    0.0044736    0.2818402  
C   -9.8315521   -0.7376774    0.8116386  
C   -9.9088121   -0.4053880    2.2470494  
N   -8.8798941    0.4756551    2.4878429  
C  -10.8358030   -0.9049564    3.1031005  
C  -11.8231930   -1.8319381    2.5755580  
O  -12.6989794   -2.3364366    3.2660509  
C  -11.7600658   -2.1981578    1.0584209  
O  -12.5859093   -2.9777777    0.6029705  
C  -10.7144162   -1.5950477    0.2357870  
H  -10.8750266   -0.6481615    4.1525896  
H  -10.6777166   -1.8536482   -0.8137384  
H   -7.3355652    1.3788224    1.3152710  
H   -8.6709120    0.8874623    3.3787913  
C    2.5528530    2.1414826    2.8079335  
C    2.0663498    1.7338582    4.0032312  
C    0.9804344    0.8229586    3.6752840  
C    0.9495562    0.7966882    2.1971295  
N    1.8690446    1.5676019    1.6831036  
C    0.0000000    0.0000000    1.4700000  
C   -0.8785127   -0.7372425    2.1869543  
O   -1.8187535   -1.5261249    1.6395491  
C   -0.8723269   -0.7321790    3.6796354  
O   -1.7010379   -1.4274584    4.2670412  
C    0.1115397    0.0933559    4.4024240  
H    2.4028853    2.0163452    4.9860947  
H   -2.2861435   -1.9184361    2.3990168  
H    0.0832434    0.0693689    5.4835595  
H    3.3664920    2.8238276    2.6198634  
