60

C    0.0000000    0.0000000    0.0000000  
C    1.0521663   -0.0011902   -0.8862345  
C    0.4917215   -0.0011956   -2.1979133  
C   -0.9187430    0.0003149   -2.0478683  
N   -1.1833172   -0.0009411   -0.7007910  
C   -1.7951704    0.0010351   -3.1372088  
C   -1.2375840    0.0005226   -4.4010423  
O   -2.0474221    0.0015361   -5.4997580  
C    0.1673576   -0.0013565   -4.5711965  
O    0.5673516   -0.0020685   -5.8915550  
C    1.0325767   -0.0023411   -3.4969892  
H    2.0953056   -0.0030649   -0.6200563  
H   -2.0989778    0.0102372   -0.2891821  
H   -1.4634890    0.0006499   -6.2693592  
H    1.5290706   -0.0033151   -5.9180044  
C   -4.4484713    2.1113799   -0.3461913  
C   -5.6480035    1.6479662   -0.7825910  
C   -5.3783986    0.7523418   -1.8825938  
C   -3.9129602    0.7317895   -2.0524730  
N   -3.4082524    1.5764912   -1.0908918  
C   -3.2578654    0.0024039   -2.9908502  
C   -4.0489124   -0.8169044   -3.8939079  
O   -3.5523658   -1.5094682   -4.7725989  
C   -5.6025001   -0.8101992   -3.7322725  
O   -6.2789647   -1.4957985   -4.4869977  
C   -6.1934216    0.0166874   -2.6830238  
H   -6.6117257    1.9044258   -0.3799961  
H   -7.2698075    0.0155974   -2.5775879  
H   -4.2368828    2.7988129    0.4566510  
H   -2.4341533    1.7724823   -0.9503004  
C    2.4861696   -0.0045381   -3.7159924  
C    3.4691529   -0.0057441   -2.7857657  
C    4.7077405   -0.0077545   -3.5489148  
C    4.2744109   -0.0075886   -4.9627074  
N    2.9732085   -0.0056260   -5.0669063  
C    5.2170312   -0.0092334   -6.0473964  
C    6.5327396   -0.0105763   -5.7339567  
O    7.5212012   -0.0121904   -6.6444410  
C    7.0015509   -0.0104090   -4.3167844  
O    8.2141953   -0.0118094   -4.1053341  
C    6.0150638   -0.0087517   -3.2219034  
H    3.3664297   -0.0052315   -1.7140738  
H    4.8722761   -0.0092768   -7.0711412  
H    8.3418866   -0.0128282   -6.1194385  
H    6.3952611   -0.0085681   -2.2091449  
C    3.3321173   -0.0004715    2.8079335  
C    2.6974184   -0.0000116    4.0032312  
C    1.2800439    0.0002118    3.6752840  
C    1.2395035   -0.0000644    2.1971295  
N    2.4394063   -0.0005460    1.6831036  
C    0.0000000    0.0000000    1.4700000  
C   -1.1468701   -0.0000635    2.1869543  
O   -2.3742202   -0.0000073    1.6395491  
C   -1.1388768   -0.0001607    3.6796354  
O   -2.2206231   -0.0000905    4.2670412  
C    0.1454524   -0.0001816    4.4024240  
H    3.1367986    0.0000651    4.9860947  
H   -2.9844344   -0.0001026    2.3990168  
H    0.1083576   -0.0003682    5.4835595  
H    4.3940039   -0.0007619    2.6198634  
