64

C    2.8346300   -0.6809230   -3.3508859  
C    3.4395163   -0.4171705   -4.5579548  
C    2.6017692    0.5065367   -5.2504464  
C    1.4910361    0.7724573   -4.4093251  
N    1.6628945    0.0339172   -3.2649299  
C    0.4591595    1.6433871   -4.7719561  
C    0.5503732    2.2572843   -6.0060504  
O   -0.4295451    3.1173045   -6.4099542  
C    1.6505928    2.0044729   -6.8595253  
O    1.5963514    2.6915462   -8.0546534  
C    2.6687901    1.1451904   -6.5025462  
H   -0.3901599    1.8501827   -4.1354863  
H   -0.1741866    3.4292996   -7.2878594  
H    2.3755033    2.4647860   -8.5714758  
H    3.4987572    0.9711159   -7.1773284  
H    3.1455910   -1.3234977   -2.5450572  
C    5.1088003   -2.2944981   -4.8217107  
C    6.3544202   -2.4772965   -5.3762216  
C    6.7440701   -1.2287954   -5.9454472  
C    5.6872323   -0.3138128   -5.7049743  
N    4.7094274   -0.9938800   -5.0223161  
C    5.7288328    1.0179605   -6.1285749  
C    6.8580024    1.4337177   -6.8070287  
O    6.9510043    2.7238684   -7.2427757  
C    7.9227661    0.5355776   -7.0569103  
O    8.9769813    1.1007736   -7.7443169  
C    7.8822924   -0.7784605   -6.6395471  
H    6.9129770   -3.3976171   -5.3720367  
H    4.9266150    1.7202729   -5.9485582  
H    7.8062387    2.8016359   -7.6852602  
H    9.6526903    0.4278781   -7.8717245  
H    8.7130784   -1.4431368   -6.8456491  
H    4.4730302   -2.9893488   -4.3002346  
C    1.1243410    0.0100105   -0.7919003  
C    0.7474072    0.0234665   -2.1148542  
C   -0.6787384    0.0234379   -2.1414698  
C   -1.1201748    0.0098411   -0.7935547  
N    0.0000000    0.0000000    0.0000000  
C   -2.4730818    0.0063307   -0.4408240  
C   -3.3971962    0.0170429   -1.4675058  
O   -4.7313520    0.0145490   -1.1793468  
C   -2.9763654    0.0303020   -2.8186325  
O   -4.0166484    0.0394464   -3.7247625  
C   -1.6418567    0.0334992   -3.1673480  
H   -2.8160166   -0.0041569    0.5845966  
H   -5.1938823    0.0230023   -2.0274386  
H   -3.6464680    0.0481700   -4.6127343  
H   -1.3497475    0.0435647   -4.2109234  
H    2.1062466    0.0053162   -0.3505405  
C    2.3971438    2.0127888    3.1728260  
C    1.9431056    1.6308205    1.9564670  
C    0.8496017    0.7127664    2.2356185  
C    0.7794028    0.6545384    3.7115134  
N    1.6840587    1.4146091    4.2663826  
C   -0.1885723   -0.1578550    4.3957118  
C   -1.0476298   -0.8789867    3.6398520  
O   -2.0015663   -1.6796266    4.1448486  
C   -1.0022026   -0.8410666    2.1483229  
O   -1.8147390   -1.5232959    1.5241687  
C    0.0000000    0.0000000    1.4700000  
H    2.3054237    1.9346118    0.9892483  
H   -0.2170646   -0.1815267    5.4753125  
H   -2.4487139   -2.0549881    3.3649027  
H    3.2048689    2.6911772    3.3971983  
