58

C    1.0965515    0.0001360   -0.8010308  
C    0.0000000    0.0000000    0.0000000  
C   -1.1546564    0.0001471   -0.8669508  
C   -0.6372017    0.0003523   -2.2486281  
N    0.7342869    0.0007340   -2.1395010  
C   -1.4147743    0.0001358   -3.3608713  
C   -2.8576053   -0.0001041   -3.1854457  
O   -3.6427783   -0.0002487   -4.1244897  
C   -3.4275844   -0.0000721   -1.7311659  
O   -4.6406833    0.0000338   -1.5710048  
C   -2.4891866   -0.0001089   -0.6116742  
H   -2.8919120   -0.0002916    0.3920871  
H    2.1388274    0.0000662   -0.5261648  
H    1.3735868   -0.0006095   -2.9130264  
C    2.0080273   -2.0907786   -5.2072025  
C    1.0696920   -1.6289492   -4.3409950  
C    0.2147981   -0.7337511   -5.0843737  
C    0.7357140   -0.7117675   -6.4645744  
N    1.8230605   -1.5546808   -6.4725584  
C    0.2009059    0.0170936   -7.4767238  
C   -0.9654722    0.8346328   -7.1873681  
O   -1.5197756    1.5266949   -8.0312280  
C   -1.5338504    0.8267780   -5.7324835  
O   -2.5153155    1.5113557   -5.4768668  
C   -0.8712831    0.0001717   -4.7267108  
H    0.9860726   -1.8859101   -3.3000373  
H    2.8192288   -2.7774938   -5.0275787  
H    2.3931030   -1.7517866   -7.2745860  
C    0.7412885    0.0196508   -8.8437940  
C    1.8085674   -0.6632273   -9.3193690  
C    1.8937756   -0.2950066  -10.7242367  
C    0.7699333    0.6431876  -10.9324523  
N    0.0908288    0.8315728   -9.8336731  
C    0.5068180    1.2433470  -12.2113831  
C    1.3292763    0.9212069  -13.2356514  
O    1.2011137    1.4065041  -14.4822878  
C    2.4722171   -0.0221695  -13.0570809  
O    3.1797632   -0.2700217  -14.0333844  
C    2.7213239   -0.6247229  -11.7354155  
H    2.4578866   -1.3339137   -8.7830479  
H   -0.3216475    1.9254533  -12.3350163  
H    1.9286534    0.9964664  -14.9839926  
H    3.5594068   -1.3030323  -11.6474197  
C    2.5528530    2.1414826    2.8079335  
C    2.0663498    1.7338582    4.0032312  
C    0.9804344    0.8229586    3.6752840  
C    0.9495562    0.7966882    2.1971295  
N    1.8690446    1.5676019    1.6831036  
C    0.0000000    0.0000000    1.4700000  
C   -0.8785127   -0.7372425    2.1869543  
O   -1.8187535   -1.5261249    1.6395491  
C   -0.8723269   -0.7321790    3.6796354  
O   -1.7010379   -1.4274584    4.2670412  
C    0.1115397    0.0933559    4.4024240  
H    2.4028853    2.0163452    4.9860947  
H   -2.2861435   -1.9184361    2.3990168  
H    0.0832434    0.0693689    5.4835595  
H    3.3664920    2.8238276    2.6198634  
