60

C    3.3003545    0.0005278   -1.4738994  
C    2.5232810    0.0003500   -2.6090750  
C    1.1623198   -0.0001317   -2.1820102  
C    1.1711882    0.0000584   -0.7636141  
N    2.4852299   -0.0014919   -0.3662360  
C    0.0000000    0.0000000    0.0000000  
C   -1.2020384    0.0000520   -0.6806479  
O   -2.3759251    0.0003495    0.0157749  
C   -1.2314659   -0.0005110   -2.0955508  
O   -2.5054390   -0.0008034   -2.6250179  
C   -0.0764518   -0.0007269   -2.8495192  
H    2.8919952   -0.0005616   -3.6205303  
H    2.8036266    0.0088181    0.5858654  
H   -3.0835638    0.0000348   -0.6418815  
H   -2.4360052   -0.0011524   -3.5845917  
H    4.3715548    0.0004896   -1.3667140  
C    2.1623910   -2.0122254   -6.1367518  
C    1.7689756   -1.6301523   -4.8994875  
C    0.6617230   -0.7136662   -5.1243082  
C    0.5180513   -0.6563659   -6.5949062  
N    1.3949574   -1.4155852   -7.1937485  
C   -0.4838563    0.1543916   -7.2304692  
C   -1.3051623    0.8748445   -6.4331366  
O   -2.2841110    1.6739683   -6.8904132  
C   -1.1854796    0.8378292   -4.9457004  
O   -1.9668285    1.5193652   -4.2822073  
C   -0.1496419   -0.0015607   -4.3176961  
H    2.1794005   -1.9329281   -3.9513552  
H   -2.6923642    2.0491960   -6.0893597  
H    2.9588345   -2.6896999   -6.4007216  
C   -0.1477690   -2.9884759  -10.3136266  
C   -0.1843801   -2.3048490   -9.1408568  
C   -0.4538530   -0.9242270   -9.4665903  
C   -0.5721099   -0.8590912  -10.9357952  
N   -0.3759322   -2.1432532  -11.3889308  
C   -0.8253182    0.2747192  -11.6372680  
C   -0.9923102    1.5135968  -10.8957627  
O   -1.2230387    2.5873982  -11.4361465  
C   -0.8709402    1.4680250   -9.3391645  
O   -1.0093289    2.5048054   -8.7041869  
C   -0.5957701    0.1857209   -8.6958683  
H   -0.0390050   -2.7202880   -8.1595868  
H   -0.9083139    0.3007617  -12.7149252  
H    0.0269094   -4.0385919  -10.4828415  
H   -0.3974182   -2.4236590  -12.3522371  
C    0.0000000    0.0000000    1.4700000  
C    1.0662921    0.0000102    2.3034270  
C    0.4961870   -0.0000064    3.6418889  
C   -0.9663858    0.0000850    3.4240247  
N   -1.2632773    0.0000084    2.1528658  
C   -1.8985362    0.0000517    4.5177257  
C   -1.3925775   -0.0004564    5.7720543  
O   -2.1456383   -0.0005410    6.8851312  
C    0.0786232   -0.0009323    6.0245000  
O    0.4683759   -0.0012588    7.1921102  
C    1.0143166   -0.0008442    4.8859032  
H    2.1107198   -0.0000632    2.0421868  
H   -2.9622183    0.0003270    4.3293377  
H   -1.5042274   -0.0009692    7.6184419  
H    2.0724152   -0.0013148    5.1109744  
