60

C   -3.3003562   -0.0019863   -1.4738947  
C   -2.5232848   -0.0014650   -2.6090718  
C   -1.1623235   -0.0003819   -2.1820087  
C   -1.1711899   -0.0005760   -0.7636127  
N   -2.4852317    0.0003935   -0.3662329  
C    0.0000000    0.0000000    0.0000000  
C    1.2020371    0.0004793   -0.6806495  
O    2.3759233    0.0007007    0.0157714  
C    1.2314617    0.0010554   -2.0955526  
O    2.5054344    0.0019110   -2.6250211  
C    0.0764466    0.0007609   -2.8495197  
H   -2.8920006   -0.0007164   -3.6205269  
H   -2.8036222   -0.0100573    0.5858694  
H    3.0835619    0.0013281   -0.6418857  
H    2.4359992    0.0022293   -3.5845950  
H    0.1304040    0.0013996   -3.9319089  
C   -6.5908010   -0.0033253   -4.4182797  
C   -5.3731532   -0.0027736   -3.8171071  
C   -5.6071082   -0.0027888   -2.3922911  
C   -7.0713668   -0.0034283   -2.2113599  
N   -7.6095243   -0.0033309   -3.4775655  
C   -7.6973079   -0.0040281   -1.0072411  
C   -6.8738974   -0.0038186    0.1904780  
O   -7.3427959   -0.0042545    1.3211567  
C   -5.3209694   -0.0028912    0.0224952  
O   -4.6174375   -0.0024009    1.0236459  
C   -4.7630518   -0.0025808   -1.3275345  
H   -4.4198650   -0.0022162   -4.3149569  
H   -8.7727866   -0.0046216   -0.8965353  
H   -6.8296483   -0.0035115   -5.4693944  
C   -9.8214744   -2.1500179   -6.5575836  
C  -11.0925488   -1.7446836   -6.3303108  
C  -10.9991889   -0.8332135   -5.2002641  
C   -9.5597919   -0.8041411   -4.8628113  
N   -8.8644266   -1.5740363   -5.6550975  
C   -9.0474131   -0.0061189   -3.7831288  
C   -9.9326938    0.7297222   -3.0730933  
O   -9.5941619    1.5195982   -2.0398785  
C  -11.3914721    0.7218279   -3.3894198  
O  -12.1396043    1.4159540   -2.7011549  
C  -11.8924198   -0.1050311   -4.5017510  
H  -11.9834609   -2.0290187   -6.8637007  
H  -10.4349259    1.9104467   -1.7407022  
H  -12.9558652   -0.0830959   -4.6988126  
H   -9.4671119   -2.8319675   -7.3141184  
C    2.3971438    2.0127888    3.1728260  
C    1.9431056    1.6308205    1.9564670  
C    0.8496017    0.7127664    2.2356185  
C    0.7794028    0.6545384    3.7115134  
N    1.6840587    1.4146091    4.2663826  
C   -0.1885723   -0.1578550    4.3957118  
C   -1.0476298   -0.8789867    3.6398520  
O   -2.0015663   -1.6796266    4.1448486  
C   -1.0022026   -0.8410666    2.1483229  
O   -1.8147390   -1.5232959    1.5241687  
C    0.0000000    0.0000000    1.4700000  
H    2.3054237    1.9346118    0.9892483  
H   -0.2170646   -0.1815267    5.4753125  
H   -2.4487139   -2.0549881    3.3649027  
H    3.2048689    2.6911772    3.3971983  
