64

C   -0.2041198   -0.6662882   -5.1294034  
C   -1.2456329    0.0471727   -4.5828766  
C   -1.8465395    0.7861442   -5.6446828  
C   -1.1230376    0.4806688   -6.8258504  
N   -0.1315496   -0.4025058   -6.4771798  
C   -1.4397841    1.0325680   -8.0707875  
C   -2.5065205    1.9085701   -8.1243731  
O   -2.8591344    2.4760485   -9.3146016  
C   -3.2403713    2.2261136   -6.9567062  
O   -4.2735432    3.1142237   -7.1738688  
C   -2.9282857    1.6822358   -5.7281600  
H   -0.8922028    0.8039213   -8.9747112  
H   -3.6170352    3.0463503   -9.1312768  
H   -4.7175604    3.2751085   -6.3356748  
H   -3.5084503    1.9444471   -4.8511582  
H    0.4936105   -1.3413505   -4.6641918  
C    1.2905464   -2.2932143   -7.3622226  
C    2.2090278   -2.4905669   -8.3671661  
C    2.3384425   -1.2516697   -9.0621368  
C    1.4674014   -0.3272748   -8.4307061  
N    0.8450879   -0.9927590   -7.4038302  
C    1.3364600    0.9988421   -8.8538572  
C    2.0989423    1.3991619   -9.9339230  
O    2.0101867    2.6831925  -10.3882368  
C    2.9734813    0.4914419  -10.5773849  
O    3.6638091    1.0415365  -11.6376613  
C    3.1029643   -0.8170258  -10.1606448  
H    2.7217625   -3.4141858   -8.5745860  
H    0.6742691    1.7082672   -8.3769689  
H    2.6161687    2.7501792  -11.1376130  
H    4.2312358    0.3629593  -12.0160314  
H    3.7808854   -1.4893191  -10.6734041  
H    0.9168844   -2.9775928   -6.6199544  
C    1.1243410    0.0099923   -0.7919003  
C    0.7474076    0.0234544   -2.1148543  
C   -0.6787381    0.0234490   -2.1414700  
C   -1.1201745    0.0098592   -0.7935546  
N    0.0000000    0.0000000    0.0000000  
C   -2.4730816    0.0063709   -0.4408240  
C   -3.3971958    0.0170982   -1.4675058  
O   -4.7313517    0.0146259   -1.1793471  
C   -2.9763648    0.0303504   -2.8186324  
O   -4.0166480    0.0395118   -3.7247624  
C   -1.6418562    0.0335260   -3.1673481  
H    1.4178717    0.0310972   -2.9571209  
H   -2.8160166   -0.0041111    0.5845966  
H   -5.1938818    0.0230867   -2.0274384  
H   -3.6464675    0.0482293   -4.6127343  
H    2.1062467    0.0052819   -0.3505407  
C    2.5528530    2.1414826    2.8079335  
C    2.0663498    1.7338582    4.0032312  
C    0.9804344    0.8229586    3.6752840  
C    0.9495562    0.7966882    2.1971295  
N    1.8690446    1.5676019    1.6831036  
C    0.0000000    0.0000000    1.4700000  
C   -0.8785127   -0.7372425    2.1869543  
O   -1.8187535   -1.5261249    1.6395491  
C   -0.8723269   -0.7321790    3.6796354  
O   -1.7010379   -1.4274584    4.2670412  
C    0.1115397    0.0933559    4.4024240  
H    2.4028853    2.0163452    4.9860947  
H   -2.2861435   -1.9184361    2.3990168  
H    0.0832434    0.0693689    5.4835595  
H    3.3664920    2.8238276    2.6198634  
