58

C    3.2573665   -0.0002918   -1.5109388  
C    2.5379466   -0.0001710   -0.3591966  
C    1.1435040    0.0000335   -0.7338503  
C    1.1092603   -0.0000076   -2.2088478  
N    2.4227558    0.0001914   -2.6182613  
C   -0.0265538   -0.0002516   -2.9515662  
C   -1.3003041   -0.0002634   -2.2514980  
O   -2.3786785   -0.0004126   -2.8306424  
C   -1.2877729    0.0000315   -0.6895604  
O   -2.3539958    0.0003310   -0.0892033  
C    0.0000000    0.0000000    0.0000000  
H    2.9384089   -0.0000368    0.6389231  
H    4.3270390   -0.0004762   -1.6439448  
H    2.7280488   -0.0013401   -3.5742116  
C    2.4624159   -2.0918857   -5.9392958  
C    1.9141434   -1.6298141   -4.7860562  
C    0.8439976   -0.7345865   -5.1577959  
C    0.8135178   -0.7128492   -6.6327158  
N    1.8196243   -1.5559191   -7.0448722  
C   -0.0596554    0.0159622   -7.3730584  
C   -1.0343397    0.8337045   -6.6703323  
O   -1.8629443    1.5257407   -7.2472220  
C   -1.0200979    0.8261120   -5.1084280  
O   -1.8357413    1.5108621   -4.5058467  
C   -0.0307360   -0.0004637   -4.4215603  
H    2.2241300   -1.8866333   -3.7887769  
H   -0.0651900    0.0176607   -8.4542043  
H    2.0500099   -1.7532061   -8.0014533  
C    3.5802702   -3.0285210   -6.1237291  
C    4.3178072   -3.6440213   -5.1704307  
C    5.2801642   -4.4516747   -5.9039594  
C    4.9720991   -4.1970795   -7.3276385  
N    3.9766094   -3.3635640   -7.4626976  
C    5.7131065   -4.8200892   -8.3896427  
C    6.7165190   -5.6589930   -8.0450581  
O    7.4897223   -6.3084948   -8.9318194  
C    7.0519680   -5.9360111   -6.6171588  
O    7.9780105   -6.7105954   -6.3769815  
C    6.2771289   -5.2847175   -5.5460067  
H    4.2208353   -3.5602396   -4.1014808  
H    5.4661573   -4.6160123   -9.4212814  
H    8.1100596   -6.8262135   -8.3874835  
H    6.5515555   -5.5115756   -4.5245102  
C    2.3971438    2.0127888    3.1728260  
C    1.9431056    1.6308205    1.9564670  
C    0.8496017    0.7127664    2.2356185  
C    0.7794028    0.6545384    3.7115134  
N    1.6840587    1.4146091    4.2663826  
C   -0.1885723   -0.1578550    4.3957118  
C   -1.0476298   -0.8789867    3.6398520  
O   -2.0015663   -1.6796266    4.1448486  
C   -1.0022026   -0.8410666    2.1483229  
O   -1.8147390   -1.5232959    1.5241687  
C    0.0000000    0.0000000    1.4700000  
H    2.3054237    1.9346118    0.9892483  
H   -0.2170646   -0.1815267    5.4753125  
H   -2.4487139   -2.0549881    3.3649027  
H    3.2048689    2.6911772    3.3971983  
