58

C   -1.0937630    0.5315567   -9.1259044  
C   -0.0991088   -0.3126822   -9.4857704  
C   -0.1291686   -0.3294035  -10.9401840  
C   -1.2333228    0.5857253  -11.3006924  
N   -1.8024502    1.0934920  -10.2413272  
C   -1.5903476    0.8456365  -12.6681962  
C   -0.8765115    0.2200825  -13.6317586  
O   -1.1003615    0.3698836  -14.9483798  
C    0.2437673   -0.7088877  -13.2998679  
O    0.8502433   -1.2436540  -14.2280021  
C    0.5906565   -0.9591390  -11.8895603  
H    0.5721534   -0.8568054   -8.8435782  
H   -2.4019177    1.5188763  -12.9027387  
H   -0.4365252   -0.1984890  -15.3789923  
H    1.4086880   -1.6385790  -11.6910261  
C    0.4920764   -0.6868679   -5.2544642  
C   -0.2963293   -0.0005341   -4.3948471  
C   -1.2145549    0.7451072   -5.2418306  
C   -0.8279331    0.3808331   -6.6218351  
N    0.1718577   -0.4583450   -6.6355552  
C   -1.5071744    0.9172630   -7.7689881  
C   -2.5265725    1.7781565   -7.5475746  
O   -3.2476979    2.3546071   -8.5241627  
C   -2.9407256    2.1650500   -6.1666507  
O   -3.8771709    2.9538488   -6.0398149  
C   -2.2282746    1.6012170   -5.0062924  
H   -3.8964333    2.9117963   -8.0574334  
H   -2.5588936    1.9065101   -4.0225660  
H    1.3019142   -1.3594050   -5.0203046  
C    3.1301146   -0.0010313   -1.7028256  
C    2.5367765   -0.0002766   -0.4864669  
C    1.1089901    0.0001027   -0.7656184  
C    1.0177865   -0.0004150   -2.2415133  
N    2.1993571   -0.0011612   -2.7963824  
C   -0.2459219   -0.0002879   -2.9257116  
C   -1.3675326   -0.0000606   -2.1698520  
O   -2.6129318    0.0000865   -2.6748483  
C   -1.3083588    0.0000910   -0.6783229  
O   -2.3693264    0.0004206   -0.0541685  
C    0.0000000    0.0000000    0.0000000  
H    3.0096016   -0.0001007    0.4807518  
H   -3.1967444    0.0002093   -1.8949026  
H    4.1849275   -0.0015114   -1.9271979  
C    2.5528530    2.1414826    2.8079335  
C    2.0663498    1.7338582    4.0032312  
C    0.9804344    0.8229586    3.6752840  
C    0.9495562    0.7966882    2.1971295  
N    1.8690446    1.5676019    1.6831036  
C    0.0000000    0.0000000    1.4700000  
C   -0.8785127   -0.7372425    2.1869543  
O   -1.8187535   -1.5261249    1.6395491  
C   -0.8723269   -0.7321790    3.6796354  
O   -1.7010379   -1.4274584    4.2670412  
C    0.1115397    0.0933559    4.4024240  
H    2.4028853    2.0163452    4.9860947  
H   -2.2861435   -1.9184361    2.3990168  
H    0.0832434    0.0693689    5.4835595  
H    3.3664920    2.8238276    2.6198634  
