58

C    2.6001985   -2.1411817   -5.8266045  
C    2.0730544   -1.7332817   -7.0044479  
C    0.9991586   -0.8222833   -6.6393041  
C    1.0189897   -0.7962635   -5.1609560  
N    1.9554492   -1.5673976   -4.6788913  
C    0.0950446    0.0004351   -4.4015596  
C   -0.8074267    0.7379269   -5.0878433  
O   -1.7282262    1.5268493   -4.5083866  
C   -0.8524305    0.7331199   -6.5798594  
O   -1.7006935    1.4286192   -7.1383864  
C    0.1059492   -0.0924309   -7.3360990  
H   -2.2213256    1.9193583   -5.2513142  
H    0.0406002   -0.0682534   -8.4156246  
H    3.4197066   -2.8236757   -5.6666595  
C    3.3853450   -5.5130796   -8.9679813  
C    2.9642892   -4.6351921   -8.0279787  
C    2.8508390   -3.3638708   -8.7260981  
C    3.2528831   -3.6651889  -10.1168359  
N    3.5672401   -4.9234840  -10.2646955  
C    3.2751313   -2.6546560  -11.1383128  
C    2.9118647   -1.4002162  -10.7865294  
O    2.8862307   -0.3599196  -11.6369213  
C    2.5007653   -1.0647144   -9.3913241  
O    2.1827795    0.0981005   -9.1423907  
C    2.4862153   -2.1188250   -8.3614868  
H    2.7562796   -4.8267073   -6.9891667  
H    3.5734058   -2.9029657  -12.1464224  
H    2.5885166    0.3944054  -11.0970022  
H    3.5899955   -6.5652781   -8.8497876  
C    3.3321173    0.0004713   -1.3379338  
C    2.6974181    0.0000116   -2.5332314  
C    1.2800438   -0.0002119   -2.2052841  
C    1.2395034    0.0000643   -0.7271299  
N    2.4394062    0.0005460   -0.2131038  
C    0.0000000    0.0000000    0.0000000  
C   -1.1468702    0.0000634   -0.7169543  
O   -2.3742203    0.0000074   -0.1695487  
C   -1.1388770    0.0001607   -2.2096355  
O   -2.2206234    0.0000905   -2.7970411  
C    0.1454522    0.0001815   -2.9324241  
H    3.1367984   -0.0000653   -3.5160950  
H   -2.9844346    0.0001026   -0.9290167  
H    4.3940038    0.0007618   -1.1498640  
C    2.3971438    2.0127888    3.1728260  
C    1.9431056    1.6308205    1.9564670  
C    0.8496017    0.7127664    2.2356185  
C    0.7794028    0.6545384    3.7115134  
N    1.6840587    1.4146091    4.2663826  
C   -0.1885723   -0.1578550    4.3957118  
C   -1.0476298   -0.8789867    3.6398520  
O   -2.0015663   -1.6796266    4.1448486  
C   -1.0022026   -0.8410666    2.1483229  
O   -1.8147390   -1.5232959    1.5241687  
C    0.0000000    0.0000000    1.4700000  
H    2.3054237    1.9346118    0.9892483  
H   -0.2170646   -0.1815267    5.4753125  
H   -2.4487139   -2.0549881    3.3649027  
H    3.2048689    2.6911772    3.3971983  
