64

C    2.3020056   -2.1258164   -5.9826648  
C    1.8093619   -1.6631472   -4.7844546  
C    0.7354062   -0.7757529   -5.0906404  
C    0.6179773   -0.7364002   -6.5036468  
N    1.5853771   -1.5658594   -7.0142853  
C   -0.3411005    0.0396027   -7.1615059  
C   -1.1974273    0.7893054   -6.3786729  
O   -2.1529117    1.5646263   -6.9693846  
C   -1.0957281    0.7635435   -4.9673575  
O   -2.0198644    1.5644922   -4.3287676  
C   -0.1496415   -0.0015615   -4.3176961  
H    2.1793384   -1.9313020   -3.8096709  
H    1.7380675   -1.7477618   -7.9897736  
H   -0.4356787    0.0740527   -8.2381070  
H   -2.6343338    1.9980538   -6.2526986  
H   -1.8828076    1.4896276   -3.3794446  
C    3.4036594   -3.0598227   -6.2563273  
C    4.2378190   -3.7251658   -5.3880160  
C    5.1298637   -4.5046044   -6.1825795  
C    4.7894795   -4.2722664   -7.5398134  
N    3.7362031   -3.3918435   -7.5488157  
C    5.4640836   -4.8794475   -8.6033119  
C    6.5013933   -5.7365551   -8.2910110  
O    7.1940187   -6.3558815   -9.2908715  
C    6.8557151   -5.9814203   -6.9429329  
O    7.9096826   -6.8594177   -6.7959092  
C    6.1904636   -5.3829778   -5.8932504  
H    4.2064279   -3.6579455   -4.3140102  
H    3.2863043   -3.0335618   -8.3717421  
H    5.2094350   -4.7066477   -9.6398914  
H    7.8649745   -6.9017881   -8.8606763  
H    8.0847835   -6.9698040   -5.8563568  
H    6.4843417   -5.5900173   -4.8708760  
C    3.3003543    0.0005276   -1.4738987  
C    2.5232814    0.0003497   -2.6090747  
C    1.1623200   -0.0001320   -2.1820103  
C    1.1711883    0.0000582   -0.7636140  
N    2.4852300   -0.0014919   -0.3662360  
C    0.0000000    0.0000000    0.0000000  
C   -1.2020384    0.0000519   -0.6806477  
O   -2.3759249    0.0003493    0.0157743  
C   -1.2314656   -0.0005115   -2.0955510  
O   -2.5054392   -0.0008039   -2.6250180  
C   -0.0764516   -0.0007274   -2.8495195  
H    2.8919955   -0.0005620   -3.6205304  
H    2.8036267    0.0088183    0.5858662  
H   -3.0835638    0.0000347   -0.6418818  
H   -2.4360047   -0.0011529   -3.5845921  
H    4.3715549    0.0004895   -1.3667136  
C    2.3971438    2.0127888    3.1728260  
C    1.9431056    1.6308205    1.9564670  
C    0.8496017    0.7127664    2.2356185  
C    0.7794028    0.6545384    3.7115134  
N    1.6840587    1.4146091    4.2663826  
C   -0.1885723   -0.1578550    4.3957118  
C   -1.0476298   -0.8789867    3.6398520  
O   -2.0015663   -1.6796266    4.1448486  
C   -1.0022026   -0.8410666    2.1483229  
O   -1.8147390   -1.5232959    1.5241687  
C    0.0000000    0.0000000    1.4700000  
H    2.3054237    1.9346118    0.9892483  
H   -0.2170646   -0.1815267    5.4753125  
H   -2.4487139   -2.0549881    3.3649027  
H    3.2048689    2.6911772    3.3971983  
