58

C    5.7052416   -2.0986834   -4.6958674  
C    4.8302129   -1.6343311   -3.7670098  
C    3.9272650   -0.7382853   -4.4501074  
C    4.3509920   -0.7185535   -5.8632096  
N    5.4336785   -1.5634476   -5.9458735  
C    3.7483768    0.0103197   -6.8365043  
C    2.6063698    0.8302498   -6.4676277  
O    1.9959434    1.5225188   -7.2716453  
C    2.1405129    0.8248036   -4.9767377  
O    1.1803932    1.5114042   -4.6542317  
C    2.8699641   -0.0020530   -4.0185824  
H    4.8187251   -1.8901546   -2.7224829  
H    4.0749507    0.0105274   -7.8671642  
H    6.5257693   -2.7867006   -4.5723449  
C    6.6710470   -3.1008767   -7.5407385  
C    7.3223330   -3.0395139   -8.7307549  
C    7.2597697   -1.6669605   -9.1746215  
C    6.5133215   -0.9284144   -8.1382072  
N    6.1844898   -1.8548049   -7.1756275  
C    6.2403390    0.4000477   -8.1869279  
C    6.7130785    1.1526530   -9.3369880  
O    6.5178740    2.3533232   -9.4733197  
C    7.5054875    0.3908198  -10.4467191  
O    7.9082327    1.0138466  -11.4198037  
C    7.7377387   -1.0419734  -10.2823555  
H    7.7927208   -3.8619382   -9.2396440  
H    5.6912861    0.9225843   -7.4159498  
H    8.2874008   -1.5620326  -11.0550992  
H    6.5054049   -3.9516016   -6.8998648  
C    3.2573670   -0.0002921   -1.5109382  
C    2.5379468   -0.0001711   -0.3591962  
C    1.1435043    0.0000330   -0.7338498  
C    1.1092608   -0.0000085   -2.2088474  
N    2.4227562    0.0001906   -2.6182610  
C   -0.0265533   -0.0002525   -2.9515663  
C   -1.3003033   -0.0002641   -2.2514979  
O   -2.3786785   -0.0004132   -2.8306425  
C   -1.2877724    0.0000310   -0.6895608  
O   -2.3539956    0.0003306   -0.0892035  
C    0.0000000    0.0000000    0.0000000  
H    2.9384091   -0.0000370    0.6389240  
H   -0.0296290   -0.0004088   -4.0327231  
H    4.3270394   -0.0004767   -1.6439445  
C    0.0000000    0.0000000    1.4700000  
C    1.0662921    0.0000102    2.3034270  
C    0.4961870   -0.0000064    3.6418889  
C   -0.9663858    0.0000850    3.4240247  
N   -1.2632773    0.0000084    2.1528658  
C   -1.8985362    0.0000517    4.5177257  
C   -1.3925775   -0.0004564    5.7720543  
O   -2.1456383   -0.0005410    6.8851312  
C    0.0786232   -0.0009323    6.0245000  
O    0.4683759   -0.0012588    7.1921102  
C    1.0143166   -0.0008442    4.8859032  
H    2.1107198   -0.0000632    2.0421868  
H   -2.9622183    0.0003270    4.3293377  
H   -1.5042274   -0.0009692    7.6184419  
H    2.0724152   -0.0013148    5.1109744  
