58

C    5.6463485   -0.0007503   -0.7029966  
C    4.7161325   -0.0005435   -1.6923264  
C    5.4339816   -0.0003284   -2.9451346  
C    6.8689501   -0.0004567   -2.6021239  
N    6.9298893   -0.0003134   -1.2276507  
C    7.8767467   -0.0007179   -3.5109974  
C    7.5246255   -0.0006573   -4.9211555  
O    8.3596091   -0.0008153   -5.8162002  
C    6.0111284   -0.0002695   -5.3073308  
O    5.7025034    0.0000912   -6.4913954  
C    5.0159834   -0.0002905   -4.2379666  
H    8.9229464   -0.0009383   -3.2382781  
H    3.9702000   -0.0002261   -4.5137570  
H    5.5021930   -0.0009683    0.3652304  
C    8.1002598   -2.0962358    2.4782601  
C    7.4255770   -1.6325034    1.3948254  
C    8.3169957   -0.7378269    0.6949949  
C    9.5753478   -0.7182227    1.4650305  
N    9.3785821   -1.5618756    2.5338721  
C   10.6706638    0.0095072    1.1297753  
C   10.6057886    0.8282529   -0.0693836  
O   11.5393883    1.5194444   -0.4553193  
C    9.2829718    0.8229192   -0.9000062  
O    9.2164557    1.5085298   -1.9113293  
C    8.1698811   -0.0026509   -0.4381471  
H    6.4183230   -1.8878768    1.1176295  
H   11.5839778    0.0096425    1.7083676  
H    7.7710881   -2.7832292    3.2408711  
H   10.0594947   -1.7605430    3.2437570  
C    3.2573665   -0.0002920   -1.5109385  
C    2.5379463   -0.0001709   -0.3591964  
C    1.1435038    0.0000331   -0.7338500  
C    1.1092599   -0.0000083   -2.2088477  
N    2.4227553    0.0001909   -2.6182613  
C   -0.0265539   -0.0002524   -2.9515660  
C   -1.3003040   -0.0002640   -2.2514977  
O   -2.3786790   -0.0004133   -2.8306421  
C   -1.2877727    0.0000311   -0.6895603  
O   -2.3539959    0.0003306   -0.0892030  
C    0.0000000    0.0000000    0.0000000  
H    2.9384091   -0.0000367    0.6389234  
H   -0.0296303   -0.0004086   -4.0327229  
H    2.7280482   -0.0013407   -3.5742119  
C    2.3971438    2.0127888    3.1728260  
C    1.9431056    1.6308205    1.9564670  
C    0.8496017    0.7127664    2.2356185  
C    0.7794028    0.6545384    3.7115134  
N    1.6840587    1.4146091    4.2663826  
C   -0.1885723   -0.1578550    4.3957118  
C   -1.0476298   -0.8789867    3.6398520  
O   -2.0015663   -1.6796266    4.1448486  
C   -1.0022026   -0.8410666    2.1483229  
O   -1.8147390   -1.5232959    1.5241687  
C    0.0000000    0.0000000    1.4700000  
H    2.3054237    1.9346118    0.9892483  
H   -0.2170646   -0.1815267    5.4753125  
H   -2.4487139   -2.0549881    3.3649027  
H    3.2048689    2.6911772    3.3971983  
