64

C    0.1064601   -0.7138169   -5.1554290  
C   -0.9736297    0.0040464   -4.6965763  
C   -1.4912367    0.7334044   -5.8077556  
C   -0.6795014    0.4177976   -6.9273113  
N    0.2821068   -0.4618996   -6.4959643  
C   -0.8998159    0.9585821   -8.1976668  
C   -1.9590503    1.8336802   -8.3405056  
O   -2.2193114    2.3905122   -9.5592002  
C   -2.7800669    2.1612319   -7.2353094  
O   -3.7933054    3.0470082   -7.5387752  
C   -2.5631419    1.6283223   -5.9817237  
H   -0.2846919    0.7221792   -9.0549514  
H   -2.9888523    2.9621256   -9.4394871  
H   -4.3001568    3.2151107   -6.7384955  
H   -3.2086819    1.8980388   -5.1540711  
H    0.7663118   -1.3844917   -4.6322183  
C    1.7672271   -2.3598070   -7.2528003  
C    2.7599077   -2.5656692   -8.1826786  
C    2.9425380   -1.3328989   -8.8765975  
C    2.0259816   -0.4032979   -8.3218984  
N    1.3266577   -1.0599351   -7.3398642  
C    1.9282310    0.9189882   -8.7655111  
C    2.7713050    1.3100547   -9.7875056  
O    2.7179905    2.5899972  -10.2585885  
C    3.6922751    0.3970231  -10.3540784  
O    4.4619363    0.9380062  -11.3631878  
C    3.7890673   -0.9076715   -9.9171232  
H    3.2867402   -3.4908901   -8.3420736  
H    1.2316814    1.6323433   -8.3470074  
H    3.3795985    2.6506005  -10.9599205  
H    5.0564653    0.2563311  -11.6909961  
H    4.5040601   -1.5842065  -10.3705167  
H    1.3376133   -3.0377545   -6.5353195  
C    1.1188642    0.0008222   -0.8003808  
C    0.0000000    0.0000000    0.0000000  
C   -1.1323862    0.0008899   -0.8673528  
C   -0.6382663    0.0019679   -2.1969280  
N    0.7324016    0.0038481   -2.1202242  
C   -1.4770914    0.0027318   -3.3154808  
C   -2.8395473    0.0020945   -3.0876857  
O   -3.7039201    0.0024425   -4.1440349  
C   -3.3517868    0.0013931   -1.7684331  
O   -4.7300497    0.0012366   -1.7073121  
C   -2.5248543    0.0009123   -0.6644817  
H    1.3576314   -0.0056167   -2.9057046  
H   -4.5940032    0.0021826   -3.7685128  
H   -4.9934602    0.0007259   -0.7819913  
H   -2.9462577    0.0005603    0.3339659  
H    2.1619895    0.0009355   -0.5342068  
C    0.0000000    0.0000000    1.4700000  
C    1.0662921    0.0000102    2.3034270  
C    0.4961870   -0.0000064    3.6418889  
C   -0.9663858    0.0000850    3.4240247  
N   -1.2632773    0.0000084    2.1528658  
C   -1.8985362    0.0000517    4.5177257  
C   -1.3925775   -0.0004564    5.7720543  
O   -2.1456383   -0.0005410    6.8851312  
C    0.0786232   -0.0009323    6.0245000  
O    0.4683759   -0.0012588    7.1921102  
C    1.0143166   -0.0008442    4.8859032  
H    2.1107198   -0.0000632    2.0421868  
H   -2.9622183    0.0003270    4.3293377  
H   -1.5042274   -0.0009692    7.6184419  
H    2.0724152   -0.0013148    5.1109744  
