62

C    3.3003556    0.0005278   -1.4738969  
C    2.5232829    0.0003498   -2.6090736  
C    1.1623214   -0.0001319   -2.1820097  
C    1.1711891    0.0000583   -0.7636137  
N    2.4852304   -0.0014917   -0.3662349  
C    0.0000000    0.0000000    0.0000000  
C   -1.2020379    0.0000520   -0.6806491  
O   -2.3759246    0.0003493    0.0157727  
C   -1.2314644   -0.0005114   -2.0955516  
O   -2.5054374   -0.0008038   -2.6250197  
C   -0.0764500   -0.0007274   -2.8495198  
H    2.8036263    0.0088183    0.5858680  
H   -3.0835634    0.0000347   -0.6418833  
H   -2.4360026   -0.0011530   -3.5845937  
H   -0.1304071   -0.0013423   -3.9319090  
H    4.3715559    0.0004896   -1.3667114  
C    4.1182210   -0.7098244   -4.4345216  
C    4.3063944   -0.4605392   -5.7742659  
C    3.2826566    0.4475819   -6.1766054  
C    2.4931742    0.7193450   -5.0299630  
N    3.0267457   -0.0008949   -3.9901686  
C    1.3904705    1.5784645   -5.0572791  
C    1.0792543    2.1743282   -6.2640387  
O    0.0128541    3.0222361   -6.3468391  
C    1.8547116    1.9154236   -7.4192236  
O    1.4171383    2.5841561   -8.5437986  
C    2.9425287    1.0677818   -7.3930715  
H    5.0850042   -0.8823008   -6.3865374  
H    0.7846369    1.7896267   -4.1868896  
H   -0.0265938    3.3225737   -7.2641756  
H    1.9945726    2.3544006   -9.2782281  
H    4.6753602   -1.3383448   -3.7610850  
C    4.2489392   -0.3445350   -9.0476938  
C    3.7224577    0.8247963   -8.6151878  
C    4.0957436    1.8012132   -9.6270020  
C    4.8655923    1.0280029  -10.6250315  
N    4.9586488   -0.2304331  -10.2908624  
C    5.4195928    1.6416965  -11.8004241  
C    5.2135395    2.9674803  -11.9712269  
O    5.6728643    3.6692897  -13.0212385  
C    4.4405383    3.7750685  -10.9820695  
O    4.2922272    4.9771424  -11.2017138  
C    3.8823819    3.1224805   -9.7843573  
H    5.9781144    1.0525256  -12.5130537  
H    5.3677387    4.5808504  -12.8627830  
H    3.3285645    3.7423396   -9.0920486  
H    4.1934451   -1.3126634   -8.5758657  
C    0.0000000    0.0000000    1.4700000  
C    1.0662921    0.0000102    2.3034270  
C    0.4961870   -0.0000064    3.6418889  
C   -0.9663858    0.0000850    3.4240247  
N   -1.2632773    0.0000084    2.1528658  
C   -1.8985362    0.0000517    4.5177257  
C   -1.3925775   -0.0004564    5.7720543  
O   -2.1456383   -0.0005410    6.8851312  
C    0.0786232   -0.0009323    6.0245000  
O    0.4683759   -0.0012588    7.1921102  
C    1.0143166   -0.0008442    4.8859032  
H    2.1107198   -0.0000632    2.0421868  
H   -2.9622183    0.0003270    4.3293377  
H   -1.5042274   -0.0009692    7.6184419  
H    2.0724152   -0.0013148    5.1109744  
