58

C    3.2798079    0.0005854   -1.4499652  
C    2.5571138    0.0005562   -2.5996556  
C    1.1637429    0.0001546   -2.2210361  
C    1.1336962   -0.0000201   -0.7459474  
N    2.4483511   -0.0001429   -0.3402725  
C    0.0000000    0.0000000    0.0000000  
C   -1.2757372   -0.0000187   -0.6964411  
O   -2.3524601   -0.0000638   -0.1142301  
C   -1.2676502   -0.0000873   -2.2584078  
O   -2.3355772   -0.0004103   -2.8557289  
C    0.0181553    0.0001757   -2.9516294  
H    2.9547344    0.0006073   -3.5989111  
H    4.3498545    0.0008608   -1.3200031  
H    2.7563626    0.0012822    0.6148059  
C    2.5654221   -2.1380213   -5.7671300  
C    2.0750605   -1.7307737   -6.9609784  
C    0.9890563   -0.8211468   -6.6298090  
C    0.9623541   -0.7951243   -5.1515691  
N    1.8841699   -1.5650744   -4.6402746  
C    0.0139728    0.0003876   -4.4216237  
C   -0.8674069    0.7367420   -5.1359671  
O   -1.8069756    1.5244845   -4.5857729  
C   -0.8654624    0.7319005   -6.6286602  
O   -1.6966245    1.4263295   -7.2136036  
C    0.1172739   -0.0924199   -7.3543664  
H    2.4091164   -2.0127392   -7.9448367  
H   -2.2769664    1.9163771   -5.3438499  
H    0.0858748   -0.0683090   -8.4354136  
C    5.2005625   -4.3508449   -8.4952769  
C    5.9748684   -4.9963985   -7.5854490  
C    5.5067800   -4.6008256   -6.2780662  
C    4.3882605   -3.6652115   -6.5024121  
N    4.2537115   -3.5559690   -7.8672756  
C    3.6762784   -3.0669212   -5.5140624  
C    4.0357358   -3.3641495   -4.1374791  
O    3.4549801   -2.8756542   -3.1770644  
C    5.2171915   -4.3520163   -3.8765460  
O    5.5291183   -4.6096449   -2.7217343  
C    5.9090412   -4.9342378   -5.0238099  
H    6.7819596   -5.6723926   -7.8051061  
H    6.7258369   -5.6174389   -4.8345873  
H    5.2421189   -4.3887435   -9.5717185  
H    3.5713419   -2.9880314   -8.3351059  
C    0.0000000    0.0000000    1.4700000  
C    1.0662921    0.0000102    2.3034270  
C    0.4961870   -0.0000064    3.6418889  
C   -0.9663858    0.0000850    3.4240247  
N   -1.2632773    0.0000084    2.1528658  
C   -1.8985362    0.0000517    4.5177257  
C   -1.3925775   -0.0004564    5.7720543  
O   -2.1456383   -0.0005410    6.8851312  
C    0.0786232   -0.0009323    6.0245000  
O    0.4683759   -0.0012588    7.1921102  
C    1.0143166   -0.0008442    4.8859032  
H    2.1107198   -0.0000632    2.0421868  
H   -2.9622183    0.0003270    4.3293377  
H   -1.5042274   -0.0009692    7.6184419  
H    2.0724152   -0.0013148    5.1109744  
