58

C    1.9999929   -2.1070892   -5.1447764  
C    1.9105680   -1.6426499   -6.4177158  
C    0.7784262   -0.7475275   -6.4606979  
C    0.2115589   -0.7283878   -5.0986827  
N    0.9973795   -1.5733448   -4.3494006  
C   -0.8712820    0.0001708   -4.7267112  
C   -1.5219791    0.8200161   -5.7351668  
O   -2.5037630    1.5119145   -5.4992076  
C   -0.9387690    0.8148040   -7.1841817  
O   -1.4783577    1.5008660   -8.0417500  
C    0.2330312   -0.0112905   -7.4640111  
H    2.5631048   -1.8981144   -7.2335260  
H    0.6308010   -0.0091677   -8.4697441  
H    0.8643851   -1.7702172   -3.3744130  
C    1.0965515    0.0001358   -0.8010305  
C    0.0000000    0.0000000    0.0000000  
C   -1.1546563    0.0001469   -0.8669514  
C   -0.6372011    0.0003518   -2.2486282  
N    0.7342874    0.0007336   -2.1395013  
C   -1.4147735    0.0001349   -3.3608718  
C   -2.8576044   -0.0001050   -3.1854466  
O   -3.6427774   -0.0002497   -4.1244912  
C   -3.4275835   -0.0000731   -1.7311675  
O   -4.6406827    0.0000327   -1.5710069  
C   -2.4891864   -0.0001094   -0.6116751  
H   -2.8919123   -0.0002921    0.3920859  
H    2.1388273    0.0000663   -0.5261648  
H    1.3735875   -0.0006099   -2.9130261  
C    2.9735234   -3.0445983   -4.5666631  
C    4.0085748   -3.6584310   -5.1859019  
C    4.6366901   -4.4680536   -4.1531955  
C    3.8298256   -4.2161337   -2.9398979  
N    2.8534253   -3.3825779   -3.1761521  
C    4.1318052   -4.8417214   -1.6819097  
C    5.1914308   -5.6811310   -1.6380927  
O    5.5873507   -6.3329403   -0.5315516  
C    6.0248768   -5.9560660   -2.8455444  
O    6.9745316   -6.7310601   -2.7325820  
C    5.6948022   -5.3020771   -4.1243224  
H    4.3087101   -3.5725036   -6.2162471  
H    3.5252937   -4.6392524   -0.8112435  
H    6.3633401   -6.8504601   -0.8129175  
H    6.3229615   -5.5276598   -4.9756499  
C    0.8175213    0.6860729    2.3021913  
C    0.0000000    0.0000000    1.4700000  
C   -0.8887526   -0.7456559    2.3478473  
C   -0.4549825   -0.3816753    3.7138435  
N    0.5448156    0.4573574    3.6934124  
C   -1.0945674   -0.9182058    4.8835240  
C   -2.1210866   -1.7789155    4.6970523  
O   -2.8083856   -2.3554314    5.6976972  
C   -2.5824069   -2.1655116    3.3310774  
O   -3.5227682   -2.9541547    3.2362962  
C   -1.9100805   -1.6015804    2.1470656  
H   -0.7567140   -0.6349833    5.8697035  
H   -3.4728268   -2.9124471    5.2533954  
H   -2.2742832   -1.9066565    1.1752040  
H    1.6189533    1.3585343    2.0405121  
