62

C    2.3021906   -2.1255950   -5.9826735  
C    1.8095068   -1.6629741   -4.7844620  
C    0.7354734   -0.7756720   -5.0906430  
C    0.6180409   -0.7363233   -6.5036494  
N    1.5855135   -1.5656964   -7.0142914  
C   -0.3411042    0.0395985   -7.1615057  
C   -1.1974964    0.7892231   -6.3786691  
O   -2.1530487    1.5644633   -6.9693777  
C   -1.0957952    0.7634642   -4.9673539  
O   -2.0200012    1.5643295   -4.3287603  
C   -0.1496416   -0.0015611   -4.3176956  
H    2.1795065   -1.9311006   -3.8096787  
H    1.7382194   -1.7475808   -7.9897805  
H   -2.6345083    1.9978454   -6.2526894  
H   -1.8829375    1.4894723   -3.3794379  
H    3.1090430   -2.8095403   -6.1830925  
C    3.3003542    0.0005277   -1.4738988  
C    2.5232812    0.0003500   -2.6090746  
C    1.1623199   -0.0001317   -2.1820102  
C    1.1711883    0.0000584   -0.7636139  
N    2.4852300   -0.0014919   -0.3662359  
C    0.0000000    0.0000000    0.0000000  
C   -1.2020384    0.0000521   -0.6806476  
O   -2.3759249    0.0003494    0.0157746  
C   -1.2314658   -0.0005112   -2.0955510  
O   -2.5054393   -0.0008037   -2.6250177  
C   -0.0764517   -0.0007271   -2.8495192  
H    2.8919953   -0.0005617   -3.6205301  
H    2.8036265    0.0088183    0.5858663  
H   -3.0835641    0.0000349   -0.6418814  
H   -2.4360049   -0.0011526   -3.5845918  
H    4.3715550    0.0004897   -1.3667140  
C   -0.4696858    0.0864276   -8.6251227  
C    0.2698707   -0.5712692   -9.5481987  
C   -0.2815870   -0.1627816  -10.8309817  
C   -1.3769990    0.7687403  -10.4861290  
N   -1.4919781    0.9188194   -9.1945229  
C   -2.1828979    1.4017678  -11.4935466  
C   -1.9067723    1.1174423  -12.7867002  
O   -2.5778753    1.6362046  -13.8290761  
C   -0.8075643    0.1817801  -13.1667518  
O   -0.6125134   -0.0308778  -14.3633940  
C    0.0049259   -0.4549931  -12.1149422  
H    1.0885723   -1.2497440   -9.3794520  
H   -2.9770706    2.0781197  -11.2129264  
H   -2.1530193    1.2483004  -14.6153206  
H    0.7917609   -1.1264438  -12.4316030  
C    2.5528530    2.1414826    2.8079335  
C    2.0663498    1.7338582    4.0032312  
C    0.9804344    0.8229586    3.6752840  
C    0.9495562    0.7966882    2.1971295  
N    1.8690446    1.5676019    1.6831036  
C    0.0000000    0.0000000    1.4700000  
C   -0.8785127   -0.7372425    2.1869543  
O   -1.8187535   -1.5261249    1.6395491  
C   -0.8723269   -0.7321790    3.6796354  
O   -1.7010379   -1.4274584    4.2670412  
C    0.1115397    0.0933559    4.4024240  
H    2.4028853    2.0163452    4.9860947  
H   -2.2861435   -1.9184361    2.3990168  
H    0.0832434    0.0693689    5.4835595  
H    3.3664920    2.8238276    2.6198634  
