62

C    2.3136488   -2.1180447   -5.9171365  
C    1.6624055   -1.6181595   -7.0209773  
C    0.6419641   -0.7441446   -6.5420234  
C    0.7194930   -0.7504914   -5.1257340  
N    1.7437761   -1.5963713   -4.7793973  
C   -0.1387077    0.0017018   -4.3179681  
C   -1.0923523    0.7746130   -4.9514887  
O   -1.9557348    1.5288504   -4.2107385  
C   -1.1856782    0.7938843   -6.3634860  
O   -2.1870605    1.6126760   -6.8432319  
C   -0.3395497    0.0518699   -7.1609865  
H    1.8935980   -1.8552469   -8.0453471  
H    2.0414325   -1.7936223   -3.8410618  
H   -2.5301599    1.9837418   -4.8403217  
H   -2.1819306    1.5683233   -7.8042787  
H    3.1386336   -2.8065411   -5.8513301  
C    3.3041273    0.0001175   -1.5420425  
C    2.5845373   -0.0004782   -0.3695848  
C    1.2040007   -0.0000008   -0.7283589  
C    1.1422376    0.0006037   -2.1454369  
N    2.4348640    0.0026110   -2.6077459  
C   -0.0655178    0.0008798   -2.8497917  
C   -1.2321766    0.0002325   -2.1101405  
O   -2.4392814    0.0001148   -2.7472519  
C   -1.1911209   -0.0000007   -0.6955264  
O   -2.4371529   -0.0002318   -0.1032864  
C    0.0000000    0.0000000    0.0000000  
H    3.0031534   -0.0000664    0.6222594  
H    2.7054633   -0.0071099   -3.5745258  
H   -3.1132988   -0.0000647   -2.0551789  
H   -2.3200283   -0.0004072    0.8516413  
H    4.3686626    0.0004069   -1.7024286  
C   -0.0847000   -2.9268365  -10.4665581  
C   -0.0782302   -2.3818536   -9.2277959  
C   -0.3468203   -0.9676931   -9.4387674  
C   -0.4930952   -0.8306201  -10.9038267  
N   -0.3405532   -1.9757469  -11.5116143  
C   -0.7695745    0.4350325  -11.5257341  
C   -0.8946392    1.5146044  -10.7206145  
O   -1.1521618    2.7564860  -11.1649723  
C   -0.7528263    1.4084870   -9.2384574  
O   -0.8790276    2.4326264   -8.5673148  
C   -0.4691885    0.0990874   -8.6244972  
H    0.0881581   -2.8782120   -8.2870409  
H   -0.8713009    0.5061330  -12.5988173  
H   -1.1831690    3.3060026  -10.3610920  
H    0.0755570   -3.9577865  -10.7393822  
C    2.3971438    2.0127888    3.1728260  
C    1.9431056    1.6308205    1.9564670  
C    0.8496017    0.7127664    2.2356185  
C    0.7794028    0.6545384    3.7115134  
N    1.6840587    1.4146091    4.2663826  
C   -0.1885723   -0.1578550    4.3957118  
C   -1.0476298   -0.8789867    3.6398520  
O   -2.0015663   -1.6796266    4.1448486  
C   -1.0022026   -0.8410666    2.1483229  
O   -1.8147390   -1.5232959    1.5241687  
C    0.0000000    0.0000000    1.4700000  
H    2.3054237    1.9346118    0.9892483  
H   -0.2170646   -0.1815267    5.4753125  
H   -2.4487139   -2.0549881    3.3649027  
H    3.2048689    2.6911772    3.3971983  
