58

C    3.2573672   -0.0002920   -1.5109380  
C    2.5379470   -0.0001710   -0.3591959  
C    1.1435044    0.0000331   -0.7338498  
C    1.1092609   -0.0000083   -2.2088475  
N    2.4227564    0.0001909   -2.6182609  
C   -0.0265532   -0.0002524   -2.9515660  
C   -1.3003037   -0.0002640   -2.2514978  
O   -2.3786783   -0.0004133   -2.8306423  
C   -1.2877723    0.0000311   -0.6895608  
O   -2.3539957    0.0003306   -0.0892035  
C    0.0000000    0.0000000    0.0000000  
H    2.9384091   -0.0000368    0.6389235  
H    2.7280494   -0.0013407   -3.5742112  
C    6.5597225   -0.0008210    1.3835031  
C    7.6114516   -0.0009113    0.5244682  
C    7.0637934   -0.0009870   -0.8115355  
C    5.5962696   -0.0009038   -0.6593375  
N    5.3559138   -0.0012037    0.6953281  
C    4.7161333   -0.0005436   -1.6923256  
C    5.2498355   -0.0004422   -3.0442490  
O    4.5392149   -0.0001860   -4.0409028  
C    6.8008638   -0.0007796   -3.2289589  
O    7.2618459   -0.0010043   -4.3624299  
C    7.6474470   -0.0008761   -2.0385184  
H    8.6521337   -0.0011058    0.7957497  
H    8.7203357   -0.0009046   -2.1750253  
H    6.5627891   -0.0007239    2.4614087  
H    4.4461412    0.0003272    1.1188353  
C    2.5185219   -2.1418787   -5.7664425  
C    2.0285780   -1.7344767   -6.9604095  
C    0.9435062   -0.8236412   -6.6295057  
C    0.9168306   -0.7971605   -5.1512730  
N    1.8378570   -1.5679056   -4.6397541  
C   -0.0307352   -0.0004647   -4.4215603  
C   -0.9113600    0.7365841   -5.1361186  
O   -1.8501209    1.5254491   -4.5861544  
C   -0.9094203    0.7313056   -6.6288100  
O   -1.7398706    1.4264151   -7.2139564  
C    0.0724711   -0.0942327   -7.3542759  
H    2.3623450   -2.0170713   -7.9441857  
H   -2.3197101    1.9176026   -5.3443458  
H    0.0410968   -0.0704048   -8.4353302  
H    3.3327629   -2.8241129   -5.5805893  
C    0.8681109    0.7263879    2.2709268  
C    0.6127770    0.5096195    3.5869401  
C   -0.4920590   -0.4175482    3.6542670  
C   -0.8620974   -0.7254003    2.2596025  
N    0.0000000    0.0000000    1.4700000  
C   -1.8641242   -1.5660088    1.8976294  
C   -2.6293522   -2.2103885    2.9520183  
O   -3.5512764   -2.9839180    2.7283916  
C   -2.2549728   -1.8987399    4.4361073  
O   -2.8923672   -2.4351063    5.3323774  
C   -1.1543735   -0.9755647    4.7012123  
H    1.1382914    0.9492124    4.4159191  
H   -2.1192137   -1.7782617    0.8686553  
H   -0.9013378   -0.7652422    5.7314848  
H    1.6172880    1.3558399    1.8188057  
