62

C    3.3041273    0.0001175   -1.5420435  
C    2.5845372   -0.0004779   -0.3695860  
C    1.2040005   -0.0000008   -0.7283593  
C    1.1422374    0.0006037   -2.1454377  
N    2.4348641    0.0026111   -2.6077466  
C   -0.0655181    0.0008798   -2.8497922  
C   -1.2321766    0.0002323   -2.1101403  
O   -2.4392816    0.0001146   -2.7472523  
C   -1.1911209   -0.0000007   -0.6955264  
O   -2.4371522   -0.0002319   -0.1032863  
C    0.0000000    0.0000000    0.0000000  
H    3.0031538   -0.0000661    0.6222575  
H    2.7054628   -0.0071099   -3.5745264  
H   -3.1132990   -0.0000647   -2.0551788  
H   -2.3200277   -0.0004070    0.8516402  
H    4.3686620    0.0004070   -1.7024297  
C    2.3129716   -2.1206346   -5.9853336  
C    1.8203210   -1.6593260   -4.7866025  
C    0.7463512   -0.7716031   -5.0917860  
C    0.6289215   -0.7306575   -6.5047477  
N    1.5963344   -1.5595250   -7.0163214  
C   -0.3301681    0.0460723   -7.1617305  
C   -1.1865065    0.7948777   -6.3780513  
O   -2.1420034    1.5708500   -6.9678874  
C   -1.0848074    0.7675251   -4.9667660  
O   -2.0089556    1.5677381   -4.3272724  
C   -0.1387083    0.0017018   -4.3179686  
H    2.1903016   -1.9285749   -3.8121219  
H   -0.4247473    0.0817359   -8.2382921  
H   -2.6234320    2.0034608   -6.2507130  
H   -1.8718974    1.4918036   -3.3780344  
H    3.1197745   -2.8044120   -6.1865217  
C    2.1183323   -3.0046592   -9.0357829  
C    1.8199029   -1.8242452   -8.4449015  
C    1.7664482   -0.8621341   -9.5348481  
C    2.0654168   -1.6548937  -10.7467616  
N    2.2724985   -2.9115341  -10.4604718  
C    2.1087141   -1.0594487  -12.0539177  
C    1.8640668    0.2675636  -12.1462252  
O    1.8715886    0.9535528  -13.3018213  
C    1.5589846    1.0946626  -10.9416542  
O    1.3465480    2.2967360  -11.1001178  
C    1.5204401    0.4605833   -9.6118489  
H    2.3299230   -1.6626979  -12.9222879  
H    1.6639535    1.8706938  -13.0470809  
H    1.2957027    1.0942715   -8.7644040  
H    2.2470862   -3.9677220   -8.5679091  
C    0.0000000    0.0000000    1.4700000  
C    1.0662921    0.0000102    2.3034270  
C    0.4961870   -0.0000064    3.6418889  
C   -0.9663858    0.0000850    3.4240247  
N   -1.2632773    0.0000084    2.1528658  
C   -1.8985362    0.0000517    4.5177257  
C   -1.3925775   -0.0004564    5.7720543  
O   -2.1456383   -0.0005410    6.8851312  
C    0.0786232   -0.0009323    6.0245000  
O    0.4683759   -0.0012588    7.1921102  
C    1.0143166   -0.0008442    4.8859032  
H    2.1107198   -0.0000632    2.0421868  
H   -2.9622183    0.0003270    4.3293377  
H   -1.5042274   -0.0009692    7.6184419  
H    2.0724152   -0.0013148    5.1109744  
