58

C    2.8922408   -0.6983018   -3.3324292  
C    1.7334693    0.0049304   -3.2500360  
C    1.6030840    0.7473163   -4.4815792  
C    2.7893711    0.4165532   -5.2940495  
N    3.5310122   -0.4639208   -4.5406410  
C    3.0380450    0.9167664   -6.5308408  
C    2.0730120    1.8428817   -7.0996617  
O    2.2068885    2.3478621   -8.2066274  
C    0.8095315    2.2074830   -6.2567572  
O   -0.0097634    2.9863627   -6.7251184  
C    0.6512121    1.6037995   -4.9360175  
H   -0.2264690    1.8612785   -4.3588654  
H    3.3334063   -1.3678890   -2.6120712  
H    4.4011529   -0.8747035   -4.8255269  
C    1.1319244    0.0015694   -0.8009269  
C    0.7969912    0.0034968   -2.1169398  
C   -0.6453341    0.0035682   -2.1842667  
C   -1.1266834    0.0015391   -0.7896024  
N    0.0000000    0.0000000    0.0000000  
C   -2.4346129    0.0013875   -0.4276293  
C   -3.4350111    0.0031281   -1.4820179  
O   -4.6384619    0.0030806   -1.2583907  
C   -2.9478959    0.0050394   -2.9661073  
O   -3.7809386    0.0062077   -3.8623770  
C   -1.5113828    0.0053030   -3.2312120  
H   -2.7664568    0.0000132    0.6013454  
H   -1.1823532    0.0068360   -4.2614848  
H    2.1104314    0.0009468   -0.3488060  
C    4.2295547    0.5691394   -7.3184698  
C    5.2398668   -0.2643597   -6.9776934  
C    6.1457717   -0.2406085   -8.1157937  
C    5.5099345    0.6837586   -9.0790387  
N    4.3864195    1.1616175   -8.6171377  
C    6.1037861    0.9814856  -10.3533173  
C    7.2795895    0.3832759  -10.6515896  
O    7.9454000    0.5695731  -11.8039919  
C    7.9463548   -0.5541236   -9.7003444  
O    9.0152937   -1.0626093  -10.0380317  
C    7.3171995   -0.8433904   -8.3994178  
H    5.3560715   -0.8258773   -6.0665015  
H    5.6169897    1.6606685  -11.0378970  
H    8.7413800    0.0136702  -11.7231186  
H    7.8320729   -1.5277660   -7.7385358  
C    0.8175213    0.6860729    2.3021913  
C    0.0000000    0.0000000    1.4700000  
C   -0.8887526   -0.7456559    2.3478473  
C   -0.4549825   -0.3816753    3.7138435  
N    0.5448156    0.4573574    3.6934124  
C   -1.0945674   -0.9182058    4.8835240  
C   -2.1210866   -1.7789155    4.6970523  
O   -2.8083856   -2.3554314    5.6976972  
C   -2.5824069   -2.1655116    3.3310774  
O   -3.5227682   -2.9541547    3.2362962  
C   -1.9100805   -1.6015804    2.1470656  
H   -0.7567140   -0.6349833    5.8697035  
H   -3.4728268   -2.9124471    5.2533954  
H   -2.2742832   -1.9066565    1.1752040  
H    1.6189533    1.3585343    2.0405121  
