58

C   -3.2798075    0.0022237   -1.4499647  
C   -2.5571138    0.0016337   -2.5996554  
C   -1.1637431    0.0008420   -2.2210360  
C   -1.1336957    0.0009910   -0.7459469  
N   -2.4483503    0.0022400   -0.3402724  
C    0.0000000    0.0000000    0.0000000  
C    1.2757363   -0.0010742   -0.6964419  
O    2.3524591   -0.0019511   -0.1142306  
C    1.2676492   -0.0009986   -2.2584080  
O    2.3355759   -0.0015907   -2.8557291  
C   -0.0181560   -0.0001606   -2.9516301  
H   -0.0150791   -0.0003191   -4.0331630  
H   -4.3498537    0.0028649   -1.3200023  
H   -2.7563629    0.0010788    0.6148058  
C   -3.1006049    0.0020295   -3.9654951  
C   -4.3994779    0.0019598   -4.3456361  
C   -4.3646275    0.0024662   -5.8000382  
C   -2.9251399    0.0029163   -6.1383557  
N   -2.1793104    0.0025822   -5.0670355  
C   -2.4634042    0.0034435   -7.4991961  
C   -3.3972643    0.0031287   -8.4775823  
O   -3.1090923    0.0035586   -9.7902124  
C   -4.8575541    0.0023009   -8.1682061  
O   -5.6513806    0.0021775   -9.1089820  
C   -5.3059827    0.0018154   -6.7643414  
H   -5.2733147    0.0015179   -3.7167590  
H   -3.9761754    0.0031448  -10.2344201  
H   -6.3723209    0.0011035   -6.5822629  
C   -1.0237131    0.0041622   -7.7961624  
C    0.0079403    0.0044672   -6.9202223  
C    1.2036339    0.0051875   -7.7489660  
C    0.6947958    0.0051161   -9.1373706  
N   -0.6101314    0.0045969   -9.1713445  
C    1.5776352    0.0057648  -10.2712493  
C    2.9083140    0.0068423  -10.0291194  
O    3.8463097    0.0075363  -10.9915144  
C    3.4527635    0.0073144   -8.6392504  
O    4.6750364    0.0081780   -8.4934121  
C    2.5266700    0.0065886   -7.4928326  
H   -0.0369205    0.0043225   -5.8445534  
H    1.1782487    0.0054894  -11.2749430  
H    4.6940771    0.0082675  -10.5114702  
H    2.9608548    0.0070777   -6.5020186  
C    2.5528530    2.1414826    2.8079335  
C    2.0663498    1.7338582    4.0032312  
C    0.9804344    0.8229586    3.6752840  
C    0.9495562    0.7966882    2.1971295  
N    1.8690446    1.5676019    1.6831036  
C    0.0000000    0.0000000    1.4700000  
C   -0.8785127   -0.7372425    2.1869543  
O   -1.8187535   -1.5261249    1.6395491  
C   -0.8723269   -0.7321790    3.6796354  
O   -1.7010379   -1.4274584    4.2670412  
C    0.1115397    0.0933559    4.4024240  
H    2.4028853    2.0163452    4.9860947  
H   -2.2861435   -1.9184361    2.3990168  
H    0.0832434    0.0693689    5.4835595  
H    3.3664920    2.8238276    2.6198634  
