58

C    3.2798085    0.0005856   -1.4499646  
C    2.5571146    0.0005565   -2.5996553  
C    1.1637436    0.0001548   -2.2210360  
C    1.1336964   -0.0000200   -0.7459468  
N    2.4483512   -0.0001429   -0.3402719  
C    0.0000000    0.0000000    0.0000000  
C   -1.2757371   -0.0000187   -0.6964415  
O   -2.3524597   -0.0000640   -0.1142312  
C   -1.2676493   -0.0000873   -2.2584081  
O   -2.3355761   -0.0004101   -2.8557295  
C    0.0181561    0.0001759   -2.9516296  
H    2.9547354    0.0006074   -3.5989104  
H    2.7563628    0.0012823    0.6148064  
C    5.6938836    0.0012955   -2.2318621  
C    4.7390846    0.0009612   -1.2727278  
C    5.4706528    0.0012028   -0.0152273  
C    6.8949563    0.0015827   -0.4126486  
N    7.0320427    0.0017194   -1.7108000  
C    7.9554491    0.0019522    0.5571143  
C    7.6088223    0.0023314    1.8644720  
O    8.4940073    0.0026941    2.8756536  
C    6.1802421    0.0023343    2.2972775  
O    5.9381793    0.0025673    3.5041850  
C    5.1106701    0.0019076    1.2834041  
H    8.9875889    0.0020186    0.2383707  
H    7.9484087    0.0029342    3.6827935  
H    4.0886164    0.0020393    1.6378557  
H    5.5602507    0.0012642   -3.3019631  
C    0.0139740    0.0003878   -4.4216236  
C    1.0778908    0.0006077   -5.2580807  
C    0.5039802    0.0007585   -6.5949153  
C   -0.9579669    0.0004850   -6.3728908  
N   -1.2512408    0.0003478   -5.1008931  
C   -1.8932250    0.0005800   -7.4639358  
C   -1.3908369    0.0013211   -8.7196988  
O   -2.1470611    0.0014886   -9.8306290  
C    0.0796396    0.0019849   -8.9763283  
O    0.4660689    0.0025199  -10.1450425  
C    1.0185685    0.0018290   -7.8403984  
H    2.1230576    0.0007510   -4.9998126  
H   -2.9563668    0.0001680   -7.2725227  
H   -1.5077392    0.0020886  -10.5657614  
H    2.0760224    0.0024411   -8.0684786  
C    0.0000000    0.0000000    1.4700000  
C    1.0541688    0.0001722    2.3260392  
C    0.5103138    0.0000454    3.6635956  
C   -0.9576371   -0.0002459    3.5155732  
N   -1.2018458    0.0001392    2.1615969  
C   -1.8348311   -0.0008317    4.5510609  
C   -1.2972847   -0.0009736    5.9014604  
O   -2.0050672   -0.0014265    6.9001319  
C    0.2542623   -0.0004184    6.0817573  
O    0.7184670   -0.0002256    7.2139121  
C    1.0974552   -0.0000873    4.8889129  
H    2.0940752    0.0005483    2.0517982  
H   -2.9081052   -0.0011668    4.4207061  
H    2.1707277    0.0000911    5.0223670  
H   -2.1128194   -0.0014912    1.7406791  
