58

C   -3.1299754   -0.0296106   -1.7028246  
C   -2.5366575   -0.0245566   -0.4864660  
C   -1.1089365   -0.0109590   -0.7656178  
C   -1.0177426   -0.0095486   -2.2415129  
N   -2.1992638   -0.0203692   -2.7963813  
C    0.2459060    0.0026951   -2.9257115  
C    1.3674653    0.0134477   -2.1698527  
O    2.6128061    0.0254922   -2.6748496  
C    1.3082971    0.0127169   -0.6783233  
O    2.3692174    0.0227736   -0.0541694  
C    0.0000000    0.0000000    0.0000000  
H   -3.0094581   -0.0293612    0.4807532  
H    0.2829448    0.0032387   -4.0053121  
H    3.1965919    0.0310846   -1.8949037  
C   -5.6037233   -0.0534220   -1.1379114  
C   -4.5677438   -0.0430319   -2.0086694  
C   -5.1849904   -0.0478623   -3.3260464  
C   -6.6388395   -0.0618491   -3.0563946  
N   -6.8903946   -0.0650840   -1.7754971  
C   -7.6091958   -0.0701786   -4.1163123  
C   -7.1481224   -0.0643920   -5.3878119  
O   -7.9401985   -0.0709719   -6.4734512  
C   -5.6868827   -0.0499253   -5.6923299  
O   -5.3388559   -0.0454520   -6.8730405  
C   -4.7113911   -0.0416350   -4.5876707  
H   -7.3252633   -0.0641947   -7.2290709  
H   -3.6620029   -0.0310847   -4.8501649  
H   -5.5654307   -0.0538535   -0.0601796  
C   -9.0465859   -0.0843217   -3.8087237  
C   -9.6384089   -0.0912379   -2.5916471  
C  -11.0664692   -0.1047158   -2.8690663  
C  -11.1594735   -0.1040263   -4.3448490  
N   -9.9786354   -0.0921770   -4.9011502  
C  -12.4239587   -0.1155369   -5.0275140  
C  -13.5445871   -0.1275948   -4.2702960  
O  -14.7905444   -0.1391597   -4.7737818  
C  -13.4835888   -0.1289927   -2.7788408  
O  -14.5437404   -0.1401537   -2.1534014  
C  -12.1744635   -0.1169917   -2.1021052  
H   -9.1644234   -0.0877281   -1.6250024  
H  -12.4623206   -0.1145386   -6.1070683  
H  -15.3733721   -0.1459862   -3.9931296  
H  -12.1731364   -0.1185440   -1.0203356  
C    0.0000000    0.0000000    1.4700000  
C    1.0662921    0.0000102    2.3034270  
C    0.4961870   -0.0000064    3.6418889  
C   -0.9663858    0.0000850    3.4240247  
N   -1.2632773    0.0000084    2.1528658  
C   -1.8985362    0.0000517    4.5177257  
C   -1.3925775   -0.0004564    5.7720543  
O   -2.1456383   -0.0005410    6.8851312  
C    0.0786232   -0.0009323    6.0245000  
O    0.4683759   -0.0012588    7.1921102  
C    1.0143166   -0.0008442    4.8859032  
H    2.1107198   -0.0000632    2.0421868  
H   -2.9622183    0.0003270    4.3293377  
H   -1.5042274   -0.0009692    7.6184419  
H    2.0724152   -0.0013148    5.1109744  
