62

C    0.0000000    0.0000000    0.0000000  
C    1.0521661   -0.0011902   -0.8862344  
C    0.4917211   -0.0011956   -2.1979132  
C   -0.9187435    0.0003148   -2.0478678  
N   -1.1833170   -0.0009412   -0.7007910  
C   -1.7951711    0.0010351   -3.1372085  
C   -1.2375846    0.0005226   -4.4010421  
O   -2.0474229    0.0015361   -5.4997574  
C    0.1673569   -0.0013566   -4.5711963  
O    0.5673506   -0.0020687   -5.8915553  
C    1.0325765   -0.0023412   -3.4969895  
H    2.0953057   -0.0030649   -0.6200566  
H   -2.0989777    0.0102372   -0.2891821  
H   -1.4634903    0.0006498   -6.2693591  
H    1.5290693   -0.0033152   -5.9180049  
H    2.1042134   -0.0039609   -3.6584462  
C   -3.2578661    0.0024039   -2.9908499  
C   -4.0046944    0.0033125   -1.8566885  
C   -5.3897524    0.0044627   -2.2646688  
C   -5.3886204    0.0041180   -3.7400636  
N   -4.0656866    0.0032564   -4.1178659  
C   -6.5062997    0.0045471   -4.5098019  
C   -7.7964690    0.0056317   -3.8404755  
O   -8.8606472    0.0061495   -4.4453096  
C   -7.8213911    0.0062654   -2.2786869  
O   -8.9017022    0.0074857   -1.7040673  
C   -6.5505227    0.0054371   -1.5584479  
H   -3.6282787    0.0033734   -0.8492537  
H   -6.5764546    0.0056780   -0.4772210  
H   -3.7375619    0.0012866   -5.0662212  
C   -3.9174626   -2.1191584   -7.3988639  
C   -4.4884065   -1.6198373   -8.5465434  
C   -5.5395014   -0.7445781   -8.1419193  
C   -5.5625645   -0.7496195   -6.7236921  
N   -4.5661131   -1.5959513   -6.3048546  
C   -6.4752356    0.0040105   -5.9794738  
C   -7.3809305    0.7770429   -6.6796989  
O   -8.2940187    1.5326565   -6.0026968  
C   -7.3739181    0.7950251   -8.0947766  
O   -8.3380927    1.6141231   -8.6450410  
C   -6.4740080    0.0515931   -8.8296207  
H   -4.1853828   -1.8580890   -9.5517330  
H   -4.3358825   -1.7925266   -5.3476016  
H   -8.8219922    1.9873820   -6.6718256  
H   -8.2648906    1.5688403   -9.6032653  
H   -6.4928330    0.0854371   -9.9126626  
H   -3.0997918   -2.8082248   -7.2741201  
C    1.0672568    0.0000697    2.3021913  
C    0.0000000    0.0000000    1.4700000  
C   -1.1601224    0.0000736    2.3478473  
C   -0.5938729    0.0000769    3.7138435  
N    0.7113367    0.0001554    3.6934124  
C   -1.4286986    0.0001879    4.8835240  
C   -2.7683114    0.0006799    4.6970523  
O   -3.6653903    0.0008304    5.6976972  
C   -3.3702025    0.0010610    3.3310774  
O   -4.5974910    0.0013779    3.2362962  
C   -2.4926826    0.0008943    2.1470656  
H   -0.9878360   -0.0000190    5.8697035  
H   -4.5324246    0.0012261    5.2533954  
H   -2.9677772    0.0012974    1.1752040  
H    2.1134392    0.0000545    2.0405121  
