60

C    1.1243403    0.0100029   -0.7919009  
C    0.7474064    0.0234619   -2.1148552  
C   -0.6787394    0.0234431   -2.1414700  
C   -1.1201752    0.0098490   -0.7935546  
N    0.0000000    0.0000000    0.0000000  
C   -2.4730820    0.0063480   -0.4408229  
C   -3.3971966    0.0170669   -1.4675046  
O   -4.7313529    0.0145821   -1.1793447  
C   -2.9763667    0.0303235   -2.8186309  
O   -4.0166495    0.0394751   -3.7247606  
C   -1.6418583    0.0335116   -3.1673474  
H    1.4178696    0.0311112   -2.9571216  
H   -2.8160166   -0.0041375    0.5845978  
H   -5.1938831    0.0230387   -2.0274364  
H   -3.6464704    0.0481967   -4.6127325  
H    2.1062461    0.0053017   -0.3505415  
C    1.5662356   -2.0369162   -5.3849803  
C    0.7247490   -1.5841809   -4.4200930  
C   -0.2036066   -0.6824642   -5.0603260  
C    0.1686564   -0.6467444   -6.4875381  
N    1.2488382   -1.4887384   -6.6184712  
C   -0.4698326    0.0914794   -7.4304386  
C   -1.5988986    0.9053202   -7.0116215  
O   -2.2390138    1.6051045   -7.7854791  
C   -2.0104680    0.8829708   -5.5049968  
O   -2.9592560    1.5643190   -5.1405433  
C   -1.2456357    0.0471620   -4.5828760  
H    0.7514465   -1.8512621   -3.3786672  
H   -0.1807858    0.1033808   -8.4721781  
H    2.3916716   -2.7247378   -5.2986885  
C    2.9076315   -5.1989863   -8.2815419  
C    3.4036410   -4.7189855   -9.4510071  
C    3.1128572   -3.3050309   -9.4828319  
C    2.4017076   -2.9984166   -8.2270276  
N    2.3091139   -4.1889670   -7.5437228  
C    1.9550499   -1.7654723   -7.8776710  
C    2.1902406   -0.6671910   -8.8001669  
O    1.8266254    0.4800128   -8.5765407  
C    2.9412046   -0.9690447  -10.1361098  
O    3.1446978   -0.0524218  -10.9207452  
C    3.3746282   -2.3385927  -10.4013148  
H    3.9147169   -5.2902666  -10.2053630  
H    3.8941106   -2.5392015  -11.3284707  
H    2.9287882   -6.2056428   -7.8967240  
H    1.8755167   -4.3057216   -6.6462765  
C    0.0000000    0.0000000    1.4700000  
C    1.0662921    0.0000102    2.3034270  
C    0.4961870   -0.0000064    3.6418889  
C   -0.9663858    0.0000850    3.4240247  
N   -1.2632773    0.0000084    2.1528658  
C   -1.8985362    0.0000517    4.5177257  
C   -1.3925775   -0.0004564    5.7720543  
O   -2.1456383   -0.0005410    6.8851312  
C    0.0786232   -0.0009323    6.0245000  
O    0.4683759   -0.0012588    7.1921102  
C    1.0143166   -0.0008442    4.8859032  
H    2.1107198   -0.0000632    2.0421868  
H   -2.9622183    0.0003270    4.3293377  
H   -1.5042274   -0.0009692    7.6184419  
H    2.0724152   -0.0013148    5.1109744  
