60

C   -3.3003551   -0.0028503   -1.4738957  
C   -2.5232834   -0.0021257   -2.6090724  
C   -1.1623227   -0.0006863   -2.1820091  
C   -1.1711895   -0.0008826   -0.7636129  
N   -2.4852315   -0.0002571   -0.3662339  
C    0.0000000    0.0000000    0.0000000  
C    1.2020373    0.0007939   -0.6806491  
O    2.3759234    0.0013225    0.0157722  
C    1.2314624    0.0013777   -2.0955521  
O    2.5054347    0.0025666   -2.6250202  
C    0.0764478    0.0007808   -2.8495194  
H   -2.8919989   -0.0014735   -3.6205275  
H   -2.8036197   -0.0107913    0.5858688  
H    3.0835618    0.0021352   -0.6418847  
H    2.4359995    0.0028668   -3.5845943  
H    0.1304052    0.0014336   -3.9319088  
C   -4.7630509   -0.0038276   -1.3275358  
C   -5.7197932   -0.0056258   -2.2912351  
C   -6.9965550   -0.0058430   -1.6169097  
C   -6.7031138   -0.0039818   -0.1709913  
N   -5.3315507   -0.0032219   -0.0628039  
C   -7.6461193   -0.0032052    0.8049406  
C   -9.0433290   -0.0045000    0.4045173  
O   -9.9665687   -0.0040015    1.2082141  
C   -9.3772065   -0.0067303   -1.1213681  
O  -10.5499535   -0.0081411   -1.4705437  
C   -8.2742412   -0.0071136   -2.0791355  
H   -5.5504516   -0.0068620   -3.3532783  
H   -7.4095533   -0.0017075    1.8599023  
H   -4.8220256   -0.0003985    0.8017328  
C   -6.5004134   -2.1039760   -5.5364658  
C   -6.7828216   -1.6402080   -4.2917810  
C   -7.9079075   -0.7445540   -4.4214714  
C   -8.2603611   -0.7244149   -5.8540080  
N   -7.3692574   -1.5687233   -6.4752707  
C   -9.2739880    0.0042638   -6.3862607  
C  -10.0708645    0.8235396   -5.4883137  
O  -11.0052572    1.5155881   -5.8707796  
C   -9.7152162    0.8176538   -3.9673650  
O  -10.3788881    1.5037029   -3.2017695  
C   -8.5999679   -0.0089389   -3.5125927  
H   -6.2622682   -1.8961727   -3.3861764  
H   -9.5159501    0.0047779   -7.4399995  
H   -5.7305343   -2.7915731   -5.8469278  
H   -7.3538643   -1.7672422   -7.4588360  
C    2.3971438    2.0127888    3.1728260  
C    1.9431056    1.6308205    1.9564670  
C    0.8496017    0.7127664    2.2356185  
C    0.7794028    0.6545384    3.7115134  
N    1.6840587    1.4146091    4.2663826  
C   -0.1885723   -0.1578550    4.3957118  
C   -1.0476298   -0.8789867    3.6398520  
O   -2.0015663   -1.6796266    4.1448486  
C   -1.0022026   -0.8410666    2.1483229  
O   -1.8147390   -1.5232959    1.5241687  
C    0.0000000    0.0000000    1.4700000  
H    2.3054237    1.9346118    0.9892483  
H   -0.2170646   -0.1815267    5.4753125  
H   -2.4487139   -2.0549881    3.3649027  
H    3.2048689    2.6911772    3.3971983  
