60

C    1.1243404    0.0100774   -0.7919005  
C    0.7474057    0.0235105   -2.1148545  
C   -0.6787398    0.0233965   -2.1414699  
C   -1.1201750    0.0097737   -0.7935548  
N    0.0000000    0.0000000    0.0000000  
C   -2.4730822    0.0061825   -0.4408239  
C   -3.3971968    0.0168391   -1.4675063  
O   -4.7313527    0.0142657   -1.1793469  
C   -2.9763674    0.0301236   -2.8186325  
O   -4.0166505    0.0392055   -3.7247622  
C   -1.6418590    0.0334002   -3.1673482  
H   -2.8160158   -0.0043253    0.5845962  
H   -5.1938839    0.0226913   -2.0274378  
H   -3.6464708    0.0479508   -4.6127341  
H   -1.3497503    0.0434828   -4.2109233  
H    2.1062461    0.0054418   -0.3505411  
C    2.8195323   -0.6690162   -3.3744983  
C    1.6628925    0.0340155   -3.2649301  
C    1.5103291    0.7867448   -4.4876151  
C    2.6812795    0.4622690   -5.3245026  
N    3.4361213   -0.4248113   -4.5922511  
C    2.9074701    0.9727100   -6.5614315  
C    1.9326953    1.9039838   -7.1046431  
O    2.0464983    2.4181550   -8.2096217  
C    0.6851447    2.2620757   -6.2356248  
O   -0.1421574    3.0452134   -6.6823094  
C    0.5507751    1.6474254   -4.9172917  
H   -0.3159918    1.9004524   -4.3219629  
H    3.2734676   -1.3448072   -2.6680010  
H    4.3006311   -0.8335805   -4.8965170  
C    5.0079698   -2.8296582   -7.2042633  
C    5.9804218   -2.4084194   -8.0533627  
C    5.7778342   -0.9933319   -8.2566402  
C    4.5992099   -0.6220149   -7.4505639  
N    4.1794091   -1.7799998   -6.8375978  
C    4.0840885    0.6311610   -7.3737200  
C    4.7337281    1.6844899   -8.1359548  
O    4.3455085    2.8453414   -8.1327853  
C    5.9833336    1.3138557   -8.9967234  
O    6.5384348    2.1922145   -9.6429504  
C    6.4454269   -0.0718984   -8.9992156  
H    6.7515394   -3.0193196   -8.4878668  
H    7.3114241   -0.3202276   -9.5976348  
H    4.8267708   -3.8186343   -6.8156979  
H    3.3935311   -1.8511934   -6.2176183  
C    2.3971438    2.0127888    3.1728260  
C    1.9431056    1.6308205    1.9564670  
C    0.8496017    0.7127664    2.2356185  
C    0.7794028    0.6545384    3.7115134  
N    1.6840587    1.4146091    4.2663826  
C   -0.1885723   -0.1578550    4.3957118  
C   -1.0476298   -0.8789867    3.6398520  
O   -2.0015663   -1.6796266    4.1448486  
C   -1.0022026   -0.8410666    2.1483229  
O   -1.8147390   -1.5232959    1.5241687  
C    0.0000000    0.0000000    1.4700000  
H    2.3054237    1.9346118    0.9892483  
H   -0.2170646   -0.1815267    5.4753125  
H   -2.4487139   -2.0549881    3.3649027  
H    3.2048689    2.6911772    3.3971983  
