58

C    3.2573673   -0.0002921   -1.5109381  
C    2.5379471   -0.0001710   -0.3591960  
C    1.1435044    0.0000331   -0.7338500  
C    1.1092605   -0.0000084   -2.2088475  
N    2.4227563    0.0001908   -2.6182611  
C   -0.0265529   -0.0002525   -2.9515660  
C   -1.3003036   -0.0002641   -2.2514983  
O   -2.3786782   -0.0004134   -2.8306425  
C   -1.2877727    0.0000311   -0.6895607  
O   -2.3539958    0.0003306   -0.0892036  
C    0.0000000    0.0000000    0.0000000  
H    2.9384089   -0.0000367    0.6389237  
H   -0.0296289   -0.0004087   -4.0327234  
H    2.7280494   -0.0013408   -3.5742113  
C    6.4550019   -0.0009258    1.4492358  
C    7.5628472   -0.0014713    0.6718961  
C    7.0625123   -0.0013727   -0.6941805  
C    5.5906520   -0.0008360   -0.5520170  
N    5.2286137   -0.0004914    0.7021431  
C    4.7161334   -0.0005437   -1.6923256  
C    5.2860930   -0.0003878   -2.9188984  
O    4.5914248   -0.0001202   -4.0693228  
C    6.7683529   -0.0005475   -3.0951520  
O    7.2177900   -0.0005155   -4.2411132  
C    7.6440953   -0.0008911   -1.9098250  
H    8.5924161   -0.0017985    0.9866401  
H    5.2697924   -0.0000405   -4.7685866  
H    8.7123916   -0.0008826   -2.0800407  
C    7.4021370   -0.0010326    3.8033932  
C    6.3792079   -0.0007574    2.9172805  
C    5.1753665   -0.0001049    3.7341435  
C    5.6704312   -0.0001786    5.1275188  
N    6.9749581   -0.0006408    5.1744123  
C    4.7764069    0.0004106    6.2525995  
C    3.4481907    0.0014337    5.9973048  
O    2.5007116    0.0020687    6.9503646  
C    2.9175308    0.0019066    4.6021130  
O    1.6967622    0.0027188    4.4441779  
C    3.8549318    0.0012424    3.4649214  
H    5.1658351    0.0001348    7.2601982  
H    1.6577393    0.0027711    6.4619492  
H    3.4305788    0.0017301    2.4698563  
H    8.4604203   -0.0015092    3.5960038  
C    0.8175213    0.6860729    2.3021913  
C    0.0000000    0.0000000    1.4700000  
C   -0.8887526   -0.7456559    2.3478473  
C   -0.4549825   -0.3816753    3.7138435  
N    0.5448156    0.4573574    3.6934124  
C   -1.0945674   -0.9182058    4.8835240  
C   -2.1210866   -1.7789155    4.6970523  
O   -2.8083856   -2.3554314    5.6976972  
C   -2.5824069   -2.1655116    3.3310774  
O   -3.5227682   -2.9541547    3.2362962  
C   -1.9100805   -1.6015804    2.1470656  
H   -0.7567140   -0.6349833    5.8697035  
H   -3.4728268   -2.9124471    5.2533954  
H   -2.2742832   -1.9066565    1.1752040  
H    1.6189533    1.3585343    2.0405121  
