58

C    9.0444195   -0.0023488    0.4102499  
C    9.6362827   -0.0014587    1.6273270  
C   11.0644062   -0.0025206    1.3499076  
C   11.1573989   -0.0041566   -0.1258750  
N    9.9765016   -0.0039829   -0.6821763  
C   12.4219348   -0.0055204   -0.8085396  
C   13.5426283   -0.0048725   -0.0513217  
O   14.7886387   -0.0059933   -0.5548073  
C   13.4816476   -0.0028540    1.4401335  
O   14.5418578   -0.0024873    2.0655734  
C   12.1724673   -0.0015262    2.1168688  
H    9.1622859   -0.0001428    2.5939713  
H   12.4602860   -0.0069089   -1.8880937  
H   15.3715052   -0.0051012    0.2258454  
H   12.1711553    0.0000393    3.1986388  
C    6.5698736   -0.0006427    0.9721617  
C    7.6069601   -0.0018568    0.1026612  
C    6.9912936   -0.0024306   -1.2154640  
C    5.5370515   -0.0015107   -0.9475760  
N    5.2839240   -0.0003803    0.3330154  
C    4.5679461   -0.0016854   -2.0086701  
C    5.0305955   -0.0023425   -3.2796103  
O    4.2398100   -0.0025848   -4.3662100  
C    6.4922750   -0.0029068   -3.5823558  
O    6.8417603   -0.0036172   -4.7626437  
C    7.4664606   -0.0027580   -2.4765138  
H    4.8556979   -0.0030411   -5.1210837  
H    8.5162194   -0.0030655   -2.7377355  
H    6.6068533    0.0001031    2.0499391  
C    3.1301149   -0.0010311   -1.7028252  
C    2.5367768   -0.0002767   -0.4864665  
C    1.1089904    0.0001028   -0.7656183  
C    1.0177872   -0.0004148   -2.2415132  
N    2.1993578   -0.0011611   -2.7963820  
C   -0.2459209   -0.0002877   -2.9257118  
C   -1.3675319   -0.0000605   -2.1698524  
O   -2.6129313    0.0000867   -2.6748490  
C   -1.3083584    0.0000910   -0.6783232  
O   -2.3693261    0.0004206   -0.0541692  
C    0.0000000    0.0000000    0.0000000  
H    3.0096017   -0.0001007    0.4807525  
H   -0.2829630   -0.0004687   -4.0053125  
H   -3.1967441    0.0002094   -1.8949034  
C    0.8175213    0.6860729    2.3021913  
C    0.0000000    0.0000000    1.4700000  
C   -0.8887526   -0.7456559    2.3478473  
C   -0.4549825   -0.3816753    3.7138435  
N    0.5448156    0.4573574    3.6934124  
C   -1.0945674   -0.9182058    4.8835240  
C   -2.1210866   -1.7789155    4.6970523  
O   -2.8083856   -2.3554314    5.6976972  
C   -2.5824069   -2.1655116    3.3310774  
O   -3.5227682   -2.9541547    3.2362962  
C   -1.9100805   -1.6015804    2.1470656  
H   -0.7567140   -0.6349833    5.8697035  
H   -3.4728268   -2.9124471    5.2533954  
H   -2.2742832   -1.9066565    1.1752040  
H    1.6189533    1.3585343    2.0405121  
