60

C    1.1188647    0.0008222   -0.8003809  
C    0.0000000    0.0000000    0.0000000  
C   -1.1323858    0.0008897   -0.8673529  
C   -0.6382654    0.0019677   -2.1969285  
N    0.7324023    0.0038481   -2.1202242  
C   -1.4770906    0.0027315   -3.3154813  
C   -2.8395469    0.0020940   -3.0876862  
O   -3.7039191    0.0024420   -4.1440354  
C   -3.3517865    0.0013925   -1.7684334  
O   -4.7300487    0.0012361   -1.7073134  
C   -2.5248542    0.0009120   -0.6644822  
H   -1.1067563    0.0036985   -4.3313815  
H   -4.5940025    0.0021823   -3.7685139  
H   -4.9934597    0.0007257   -0.7819921  
H   -2.9462573    0.0005599    0.3339647  
H    2.1619897    0.0009356   -0.5342067  
C    4.5154630   -2.1146754   -2.8156717  
C    4.7985782   -1.6646934   -4.0652465  
C    3.7280663   -0.7729176   -4.4441600  
C    2.7913715   -0.7399860   -3.3047266  
N    3.3260549   -1.5745769   -2.3505458  
C    1.6478442   -0.0100100   -3.2703000  
C    1.3174732    0.7969139   -4.4331690  
O    0.3100026    1.4889655   -4.4992703  
C    2.2949961    0.7769789   -5.6513050  
O    2.0272072    1.4520882   -6.6360779  
C    3.4969332   -0.0492778   -5.5706860  
H    5.6590353   -1.9276269   -4.6543934  
H    5.0755446   -2.7955783   -2.1955354  
H    2.9164740   -1.7608863   -1.4535624  
C    5.7592981   -3.2970765   -7.4724879  
C    6.3745905   -2.5948697   -8.4585893  
C    5.9486708   -1.2215909   -8.3261731  
C    5.0282281   -1.1810022   -7.1738153  
N    4.9558463   -2.4710669   -6.7011809  
C    4.4099732   -0.0603058   -6.7226998  
C    4.6681650    1.1892726   -7.4187071  
O    4.1593464    2.2526900   -7.0892415  
C    5.6393796    1.1695875   -8.6418836  
O    5.8641744    2.2154542   -9.2359300  
C    6.2458947   -0.1002756   -9.0335973  
H    7.0496284   -2.9934545   -9.1948403  
H    6.9173520   -0.1053349   -9.8814438  
H    5.8250403   -4.3485427   -7.2444818  
H    4.4058303   -2.7666030   -5.9155677  
C    2.5528530    2.1414826    2.8079335  
C    2.0663498    1.7338582    4.0032312  
C    0.9804344    0.8229586    3.6752840  
C    0.9495562    0.7966882    2.1971295  
N    1.8690446    1.5676019    1.6831036  
C    0.0000000    0.0000000    1.4700000  
C   -0.8785127   -0.7372425    2.1869543  
O   -1.8187535   -1.5261249    1.6395491  
C   -0.8723269   -0.7321790    3.6796354  
O   -1.7010379   -1.4274584    4.2670412  
C    0.1115397    0.0933559    4.4024240  
H    2.4028853    2.0163452    4.9860947  
H   -2.2861435   -1.9184361    2.3990168  
H    0.0832434    0.0693689    5.4835595  
H    3.3664920    2.8238276    2.6198634  
