58

C   -4.4924717    2.0950384   -0.2442175  
C   -3.4157280    1.6323169   -0.9302108  
C   -3.9167331    0.7362616   -1.9455503  
C   -5.3841436    0.7147469   -1.7937836  
N   -5.6689491    1.5587228   -0.7452222  
C   -6.2266191   -0.0146659   -2.5683133  
C   -5.6495852   -0.8333372   -3.6215680  
O   -6.3243550   -1.5259655   -4.3720704  
C   -4.0978599   -0.8259954   -3.8001700  
O   -3.6005721   -1.5115246   -4.6833544  
C   -3.2941076    0.0012878   -2.9038237  
H   -2.3878030    1.8892262   -0.7458681  
H   -7.3001859   -0.0161875   -2.4403982  
H   -4.5254896    2.7825515    0.5853162  
C   -7.5275360    5.2860352    0.6462282  
C   -8.7633203    4.8178602    0.9588380  
C   -8.7646389    3.4041484    0.6651496  
C   -7.4186656    3.0847889    0.1521637  
N   -6.7175320    4.2684809    0.1653783  
C   -7.0178248    1.8482345   -0.2376622  
C   -7.9760727    0.7592412   -0.1460715  
O   -7.7112425   -0.3902937   -0.4727755  
C   -9.4073359    1.0746520    0.3941227  
O  -10.2227317    0.1659299    0.4754542  
C   -9.7216511    2.4469651    0.7837560  
H   -9.5807395    5.3968195    1.3503036  
H  -10.7147898    2.6569822    1.1569728  
H   -7.1404740    6.2888486    0.7264691  
H   -5.7636465    4.3761471   -0.1271231  
C    0.0000000    0.0000000    0.0000000  
C    1.0541688   -0.0001723   -0.8560392  
C    0.5103136   -0.0000455   -2.1935956  
C   -0.9576373    0.0002461   -2.0455730  
N   -1.2018460   -0.0001389   -0.6915968  
C   -1.8348314    0.0008319   -3.0810607  
C   -1.2972851    0.0009739   -4.4314603  
O   -2.0050676    0.0014268   -5.4301316  
C    0.2542619    0.0004184   -4.6117572  
O    0.7184666    0.0002257   -5.7439122  
C    1.0974551    0.0000873   -3.4189129  
H    2.0940752   -0.0005484   -0.5817983  
H    2.1707276   -0.0000912   -3.5523673  
H   -2.1128194    0.0014915   -0.2706789  
C    1.0672568    0.0000697    2.3021913  
C    0.0000000    0.0000000    1.4700000  
C   -1.1601224    0.0000736    2.3478473  
C   -0.5938729    0.0000769    3.7138435  
N    0.7113367    0.0001554    3.6934124  
C   -1.4286986    0.0001879    4.8835240  
C   -2.7683114    0.0006799    4.6970523  
O   -3.6653903    0.0008304    5.6976972  
C   -3.3702025    0.0010610    3.3310774  
O   -4.5974910    0.0013779    3.2362962  
C   -2.4926826    0.0008943    2.1470656  
H   -0.9878360   -0.0000190    5.8697035  
H   -4.5324246    0.0012261    5.2533954  
H   -2.9677772    0.0012974    1.1752040  
H    2.1134392    0.0000545    2.0405121  
