58

C    1.0965513    0.0001360   -0.8010302  
C    0.0000000    0.0000000    0.0000000  
C   -1.1546567    0.0001472   -0.8669508  
C   -0.6372019    0.0003523   -2.2486279  
N    0.7342867    0.0007340   -2.1395008  
C   -1.4147743    0.0001357   -3.3608712  
C   -2.8576055   -0.0001041   -3.1854457  
O   -3.6427785   -0.0002487   -4.1244905  
C   -3.4275843   -0.0000721   -1.7311660  
O   -4.6406831    0.0000340   -1.5710055  
C   -2.4891869   -0.0001089   -0.6116742  
H   -1.0150452    0.0001620   -4.3654240  
H   -2.8919123   -0.0002917    0.3920869  
H    2.1388269    0.0000662   -0.5261641  
C    4.5298619   -2.1105787   -2.7870397  
C    4.8358777   -1.6476827   -4.0264577  
C    3.7723833   -0.7519985   -4.4157717  
C    2.8148499   -0.7308470   -3.2935095  
N    3.3319992   -1.5752941   -2.3383367  
C    1.6707639   -0.0012341   -3.2725969  
C    1.3617417    0.8177038   -4.4329339  
O    0.3555479    1.5104316   -4.5104131  
C    2.3615447    0.8103621   -5.6329947  
O    2.1118346    1.4956453   -6.6154877  
C    3.5619265   -0.0167196   -5.5388083  
H    4.2491892   -0.0160708   -6.3739090  
H    5.0785342   -2.7978859   -2.1637764  
H    2.9059922   -1.7708749   -1.4510297  
C    6.0266938   -1.9987463   -4.8136113  
C    7.0353169   -2.8338356   -4.4717263  
C    7.9412830   -2.8134051   -5.6098423  
C    7.3073266   -1.8890203   -6.5743089  
N    6.1847714   -1.4082891   -6.1130524  
C    7.9017940   -1.5941631   -7.8489668  
C    9.0763916   -2.1951356   -8.1464357  
O    9.7425920   -2.0116937   -9.2990707  
C    9.7412515   -3.1326312   -7.1939525  
O   10.8091663   -3.6437158   -7.5309558  
C    9.1114947   -3.4189214   -5.8926567  
H    7.1503762   -3.3943917   -3.5597975  
H    7.4163786   -0.9148971   -8.5344441  
H   10.5374473   -2.5690957   -9.2174559  
H    9.6249769   -4.1034678   -5.2308698  
C    2.5528530    2.1414826    2.8079335  
C    2.0663498    1.7338582    4.0032312  
C    0.9804344    0.8229586    3.6752840  
C    0.9495562    0.7966882    2.1971295  
N    1.8690446    1.5676019    1.6831036  
C    0.0000000    0.0000000    1.4700000  
C   -0.8785127   -0.7372425    2.1869543  
O   -1.8187535   -1.5261249    1.6395491  
C   -0.8723269   -0.7321790    3.6796354  
O   -1.7010379   -1.4274584    4.2670412  
C    0.1115397    0.0933559    4.4024240  
H    2.4028853    2.0163452    4.9860947  
H   -2.2861435   -1.9184361    2.3990168  
H    0.0832434    0.0693689    5.4835595  
H    3.3664920    2.8238276    2.6198634  
