58

C    1.0965516    0.0001358   -0.8010306  
C    0.0000000    0.0000000    0.0000000  
C   -1.1546562    0.0001470   -0.8669514  
C   -0.6372014    0.0003521   -2.2486283  
N    0.7342871    0.0007338   -2.1395008  
C   -1.4147739    0.0001353   -3.3608717  
C   -2.8576050   -0.0001047   -3.1854460  
O   -3.6427777   -0.0002490   -4.1244903  
C   -3.4275843   -0.0000725   -1.7311663  
O   -4.6406829    0.0000331   -1.5710055  
C   -2.4891867   -0.0001091   -0.6116746  
H   -2.8919122   -0.0002919    0.3920862  
H    2.1388268    0.0000664   -0.5261644  
H    1.3735872   -0.0006096   -2.9130260  
C    1.9957415   -2.1407949   -5.0258942  
C    1.9855629   -1.7332337   -6.3163861  
C    0.8551750   -0.8225478   -6.4132066  
C    0.2799736   -0.7963193   -5.0512081  
N    0.9444051   -1.5670712   -4.2336131  
C   -0.8712825    0.0001712   -4.7267109  
C   -1.4226086    0.7372647   -5.7177042  
O   -2.4987598    1.5259555   -5.5567521  
C   -0.8649830    0.7322387   -7.1023300  
O   -1.4179254    1.4273753   -7.9545392  
C    0.3165528   -0.0930920   -7.4101072  
H    2.6616910   -2.0156328   -7.1051683  
H   -2.6523125    1.9181966   -6.4352284  
H    2.6823207   -2.8229901   -4.5502976  
C    0.8239917   -0.0604680   -8.7893609  
C    1.8837384   -0.7269369   -9.3034971  
C    1.9329921   -0.3309991  -10.7025351  
C    0.7987450    0.6036133  -10.8655292  
N    0.1450245    0.7661761   -9.7473999  
C    0.5013762    1.2267000  -12.1258544  
C    1.3010126    0.9299127  -13.1755371  
O    1.1400345    1.4384261  -14.4090448  
C    2.4536741   -0.0091802  -13.0427316  
O    3.1391275   -0.2333837  -14.0402822  
C    2.7380772   -0.6355812  -11.7394039  
H    2.5498288   -1.4035908   -8.7960141  
H   -0.3339859    1.9055890  -12.2163505  
H    1.8578448    1.0430035  -14.9358673  
H    3.5821760   -1.3099198  -11.6846826  
C    0.0000000    0.0000000    1.4700000  
C    1.0662921    0.0000102    2.3034270  
C    0.4961870   -0.0000064    3.6418889  
C   -0.9663858    0.0000850    3.4240247  
N   -1.2632773    0.0000084    2.1528658  
C   -1.8985362    0.0000517    4.5177257  
C   -1.3925775   -0.0004564    5.7720543  
O   -2.1456383   -0.0005410    6.8851312  
C    0.0786232   -0.0009323    6.0245000  
O    0.4683759   -0.0012588    7.1921102  
C    1.0143166   -0.0008442    4.8859032  
H    2.1107198   -0.0000632    2.0421868  
H   -2.9622183    0.0003270    4.3293377  
H   -1.5042274   -0.0009692    7.6184419  
H    2.0724152   -0.0013148    5.1109744  
