62

C    1.1243408    0.0100056   -0.7919008  
C    0.7474067    0.0234632   -2.1148548  
C   -0.6787390    0.0234407   -2.1414700  
C   -1.1201747    0.0098459   -0.7935548  
N    0.0000000    0.0000000    0.0000000  
C   -2.4730819    0.0063413   -0.4408237  
C   -3.3971961    0.0170574   -1.4675059  
O   -4.7313524    0.0145692   -1.1793460  
C   -2.9763661    0.0303149   -2.8186318  
O   -4.0166491    0.0394637   -3.7247618  
C   -1.6418573    0.0335064   -3.1673481  
H   -2.8160162   -0.0041448    0.5845969  
H   -5.1938829    0.0230244   -2.0274372  
H   -3.6464693    0.0481856   -4.6127338  
H   -1.3497485    0.0435706   -4.2109230  
H    2.1062463    0.0053069   -0.3505414  
C    4.6035529   -2.0932529   -2.9144229  
C    3.4418015   -1.6363687   -2.3364458  
C    2.8380886   -0.7400636   -3.2674499  
C    3.6839049   -0.6895631   -4.4049781  
N    4.7475347   -1.5212494   -4.1567713  
C    3.3988640    0.0972320   -5.5250200  
C    2.2386904    0.8464661   -5.4963344  
O    1.9119637    1.6320618   -6.5636212  
C    1.3821852    0.8096665   -4.3703401  
O    0.2664555    1.6116303   -4.4942146  
C    1.6628938    0.0339099   -3.2649306  
H    3.0751949   -1.9140038   -1.3630436  
H    5.5069137   -1.6969031   -4.7895987  
H    1.0769086    2.0631860   -6.3398370  
H   -0.2581469    1.5289153   -3.6919962  
H    5.3415862   -2.7807890   -2.5381780  
C    5.5938009   -3.0726508   -7.5551903  
C    6.2004455   -2.4001529   -8.5608294  
C    5.7801037   -1.0173550   -8.3944481  
C    4.8981300   -1.0361313   -7.2077075  
N    4.7851929   -2.2381771   -6.7114008  
C    4.2697642    0.1556561   -6.7078213  
C    4.5118079    1.3136312   -7.3634454  
O    3.9918631    2.5005939   -7.0073308  
C    5.3974964    1.3651011   -8.5638906  
O    5.5730614    2.4537692   -9.1108814  
C    6.0303994    0.1289884   -9.0572303  
H    6.8527005   -2.7938167   -9.3215303  
H    4.3446406    3.1317505   -7.6602800  
H    6.6651528    0.2085208   -9.9295784  
H    5.6518312   -4.1258517   -7.3307502  
C    2.3971438    2.0127888    3.1728260  
C    1.9431056    1.6308205    1.9564670  
C    0.8496017    0.7127664    2.2356185  
C    0.7794028    0.6545384    3.7115134  
N    1.6840587    1.4146091    4.2663826  
C   -0.1885723   -0.1578550    4.3957118  
C   -1.0476298   -0.8789867    3.6398520  
O   -2.0015663   -1.6796266    4.1448486  
C   -1.0022026   -0.8410666    2.1483229  
O   -1.8147390   -1.5232959    1.5241687  
C    0.0000000    0.0000000    1.4700000  
H    2.3054237    1.9346118    0.9892483  
H   -0.2170646   -0.1815267    5.4753125  
H   -2.4487139   -2.0549881    3.3649027  
H    3.2048689    2.6911772    3.3971983  
