64

C    1.9074112   -2.1157066   -5.2171216  
C    1.7366766   -1.6153236   -6.4871354  
C    0.6103640   -0.7412455   -6.4423309  
C    0.1310752   -0.7480688   -5.1073547  
N    0.9400195   -1.5942803   -4.3903111  
C   -0.9736297    0.0040464   -4.6965763  
C   -1.6058299    0.7773676   -5.6507640  
O   -2.6892495    1.5315495   -5.3037412  
C   -1.1427627    0.7971171   -6.9879236  
O   -1.8787348    1.6162792   -7.8189839  
C   -0.0531712    0.0551806   -7.3939355  
H    2.3479780   -1.8521278   -7.3410832  
H    0.8493709   -1.7919000   -3.4101524  
H   -2.9736278    1.9867686   -6.1069657  
H   -1.5003150    1.5722382   -8.7024219  
H    0.2783218    0.0903617   -8.4251257  
C    3.9175862   -3.6389590   -5.4301590  
C    2.9102481   -3.0561014   -4.6966646  
C    3.0340267   -3.5405968   -3.3607968  
C    4.1443641   -4.4229887   -3.3392926  
N    4.6566470   -4.4613639   -4.6123639  
C    4.5607556   -5.0865064   -2.1812117  
C    3.8433816   -4.8548024   -1.0236859  
O    4.2070443   -5.4766059    0.1356784  
C    2.7323808   -3.9781662   -1.0251537  
O    2.1218980   -3.8524649    0.2056402  
C    2.3208709   -3.3234605   -2.1673207  
H    5.4562800   -4.9958351   -4.9003025  
H    5.4060770   -5.7603800   -2.1582591  
H    3.5836358   -5.1803266    0.8115816  
H    1.3822273   -3.2435956    0.1174970  
H    1.4660053   -2.6580179   -2.1378252  
H    4.1664852   -3.5342200   -6.4722906  
C    1.1188642    0.0008222   -0.8003808  
C    0.0000000    0.0000000    0.0000000  
C   -1.1323862    0.0008899   -0.8673528  
C   -0.6382663    0.0019679   -2.1969280  
N    0.7324016    0.0038481   -2.1202242  
C   -1.4770914    0.0027318   -3.3154808  
C   -2.8395473    0.0020945   -3.0876857  
O   -3.7039201    0.0024425   -4.1440349  
C   -3.3517868    0.0013931   -1.7684331  
O   -4.7300497    0.0012366   -1.7073121  
C   -2.5248543    0.0009123   -0.6644817  
H    1.3576314   -0.0056167   -2.9057046  
H   -4.5940032    0.0021826   -3.7685128  
H   -4.9934602    0.0007259   -0.7819913  
H   -2.9462577    0.0005603    0.3339659  
H    2.1619895    0.0009355   -0.5342068  
C    0.8175213    0.6860729    2.3021913  
C    0.0000000    0.0000000    1.4700000  
C   -0.8887526   -0.7456559    2.3478473  
C   -0.4549825   -0.3816753    3.7138435  
N    0.5448156    0.4573574    3.6934124  
C   -1.0945674   -0.9182058    4.8835240  
C   -2.1210866   -1.7789155    4.6970523  
O   -2.8083856   -2.3554314    5.6976972  
C   -2.5824069   -2.1655116    3.3310774  
O   -3.5227682   -2.9541547    3.2362962  
C   -1.9100805   -1.6015804    2.1470656  
H   -0.7567140   -0.6349833    5.8697035  
H   -3.4728268   -2.9124471    5.2533954  
H   -2.2742832   -1.9066565    1.1752040  
H    1.6189533    1.3585343    2.0405121  
