58

C   -0.3742253   -0.0620426   -8.7963141  
C    0.3905873   -0.7280532   -9.6924567  
C   -0.1260953   -0.3326868  -10.9936955  
C   -1.2311104    0.6011280  -10.6878912  
N   -1.3812409    0.7637533   -9.4014228  
C   -2.0097753    1.2234809  -11.7229975  
C   -1.6984238    0.9267541  -13.0053182  
O   -2.3413146    1.4346329  -14.0705839  
C   -0.5886552   -0.0115421  -13.3461631  
O   -0.3610196   -0.2357359  -14.5349188  
C    0.1953954   -0.6371992  -12.2664665  
H    1.2048668   -1.4040612   -9.4948764  
H   -2.8117422    1.9017951  -11.4707112  
H   -1.8949887    1.0394438  -14.8411491  
H    0.9910032   -1.3109729  -12.5550272  
C    2.2088374   -2.1426207   -5.8191636  
C    1.6816912   -1.7351243   -6.9971456  
C    0.6077900   -0.8240080   -6.6323121  
C    0.6276206   -0.7974854   -5.1539730  
N    1.5640846   -1.5684500   -4.6716456  
C   -0.2963293   -0.0005341   -4.3948471  
C   -1.1988048    0.7367190   -5.0813825  
O   -2.1196089    1.5258328   -4.5021932  
C   -1.2438086    0.7314045   -6.5733969  
O   -2.0920751    1.4267088   -7.1321599  
C   -0.2854235   -0.0943978   -7.3293552  
H    1.9842852   -2.0178259   -7.9909228  
H   -2.6127107    1.9180866   -5.2452551  
H    3.0283492   -2.8250551   -5.6589865  
C    3.1301146   -0.0010313   -1.7028256  
C    2.5367765   -0.0002766   -0.4864669  
C    1.1089901    0.0001027   -0.7656184  
C    1.0177865   -0.0004150   -2.2415133  
N    2.1993571   -0.0011612   -2.7963824  
C   -0.2459219   -0.0002879   -2.9257116  
C   -1.3675326   -0.0000606   -2.1698520  
O   -2.6129318    0.0000865   -2.6748483  
C   -1.3083588    0.0000910   -0.6783229  
O   -2.3693264    0.0004206   -0.0541685  
C    0.0000000    0.0000000    0.0000000  
H    3.0096016   -0.0001007    0.4807518  
H   -3.1967444    0.0002093   -1.8949026  
H    4.1849275   -0.0015114   -1.9271979  
C    0.0000000    0.0000000    1.4700000  
C    1.0662921    0.0000102    2.3034270  
C    0.4961870   -0.0000064    3.6418889  
C   -0.9663858    0.0000850    3.4240247  
N   -1.2632773    0.0000084    2.1528658  
C   -1.8985362    0.0000517    4.5177257  
C   -1.3925775   -0.0004564    5.7720543  
O   -2.1456383   -0.0005410    6.8851312  
C    0.0786232   -0.0009323    6.0245000  
O    0.4683759   -0.0012588    7.1921102  
C    1.0143166   -0.0008442    4.8859032  
H    2.1107198   -0.0000632    2.0421868  
H   -2.9622183    0.0003270    4.3293377  
H   -1.5042274   -0.0009692    7.6184419  
H    2.0724152   -0.0013148    5.1109744  
