58

C    1.7720689   -2.0859337   -5.3149821  
C    0.8968265   -1.6247193   -4.3847632  
C   -0.0065336   -0.7270830   -5.0652227  
C    0.4171841   -0.7029982   -6.4782597  
N    1.5002593   -1.5471470   -6.5634081  
C   -0.1857665    0.0284586   -7.4494065  
C   -1.3281510    0.8467741   -7.0781197  
O   -1.9388954    1.5411247   -7.8800978  
C   -1.7940048    0.8367264   -5.5872531  
O   -2.7544406    1.5219332   -5.2627294  
C   -1.0641734    0.0073898   -4.6315339  
H    0.8854565   -1.8836205   -3.3409939  
H    0.1408070    0.0318492   -8.4800605  
H    2.0129033   -1.7433395   -7.4034991  
C    3.3534683   -4.2498359   -1.8059738  
C    2.6285251   -3.4569680   -2.6365718  
C    3.2086711   -3.5841985   -3.9526560  
C    4.3391151   -4.5229359   -3.8197656  
N    4.3734027   -4.8893580   -2.4940773  
C    5.1446119   -4.9061605   -4.8425158  
C    4.8807021   -4.3572639   -6.1622116  
O    5.5495534   -4.6406142   -7.1474283  
C    3.6887968   -3.3611012   -6.3260028  
O    3.4571472   -2.8922387   -7.4322434  
C    2.8914949   -3.0241934   -5.1492892  
H    1.7838864   -2.8518843   -2.3589516  
H    5.9684835   -5.5961062   -4.7236786  
H    3.2285652   -4.4205900   -0.7490292  
H    5.0359100   -5.5251515   -2.0892343  
C    1.1319248    0.0015675   -0.8009270  
C    0.7969916    0.0034959   -2.1169404  
C   -0.6453336    0.0035703   -2.1842672  
C   -1.1266831    0.0015415   -0.7896027  
N    0.0000000    0.0000000    0.0000000  
C   -2.4346129    0.0013924   -0.4276297  
C   -3.4350110    0.0031352   -1.4820184  
O   -4.6384610    0.0030897   -1.2583919  
C   -2.9478958    0.0050460   -2.9661075  
O   -3.7809377    0.0062160   -3.8623775  
C   -1.5113821    0.0053068   -3.2312125  
H    1.4821240    0.0045436   -2.9459192  
H   -2.7664565    0.0000185    0.6013447  
H    2.1104318    0.0009428   -0.3488058  
C    2.5528530    2.1414826    2.8079335  
C    2.0663498    1.7338582    4.0032312  
C    0.9804344    0.8229586    3.6752840  
C    0.9495562    0.7966882    2.1971295  
N    1.8690446    1.5676019    1.6831036  
C    0.0000000    0.0000000    1.4700000  
C   -0.8785127   -0.7372425    2.1869543  
O   -1.8187535   -1.5261249    1.6395491  
C   -0.8723269   -0.7321790    3.6796354  
O   -1.7010379   -1.4274584    4.2670412  
C    0.1115397    0.0933559    4.4024240  
H    2.4028853    2.0163452    4.9860947  
H   -2.2861435   -1.9184361    2.3990168  
H    0.0832434    0.0693689    5.4835595  
H    3.3664920    2.8238276    2.6198634  
