58

C    4.6190971   -2.0899186   -2.8279652  
C    3.4606683   -1.6280057   -2.2906061  
C    2.8761397   -0.7301693   -3.2586202  
C    3.7955628   -0.7067282   -4.4122674  
N    4.8319965   -1.5514030   -4.0878914  
C    3.5979908    0.0246979   -5.5381826  
C    2.3999522    0.8436575   -5.6190794  
O    2.1321342    1.5380353   -6.5908895  
C    1.4124495    0.8342977   -4.4088909  
O    0.4006153    1.5200497   -4.4654205  
C    1.7334695    0.0049281   -3.2500363  
H    3.0613135   -1.8865706   -1.3260991  
H    4.2848596    0.0276112   -6.3731162  
H    5.3352946   -2.7782580   -2.4094673  
C    6.5757527   -3.0846406   -5.1110531  
C    7.6232602   -3.0201542   -5.9728216  
C    7.7291352   -1.6464402   -6.4047195  
C    6.6497219   -0.9106171   -5.7189912  
N    5.9870134   -1.8395312   -4.9503395  
C    6.4132144    0.4179684   -5.8626200  
C    7.2794630    1.1735900   -6.7521071  
O    7.1478881    2.3746141   -6.9483959  
C    8.4288546    0.4146722   -7.4888214  
O    9.1643692    1.0402512   -8.2404389  
C    8.5846007   -1.0185477   -7.2532873  
H    8.2501159   -3.8412399   -6.2719613  
H    5.6160521    0.9384796   -5.3502633  
H    9.3829842   -1.5365767   -7.7670504  
H    6.1842157   -3.9370448   -4.5800212  
C    1.1319246    0.0015678   -0.8009268  
C    0.7969914    0.0034958   -2.1169401  
C   -0.6453340    0.0035696   -2.1842669  
C   -1.1266832    0.0015410   -0.7896025  
N    0.0000000    0.0000000    0.0000000  
C   -2.4346129    0.0013913   -0.4276292  
C   -3.4350111    0.0031335   -1.4820181  
O   -4.6384614    0.0030875   -1.2583914  
C   -2.9478961    0.0050442   -2.9661074  
O   -3.7809382    0.0062135   -3.8623773  
C   -1.5113825    0.0053055   -3.2312122  
H   -2.7664565    0.0000174    0.6013448  
H   -1.1823533    0.0068381   -4.2614848  
H    2.1104316    0.0009435   -0.3488059  
C    0.0000000    0.0000000    1.4700000  
C    1.0662921    0.0000102    2.3034270  
C    0.4961870   -0.0000064    3.6418889  
C   -0.9663858    0.0000850    3.4240247  
N   -1.2632773    0.0000084    2.1528658  
C   -1.8985362    0.0000517    4.5177257  
C   -1.3925775   -0.0004564    5.7720543  
O   -2.1456383   -0.0005410    6.8851312  
C    0.0786232   -0.0009323    6.0245000  
O    0.4683759   -0.0012588    7.1921102  
C    1.0143166   -0.0008442    4.8859032  
H    2.1107198   -0.0000632    2.0421868  
H   -2.9622183    0.0003270    4.3293377  
H   -1.5042274   -0.0009692    7.6184419  
H    2.0724152   -0.0013148    5.1109744  
