60

C   -0.9119259    0.6482665   -0.8003802  
C    0.0000000    0.0000000    0.0000000  
C    0.9219481   -0.6575035   -0.8673526  
C    0.5188028   -0.3717941   -2.1969277  
N   -0.5988611    0.4216553   -2.1202237  
C    1.2016830   -0.8589310   -3.3154807  
C    2.3119363   -1.6486300   -3.0876857  
O    3.0158692   -2.1502455   -4.1440352  
C    2.7296238   -1.9451553   -1.7684334  
O    3.8524745   -2.7444138   -1.7073130  
C    2.0562672   -1.4651468   -0.6644817  
H   -1.1026960    0.7919960   -2.9057036  
H    3.7410992   -2.6662776   -3.7685136  
H    4.0673502   -2.8967751   -0.7819921  
H    2.3997550   -1.7092725    0.3339654  
H   -1.7617417    1.2531819   -0.5342064  
C   -0.3302435    2.7959675   -5.2626196  
C    0.1459512    1.8910872   -4.3690286  
C    0.3402596    0.6531543   -5.0863858  
C   -0.0646430    0.9128699   -6.4811588  
N   -0.4611203    2.2297078   -6.5215718  
C   -0.0282933   -0.0087519   -7.4766470  
C    0.4407236   -1.3457703   -7.1527016  
O    0.5103812   -2.2457475   -7.9794360  
C    0.8743489   -1.6431914   -5.6818809  
O    1.2706720   -2.7652995   -5.3971654  
C    0.7907906   -0.5679961   -4.6965761  
H    0.3388869    2.0703012   -3.3263053  
H   -0.3296907    0.2023743   -8.4932572  
H   -0.7924034    2.7065750   -7.3400439  
C   -0.6937337    4.2044844   -5.0508293  
C   -0.6405666    4.9401690   -3.9106466  
C   -1.1079769    6.2653914   -4.2425309  
C   -1.4402210    6.2412848   -5.6798285  
N   -1.1663756    4.9636427   -6.1105593  
C   -1.9170625    7.3036977   -6.3766824  
C   -2.1161442    8.5544383   -5.6635566  
O   -2.5412219    9.5680160   -6.2023243  
C   -1.7706446    8.6028335   -4.1410280  
O   -1.9338622    9.6504363   -3.5301676  
C   -1.2636686    7.3923040   -3.4995880  
H   -0.3113027    4.5940476   -2.9471118  
H   -2.1546206    7.2648342   -7.4307059  
H   -1.0270239    7.4340944   -2.4450846  
H   -1.2925473    4.6329884   -7.0495992  
C    2.5528530    2.1414826    2.8079335  
C    2.0663498    1.7338582    4.0032312  
C    0.9804344    0.8229586    3.6752840  
C    0.9495562    0.7966882    2.1971295  
N    1.8690446    1.5676019    1.6831036  
C    0.0000000    0.0000000    1.4700000  
C   -0.8785127   -0.7372425    2.1869543  
O   -1.8187535   -1.5261249    1.6395491  
C   -0.8723269   -0.7321790    3.6796354  
O   -1.7010379   -1.4274584    4.2670412  
C    0.1115397    0.0933559    4.4024240  
H    2.4028853    2.0163452    4.9860947  
H   -2.2861435   -1.9184361    2.3990168  
H    0.0832434    0.0693689    5.4835595  
H    3.3664920    2.8238276    2.6198634  
