58

C    2.8922408   -0.6983018   -3.3324292  
C    1.7334693    0.0049304   -3.2500360  
C    1.6030840    0.7473163   -4.4815792  
C    2.7893711    0.4165532   -5.2940495  
N    3.5310122   -0.4639208   -4.5406410  
C    3.0380450    0.9167664   -6.5308408  
C    2.0730120    1.8428817   -7.0996617  
O    2.2068885    2.3478621   -8.2066274  
C    0.8095315    2.2074830   -6.2567572  
O   -0.0097634    2.9863627   -6.7251184  
C    0.6512121    1.6037995   -4.9360175  
H   -0.2264690    1.8612785   -4.3588654  
H    3.3334063   -1.3678890   -2.6120712  
H    4.4011529   -0.8747035   -4.8255269  
C    1.1319244    0.0015694   -0.8009269  
C    0.7969912    0.0034968   -2.1169398  
C   -0.6453341    0.0035682   -2.1842667  
C   -1.1266834    0.0015391   -0.7896024  
N    0.0000000    0.0000000    0.0000000  
C   -2.4346129    0.0013875   -0.4276293  
C   -3.4350111    0.0031281   -1.4820179  
O   -4.6384619    0.0030806   -1.2583907  
C   -2.9478959    0.0050394   -2.9661073  
O   -3.7809386    0.0062077   -3.8623770  
C   -1.5113828    0.0053030   -3.2312120  
H   -2.7664568    0.0000132    0.6013454  
H   -1.1823532    0.0068360   -4.2614848  
H    2.1104314    0.0009468   -0.3488060  
C    4.8215697   -0.6416118   -7.4416749  
C    4.2295547    0.5691394   -7.3184698  
C    5.0307071    1.4636959   -8.1397030  
C    6.0941548    0.6027019   -8.7003746  
N    5.9766812   -0.6324872   -8.2947923  
C    7.1066910    1.1191923   -9.5796315  
C    7.0587871    2.4358785   -9.8852085  
O    7.9390997    3.0514776  -10.6927528  
C    5.9978875    3.3306502   -9.3356293  
O    6.0157243    4.5189759   -9.6562288  
C    4.9704676    2.7769989   -8.4357387  
H    7.8720897    0.4671834   -9.9745478  
H    7.6457458    3.9801856  -10.7171993  
H    4.2192054    3.4581039   -8.0590003  
H    4.5286247   -1.5736445   -6.9850877  
C    2.3971438    2.0127888    3.1728260  
C    1.9431056    1.6308205    1.9564670  
C    0.8496017    0.7127664    2.2356185  
C    0.7794028    0.6545384    3.7115134  
N    1.6840587    1.4146091    4.2663826  
C   -0.1885723   -0.1578550    4.3957118  
C   -1.0476298   -0.8789867    3.6398520  
O   -2.0015663   -1.6796266    4.1448486  
C   -1.0022026   -0.8410666    2.1483229  
O   -1.8147390   -1.5232959    1.5241687  
C    0.0000000    0.0000000    1.4700000  
H    2.3054237    1.9346118    0.9892483  
H   -0.2170646   -0.1815267    5.4753125  
H   -2.4487139   -2.0549881    3.3649027  
H    3.2048689    2.6911772    3.3971983  
