60

C    3.3041266    0.0001180   -1.5420446  
C    2.5845369   -0.0004778   -0.3695869  
C    1.2040002   -0.0000006   -0.7283594  
C    1.1422366    0.0006040   -2.1454379  
N    2.4348631    0.0026117   -2.6077477  
C   -0.0655191    0.0008802   -2.8497920  
C   -1.2321776    0.0002326   -2.1101397  
O   -2.4392825    0.0001152   -2.7472516  
C   -1.1911211   -0.0000006   -0.6955258  
O   -2.4371525   -0.0002320   -0.1032853  
C    0.0000000    0.0000000    0.0000000  
H    3.0031538   -0.0000658    0.6222569  
H    2.7054615   -0.0071091   -3.5745273  
H   -3.1132998   -0.0000647   -2.0551775  
H   -2.3200276   -0.0004073    0.8516414  
H    4.3686615    0.0004077   -1.7024308  
C    2.1731786   -2.0070813   -6.1392851  
C    1.7797909   -1.6263714   -4.9015913  
C    0.6726040   -0.7095540   -5.1253816  
C    0.5289359   -0.6505898   -6.5959141  
N    1.4057873   -1.4091980   -7.1956094  
C   -0.4729140    0.1609538   -7.2305644  
C   -1.2941680    0.8805682   -6.4324222  
O   -2.2730599    1.6802757   -6.8887992  
C   -1.1744877    0.8418720   -4.9450283  
O   -1.9557877    1.5227175   -4.2807693  
C   -0.1387098    0.0017024   -4.3179683  
H    2.1901946   -1.9302425   -3.9538007  
H   -0.5551532    0.1851929   -8.3073930  
H   -2.6812858    2.0546319   -6.0873242  
C    4.9411018   -4.2159586   -3.6001985  
C    5.6913281   -4.8820172   -4.5085512  
C    5.1537971   -4.4865780   -5.8012957  
C    4.0539307   -3.5526722   -5.4777219  
N    3.9245469   -3.3900614   -4.1889987  
C    3.2587564   -2.9302294   -6.5001444  
C    3.5493955   -3.2269563   -7.7873182  
O    2.8894815   -2.7189984   -8.8420847  
C    4.6534495   -4.1653424   -8.1460039  
O    4.8618968   -4.3895311   -9.3382747  
C    5.4547269   -4.7910913   -7.0790838  
H    6.5086235   -5.5581008   -4.3241207  
H    3.3233084   -3.1142104   -9.6197442  
H    6.2455265   -5.4649288   -7.3804300  
H    5.0235642   -4.2397233   -2.5252060  
C    2.3971438    2.0127888    3.1728260  
C    1.9431056    1.6308205    1.9564670  
C    0.8496017    0.7127664    2.2356185  
C    0.7794028    0.6545384    3.7115134  
N    1.6840587    1.4146091    4.2663826  
C   -0.1885723   -0.1578550    4.3957118  
C   -1.0476298   -0.8789867    3.6398520  
O   -2.0015663   -1.6796266    4.1448486  
C   -1.0022026   -0.8410666    2.1483229  
O   -1.8147390   -1.5232959    1.5241687  
C    0.0000000    0.0000000    1.4700000  
H    2.3054237    1.9346118    0.9892483  
H   -0.2170646   -0.1815267    5.4753125  
H   -2.4487139   -2.0549881    3.3649027  
H    3.2048689    2.6911772    3.3971983  
