60

C    3.3003547    0.0005275   -1.4738980  
C    2.5232816    0.0003495   -2.6090742  
C    1.1623206   -0.0001320   -2.1820096  
C    1.1711889    0.0000583   -0.7636136  
N    2.4852300   -0.0014920   -0.3662353  
C    0.0000000    0.0000000    0.0000000  
C   -1.2020382    0.0000519   -0.6806479  
O   -2.3759247    0.0003494    0.0157745  
C   -1.2314650   -0.0005113   -2.0955508  
O   -2.5054383   -0.0008037   -2.6250181  
C   -0.0764510   -0.0007273   -2.8495192  
H    2.8919962   -0.0005621   -3.6205295  
H    2.8036265    0.0088181    0.5858667  
H   -3.0835641    0.0000347   -0.6418820  
H   -2.4360047   -0.0011529   -3.5845921  
C    5.6692781    0.0003509   -2.3388886  
C    4.7630506    0.0004754   -1.3275394  
C    5.5107324    0.0002563   -0.0923034  
C    6.9370640    0.0000210   -0.4696224  
N    6.9650293   -0.0003075   -1.8451613  
C    7.9663628    0.0001703    0.4148255  
C    7.6481554    0.0003646    1.8330215  
O    8.5043584    0.0004476    2.7077878  
C    6.1443525    0.0003633    2.2553745  
O    5.8642069    0.0002193    3.4465004  
C    5.1238538    0.0004732    1.2101796  
H    9.0057225    0.0001229    0.1170994  
H    4.0849828    0.0006771    1.5109657  
H    5.4995504    0.0004676   -3.4033520  
H    7.7983621    0.0010317   -2.4042699  
C    0.6255550   -0.6879834   -5.1891748  
C   -0.1496409   -0.0015614   -4.3176961  
C   -1.0811315    0.7434624   -5.1506208  
C   -0.7158460    0.3787721   -6.5363162  
N    0.2838792   -0.4600984   -6.5652203  
C   -1.4129707    0.9145424   -7.6730016  
C   -2.4290864    1.7752033   -7.4361333  
O   -3.1654571    2.3510478   -8.4016397  
C   -2.8218931    2.1625050   -6.0491002  
O   -3.7565099    2.9510602   -5.9080577  
C   -2.0913489    1.5993469   -4.8997161  
H   -1.1245867    0.6308112   -8.6746207  
H   -3.8070523    2.9082157   -7.9251188  
H   -2.4067664    1.9049196   -3.9110975  
H    1.4391420   -1.3601755   -4.9673468  
C    0.0000000    0.0000000    1.4700000  
C    1.0662921    0.0000102    2.3034270  
C    0.4961870   -0.0000064    3.6418889  
C   -0.9663858    0.0000850    3.4240247  
N   -1.2632773    0.0000084    2.1528658  
C   -1.8985362    0.0000517    4.5177257  
C   -1.3925775   -0.0004564    5.7720543  
O   -2.1456383   -0.0005410    6.8851312  
C    0.0786232   -0.0009323    6.0245000  
O    0.4683759   -0.0012588    7.1921102  
C    1.0143166   -0.0008442    4.8859032  
H    2.1107198   -0.0000632    2.0421868  
H   -2.9622183    0.0003270    4.3293377  
H   -1.5042274   -0.0009692    7.6184419  
H    2.0724152   -0.0013148    5.1109744  
