60

C    1.1243404    0.0100774   -0.7919005  
C    0.7474057    0.0235105   -2.1148545  
C   -0.6787398    0.0233965   -2.1414699  
C   -1.1201750    0.0097737   -0.7935548  
N    0.0000000    0.0000000    0.0000000  
C   -2.4730822    0.0061825   -0.4408239  
C   -3.3971968    0.0168391   -1.4675063  
O   -4.7313527    0.0142657   -1.1793469  
C   -2.9763674    0.0301236   -2.8186325  
O   -4.0166505    0.0392055   -3.7247622  
C   -1.6418590    0.0334002   -3.1673482  
H   -2.8160158   -0.0043253    0.5845962  
H   -5.1938839    0.0226913   -2.0274378  
H   -3.6464708    0.0479508   -4.6127341  
H   -1.3497503    0.0434828   -4.2109233  
H    2.1062461    0.0054418   -0.3505411  
C    2.8195323   -0.6690162   -3.3744983  
C    1.6628925    0.0340155   -3.2649301  
C    1.5103291    0.7867448   -4.4876151  
C    2.6812795    0.4622690   -5.3245026  
N    3.4361213   -0.4248113   -4.5922511  
C    2.9074701    0.9727100   -6.5614315  
C    1.9326953    1.9039838   -7.1046431  
O    2.0464983    2.4181550   -8.2096217  
C    0.6851447    2.2620757   -6.2356248  
O   -0.1421574    3.0452134   -6.6823094  
C    0.5507751    1.6474254   -4.9172917  
H   -0.3159918    1.9004524   -4.3219629  
H    3.2734676   -1.3448072   -2.6680010  
H    4.3006311   -0.8335805   -4.8965170  
C    4.0840885    0.6311610   -7.3737200  
C    5.1140486   -0.2036760   -7.0799444  
C    6.0068069   -0.1863366   -8.2146330  
C    5.4082553    0.7336537   -9.2006072  
N    4.2444220    1.1952423   -8.6302409  
C    5.9504146    1.0225771  -10.4106856  
C    7.2072243    0.3847107  -10.7657805  
O    7.7752691    0.5799085  -11.8323284  
C    7.8588234   -0.5933996   -9.7369344  
O    8.9167840   -1.1365775  -10.0249220  
C    7.1797170   -0.8250598   -8.4645353  
H    5.2345412   -0.7674502   -6.1720602  
H    5.4951399    1.7004513  -11.1192906  
H    7.6375516   -1.5035340   -7.7575807  
H    3.6103189    1.8437267   -9.0596919  
C    0.0000000    0.0000000    1.4700000  
C    1.0662921    0.0000102    2.3034270  
C    0.4961870   -0.0000064    3.6418889  
C   -0.9663858    0.0000850    3.4240247  
N   -1.2632773    0.0000084    2.1528658  
C   -1.8985362    0.0000517    4.5177257  
C   -1.3925775   -0.0004564    5.7720543  
O   -2.1456383   -0.0005410    6.8851312  
C    0.0786232   -0.0009323    6.0245000  
O    0.4683759   -0.0012588    7.1921102  
C    1.0143166   -0.0008442    4.8859032  
H    2.1107198   -0.0000632    2.0421868  
H   -2.9622183    0.0003270    4.3293377  
H   -1.5042274   -0.0009692    7.6184419  
H    2.0724152   -0.0013148    5.1109744  
