60

C    0.0000000    0.0000000    0.0000000  
C    1.0521665   -0.0011901   -0.8862342  
C    0.4917217   -0.0011956   -2.1979130  
C   -0.9187428    0.0003148   -2.0478683  
N   -1.1833173   -0.0009411   -0.7007911  
C   -1.7951703    0.0010349   -3.1372088  
C   -1.2375840    0.0005224   -4.4010424  
O   -2.0474220    0.0015359   -5.4997576  
C    0.1673578   -0.0013566   -4.5711965  
O    0.5673521   -0.0020688   -5.8915549  
C    1.0325768   -0.0023412   -3.4969890  
H    2.0953059   -0.0030648   -0.6200563  
H   -2.0989774    0.0102371   -0.2891826  
H   -1.4634888    0.0006496   -6.2693593  
H    1.5290706   -0.0033152   -5.9180048  
C    4.5245063   -2.0170289   -1.5964878  
C    3.2545758   -1.6337813   -1.8647753  
C    3.3688922   -0.7174411   -2.9889427  
C    4.8179316   -0.6615021   -3.2783206  
N    5.5003980   -1.4213292   -2.4653676  
C    5.3513386    0.1487209   -4.3385575  
C    4.4768685    0.8699633   -5.0764229  
O    4.8351495    1.6687173   -6.0960636  
C    3.0087047    0.8343262   -4.8092390  
O    2.2713501    1.5165248   -5.5206702  
C    2.4861699   -0.0045381   -3.7159922  
H    2.3517363   -1.9356975   -1.3619797  
H    6.4146760    0.1707454   -4.5276056  
H    3.9977792    2.0447143   -6.4225463  
H    4.8658291   -2.6947948   -0.8302594  
C   -4.0038864    0.6892042   -2.0945595  
C   -3.2578657    0.0024038   -2.9908504  
C   -4.2205332   -0.7423831   -3.7877590  
C   -5.5362146   -0.3771557   -3.2201536  
N   -5.4155589    0.4618000   -2.2273873  
C   -6.7642619   -0.9125598   -3.7400842  
C   -6.6817234   -1.7733838   -4.7800382  
O   -7.7463630   -2.3489278   -5.3642738  
C   -5.3688274   -2.1612250   -5.3750535  
O   -5.3688780   -2.9499018   -6.3201514  
C   -4.1232342   -1.5984354   -4.8239725  
H   -7.7116387   -0.6284386   -3.3057319  
H   -7.3709427   -2.9063189   -6.0696299  
H   -3.1927479   -1.9043954   -5.2831165  
H   -3.6630872    1.3613755   -1.3231872  
C    3.1301144    0.0010313    3.1728260  
C    2.5367765    0.0002768    1.9564670  
C    1.1089900   -0.0001027    2.2356185  
C    1.0177864    0.0004150    3.7115134  
N    2.1993570    0.0011613    4.2663826  
C   -0.2459220    0.0002880    4.3957118  
C   -1.3675327    0.0000606    3.6398520  
O   -2.6129319   -0.0000866    4.1448486  
C   -1.3083589   -0.0000910    2.1483229  
O   -2.3693264   -0.0004206    1.5241687  
C    0.0000000    0.0000000    1.4700000  
H    3.0096015    0.0001008    0.9892483  
H   -0.2829642    0.0004689    5.4753125  
H   -3.1967446   -0.0002093    3.3649027  
H    4.1849273    0.0015113    3.3971983  
