58

C    0.0000000    0.0000000    0.0000000  
C    1.0541691   -0.0001722   -0.8560385  
C    0.5103148   -0.0000454   -2.1935953  
C   -0.9576360    0.0002459   -2.0455733  
N   -1.2018453   -0.0001391   -0.6915972  
C   -1.8348299    0.0008316   -3.0810614  
C   -1.2972830    0.0009736   -4.4314610  
O   -2.0050651    0.0014265   -5.4301325  
C    0.2542642    0.0004184   -4.6117570  
O    0.7184692    0.0002257   -5.7439117  
C    1.0974567    0.0000874   -3.4189124  
H    2.0940754   -0.0005483   -0.5817975  
H   -2.1128192    0.0014911   -0.2706798  
C    4.3636281   -2.0897860   -1.3068084  
C    3.1526646   -1.6280929   -1.7123717  
C    3.3926039   -0.7336531   -2.8201811  
C    4.8530879   -0.7119657   -3.0282839  
N    5.3836012   -1.5543088   -2.0785979  
C    5.4827015    0.0161948   -3.9848787  
C    4.6675287    0.8332388   -4.8683193  
O    5.1402575    1.5246597   -5.7609365  
C    3.1187362    0.8256860   -4.6658587  
O    2.4221621    1.5098520   -5.4033969  
C    2.5562225   -0.0001552   -3.6002994  
H    2.2000533   -1.8846674   -1.2842191  
H    6.5552933    0.0178694   -4.1207268  
H    4.5967585   -2.7759988   -0.5089036  
H    6.3609949   -1.7514456   -1.9650836  
C   -4.6947983    2.0138961   -0.3183465  
C   -3.5421868    1.6316849   -0.9158251  
C   -3.9514595    0.7140401   -1.9679294  
C   -5.4250710    0.6562901   -1.8596843  
N   -5.8665587    1.4162658   -0.8945336  
C   -6.2212650   -0.1556055   -2.7383125  
C   -5.5747422   -0.8767179   -3.6824208  
O   -6.1913447   -1.6769196   -4.5687161  
C   -4.0886034   -0.8392734   -3.8171472  
O   -3.5672033   -1.5214562   -4.6991838  
C   -3.2941060    0.0012872   -2.9038252  
H   -2.5382356    1.9350695   -0.6726889  
H   -7.2964334   -0.1789342   -2.6364367  
H   -5.4711290   -2.0523909   -5.1067347  
H   -4.8199146    2.6921156    0.5107118  
C    3.3321173   -0.0004715    2.8079335  
C    2.6974184   -0.0000116    4.0032312  
C    1.2800439    0.0002118    3.6752840  
C    1.2395035   -0.0000644    2.1971295  
N    2.4394063   -0.0005460    1.6831036  
C    0.0000000    0.0000000    1.4700000  
C   -1.1468701   -0.0000635    2.1869543  
O   -2.3742202   -0.0000073    1.6395491  
C   -1.1388768   -0.0001607    3.6796354  
O   -2.2206231   -0.0000905    4.2670412  
C    0.1454524   -0.0001816    4.4024240  
H    3.1367986    0.0000651    4.9860947  
H   -2.9844344   -0.0001026    2.3990168  
H    0.1083576   -0.0003682    5.4835595  
H    4.3940039   -0.0007619    2.6198634  
