60

C    0.0000000    0.0000000    0.0000000  
C    1.0662919   -0.0000101   -0.8334274  
C    0.4961866    0.0000066   -2.1718887  
C   -0.9663861   -0.0000848   -1.9540244  
N   -1.2632774   -0.0000083   -0.6828655  
C   -1.8985365   -0.0000514   -3.0477254  
C   -1.3925782    0.0004568   -4.3020539  
O   -2.1456391    0.0005413   -5.4151308  
C    0.0786225    0.0009327   -4.5544999  
O    0.4683751    0.0012594   -5.7221099  
C    1.0143161    0.0008446   -3.4159033  
H    2.1107197    0.0000634   -0.5721869  
H   -1.5042286    0.0009697   -6.1484420  
C    4.6180729   -2.0061846   -1.7279419  
C    3.3335591   -1.6255747   -1.9196175  
C    3.3783508   -0.7093970   -3.0488257  
C    4.8072956   -0.6506551   -3.4246589  
N    5.5388544   -1.4088314   -2.6539582  
C    5.2744730    0.1602677   -4.5151799  
C    4.3558404    0.8795011   -5.1993965  
O    4.6506679    1.6786180   -6.2388815  
C    2.9064336    0.8410150   -4.8445744  
O    2.1263347    1.5214885   -5.5106242  
C    2.4521478    0.0014842   -3.7217489  
H    2.4631338   -1.9291251   -1.3634758  
H    6.3245009    0.1843571   -4.7677083  
H    3.7944552    2.0528232   -6.5146054  
H    5.0061343   -2.6829996   -0.9834262  
C   -4.2186865    2.1401321   -0.0437253  
C   -5.4804245    1.7323143   -0.3144287  
C   -5.3466894    0.8217464   -1.4411410  
C   -3.8965664    0.7958598   -1.7293366  
N   -3.2302255    1.5666945   -0.9133749  
C   -3.3460099   -0.0004261   -2.7913641  
C   -4.2050303   -0.7376506   -3.5315791  
O   -3.8298209   -1.5261787   -4.5530889  
C   -5.6737593   -0.7329690   -3.2651702  
O   -6.3965400   -1.4282088   -3.9789281  
C   -6.2140637    0.0921568   -2.1701072  
H   -6.3895956    2.0144738    0.1884326  
H   -4.6590780   -1.9185766   -4.8809744  
H   -7.2835614    0.0679007   -2.0094311  
H   -3.8917473    2.8223390    0.7248303  
C    1.1188642   -0.0008217    2.2703808  
C    0.0000000    0.0000000    1.4700000  
C   -1.1323862   -0.0008904    2.3373528  
C   -0.6382662   -0.0019682    3.6669281  
N    0.7324016   -0.0038477    3.5902241  
C   -1.4770914   -0.0027325    4.7854808  
C   -2.8395474   -0.0020958    4.5576857  
O   -3.7039201   -0.0024443    5.6140350  
C   -3.3517868   -0.0013946    3.2384331  
O   -4.7300496   -0.0012389    3.1773122  
C   -2.5248543   -0.0009135    2.1344818  
H    1.3576314    0.0056174    4.3757045  
H   -1.1067570   -0.0036993    5.8013813  
H   -4.5940033   -0.0021850    5.2385129  
H   -4.9934601   -0.0007286    2.2519915  
H   -2.9462578   -0.0005617    1.1360343  
H    2.1619896   -0.0009344    2.0042067  
