60

C   -1.1188116    0.0108739   -0.8003804  
C    0.0000000    0.0000000    0.0000000  
C    1.1323150   -0.0127269   -0.8673525  
C    0.6382105   -0.0086396   -2.1969278  
N   -0.7324018    0.0038084   -2.1202234  
C    1.4769819   -0.0181719   -3.3154808  
C    2.8393704   -0.0317768   -3.0876853  
O    3.7036921   -0.0411604   -4.1440348  
C    3.3515891   -0.0364302   -1.7684329  
O    4.7297780   -0.0506814   -1.7073124  
C    2.5247072   -0.0273054   -0.6644812  
H   -1.3574983    0.0198087   -2.9057040  
H    4.5937290   -0.0502051   -3.7685130  
H    4.9931797   -0.0529245   -0.7819916  
H    2.9460911   -0.0313586    0.3339654  
H   -2.1618808    0.0216649   -0.5342067  
C    0.9735342   -0.0142233   -4.6965757  
C   -0.3100015   -0.0013782   -5.1397993  
C   -0.2571563   -0.0032639   -6.5827264  
C    1.1726310   -0.0183983   -6.9464167  
N    1.8657736   -0.0240532   -5.7579674  
C    1.6420866   -0.0248346   -8.2197089  
C    0.6745896   -0.0160595   -9.3043320  
O    0.9974983   -0.0207948  -10.4850137  
C   -0.8447843    0.0002480   -8.9423345  
O   -1.6686305    0.0080499   -9.8470310  
C   -1.2284075    0.0056725   -7.5328464  
H   -1.1930356    0.0084946   -4.5259859  
H   -2.2824181    0.0167709   -7.2906433  
H    2.8657458   -0.0357785   -5.6745051  
C    5.0336383   -2.1658434   -6.4317499  
C    6.0326420   -1.7126561   -7.2321796  
C    5.4311627   -0.8121676   -8.1872606  
C    3.9895211   -0.7776166   -7.8753855  
N    3.8139460   -1.6196813   -6.8016122  
C    3.0737275   -0.0401263   -8.5529805  
C    3.5389589    0.7737555   -9.6636975  
O    2.7921336    1.4728208  -10.3359026  
C    5.0615070    0.7522490  -10.0118222  
O    5.4648600    1.4331703  -10.9450496  
C    5.9513952   -0.0823825   -9.2084904  
H    7.0722277   -1.9789446   -7.1617228  
H    7.0042172   -0.0915334   -9.4558910  
H    5.0857951   -2.8530268   -5.6029261  
H    2.9354438   -1.8069102   -6.3541451  
C    2.5528530    2.1414826    2.8079335  
C    2.0663498    1.7338582    4.0032312  
C    0.9804344    0.8229586    3.6752840  
C    0.9495562    0.7966882    2.1971295  
N    1.8690446    1.5676019    1.6831036  
C    0.0000000    0.0000000    1.4700000  
C   -0.8785127   -0.7372425    2.1869543  
O   -1.8187535   -1.5261249    1.6395491  
C   -0.8723269   -0.7321790    3.6796354  
O   -1.7010379   -1.4274584    4.2670412  
C    0.1115397    0.0933559    4.4024240  
H    2.4028853    2.0163452    4.9860947  
H   -2.2861435   -1.9184361    2.3990168  
H    0.0832434    0.0693689    5.4835595  
H    3.3664920    2.8238276    2.6198634  
