58

C    1.7720688   -2.0859335   -5.3149821  
C    0.8968264   -1.6247192   -4.3847633  
C   -0.0065338   -0.7270827   -5.0652222  
C    0.4171840   -0.7029978   -6.4782597  
N    1.5002593   -1.5471467   -6.5634081  
C   -0.1857668    0.0284589   -7.4494061  
C   -1.3281509    0.8467743   -7.0781197  
O   -1.9388961    1.5411255   -7.8800975  
C   -1.7940050    0.8367266   -5.5872527  
O   -2.7544408    1.5219332   -5.2627290  
C   -1.0641734    0.0073898   -4.6315339  
H    0.8854566   -1.8836207   -3.3409936  
H    0.1408069    0.0318498   -8.4800605  
H    2.5929129   -2.7739334   -5.1934838  
C    2.7383349   -3.0793063   -8.1627889  
C    3.3895926   -3.0141420   -9.3526187  
C    3.3263974   -1.6403174   -9.7924445  
C    2.5796094   -0.9051679   -8.7538624  
N    2.2512042   -1.8345383   -7.7940133  
C    2.3060157    0.4233060   -8.7986739  
C    2.7784087    1.1795097   -9.9465138  
O    2.5826516    2.3804860  -10.0793119  
C    3.5711681    0.4213102  -11.0584809  
O    3.9736264    1.0473831  -12.0297274  
C    3.8040787   -1.0118535  -10.8983339  
H    3.8603586   -3.8348488   -9.8639252  
H    1.7567226    0.9433189   -8.0261621  
H    4.3539801   -1.5293835  -11.6726040  
H    2.5730845   -3.9319894   -7.5244215  
C    1.1319248    0.0015675   -0.8009270  
C    0.7969916    0.0034959   -2.1169404  
C   -0.6453336    0.0035703   -2.1842672  
C   -1.1266831    0.0015415   -0.7896027  
N    0.0000000    0.0000000    0.0000000  
C   -2.4346129    0.0013924   -0.4276297  
C   -3.4350110    0.0031352   -1.4820184  
O   -4.6384610    0.0030897   -1.2583919  
C   -2.9478958    0.0050460   -2.9661075  
O   -3.7809377    0.0062160   -3.8623775  
C   -1.5113821    0.0053068   -3.2312125  
H    1.4821240    0.0045436   -2.9459192  
H   -2.7664565    0.0000185    0.6013447  
H    2.1104318    0.0009428   -0.3488058  
C    2.5528530    2.1414826    2.8079335  
C    2.0663498    1.7338582    4.0032312  
C    0.9804344    0.8229586    3.6752840  
C    0.9495562    0.7966882    2.1971295  
N    1.8690446    1.5676019    1.6831036  
C    0.0000000    0.0000000    1.4700000  
C   -0.8785127   -0.7372425    2.1869543  
O   -1.8187535   -1.5261249    1.6395491  
C   -0.8723269   -0.7321790    3.6796354  
O   -1.7010379   -1.4274584    4.2670412  
C    0.1115397    0.0933559    4.4024240  
H    2.4028853    2.0163452    4.9860947  
H   -2.2861435   -1.9184361    2.3990168  
H    0.0832434    0.0693689    5.4835595  
H    3.3664920    2.8238276    2.6198634  
