58

C   -3.2564933   -0.0753714   -1.5109401  
C   -2.5372651   -0.0587815   -0.3591977  
C   -1.1431940   -0.0265950   -0.7338499  
C   -1.1089594   -0.0257581   -2.2088479  
N   -2.4220956   -0.0564676   -2.6182624  
C    0.0265429    0.0008690   -2.9515654  
C    1.2999493    0.0304678   -2.2514961  
O    2.3780299    0.0556659   -2.8306401  
C    1.2874272    0.0298817   -0.6895587  
O    2.3533682    0.0543488   -0.0892012  
C    0.0000000    0.0000000    0.0000000  
H   -2.9376172   -0.0682177    0.6389222  
H    0.0296151    0.0010967   -4.0327227  
H   -4.3258812   -0.1000337   -1.6439470  
C   -2.8692340   -0.0646125   -4.0185844  
C   -4.1382163   -0.0929371   -4.4881166  
C   -4.0024086   -0.0876894   -5.9365735  
C   -2.5432733   -0.0538598   -6.1739839  
N   -1.8738740   -0.0402895   -5.0533991  
C   -1.9882244   -0.0392198   -7.4994244  
C   -2.8515942   -0.0579316   -8.5403741  
O   -2.4729926   -0.0474336   -9.8297895  
C   -4.3294565   -0.0925291   -8.3332821  
O   -5.0557853   -0.1079941   -9.3269760  
C   -4.8742247   -0.1069443   -6.9639963  
H   -5.0534033   -0.1147935   -3.9215207  
H   -0.9179393   -0.0142420   -7.6435613  
H   -3.3068801   -0.0661914  -10.3332101  
C   -7.5784393    1.9349902   -4.1709576  
C   -8.7662959    1.4431240   -4.6081523  
C   -8.4748453    0.5556407   -5.7091818  
C   -7.0093115    0.5708728   -5.8787968  
N   -6.5254178    1.4264119   -4.9160981  
C   -6.3365469   -0.1412591   -6.8179245  
C   -7.1073212   -0.9784339   -7.7221265  
O   -6.5939610   -1.6576756   -8.6015539  
C   -8.6606406   -1.0096386   -7.5607892  
O   -9.3201362   -1.7105422   -8.3164745  
C   -9.2716357   -0.1986112   -6.5106597  
H   -9.7360264    1.6756266   -4.2054384  
H  -10.3476954   -0.2259570   -6.4054369  
H   -7.3837350    2.6263840   -3.3672443  
H   -5.5563870    1.6458204   -4.7750778  
C    0.8175213    0.6860729    2.3021913  
C    0.0000000    0.0000000    1.4700000  
C   -0.8887526   -0.7456559    2.3478473  
C   -0.4549825   -0.3816753    3.7138435  
N    0.5448156    0.4573574    3.6934124  
C   -1.0945674   -0.9182058    4.8835240  
C   -2.1210866   -1.7789155    4.6970523  
O   -2.8083856   -2.3554314    5.6976972  
C   -2.5824069   -2.1655116    3.3310774  
O   -3.5227682   -2.9541547    3.2362962  
C   -1.9100805   -1.6015804    2.1470656  
H   -0.7567140   -0.6349833    5.8697035  
H   -3.4728268   -2.9124471    5.2533954  
H   -2.2742832   -1.9066565    1.1752040  
H    1.6189533    1.3585343    2.0405121  
