62

C   -3.3039370    0.0352494   -1.5420461  
C   -2.5843829    0.0281426   -0.3695873  
C   -1.2039309    0.0128882   -0.7283601  
C   -1.1421754    0.0116226   -2.1454382  
N   -2.4347492    0.0234517   -2.6077487  
C    0.0655087   -0.0015811   -2.8497913  
C    1.2321062   -0.0134216   -2.1101384  
O    2.4391434   -0.0262247   -2.7472494  
C    1.1910533   -0.0127490   -0.6955248  
O    2.4370159   -0.0258552   -0.1032836  
C    0.0000000    0.0000000    0.0000000  
H   -3.0029808    0.0322116    0.6222556  
H   -2.7052271    0.0360685   -3.5745287  
H    0.1193367   -0.0027619   -3.9297469  
H    3.1131239   -0.0332599   -2.0551752  
H    2.3198992   -0.0244264    0.8516432  
C   -5.7155363    0.0607657   -0.7739158  
C   -4.7574522    0.0504134   -1.7610507  
C   -5.4464040    0.0555178   -3.0100181  
C   -6.8346866    0.0694439   -2.7194955  
N   -6.9630420    0.0703472   -1.3526957  
C   -7.8157499    0.0780310   -3.7156029  
C   -7.3875462    0.0727654   -5.0289161  
O   -8.3032935    0.0810599   -6.0410192  
C   -6.0067753    0.0585220   -5.3388936  
O   -5.7410269    0.0544533   -6.6926682  
C   -5.0383817    0.0497712   -4.3567212  
H   -7.8327502    0.0895448   -0.8514768  
H   -7.7993898    0.0751247   -6.8652227  
H   -4.7868391    0.0447315   -6.8152824  
H   -3.9883529    0.0387246   -4.6246700  
H   -5.6077361    0.0606270    0.2972233  
C  -10.2210096    2.1981844   -0.6797994  
C   -9.2062667    1.7251039   -1.4482814  
C   -9.7943575    0.8334266   -2.4198238  
C  -11.2453062    0.8257698   -2.1524616  
N  -11.4383880    1.6727729   -1.0855997  
C  -12.1531794    0.1040272   -2.8571299  
C  -11.6689325   -0.7204224   -3.9518087  
O  -12.4073891   -1.4069503   -4.6458276  
C  -10.1361925   -0.7277409   -4.2525745  
O   -9.7167428   -1.4182423   -5.1715576  
C   -9.2563688    0.0922765   -3.4235180  
H   -8.1646260    1.9724023   -1.3460928  
H  -13.2132341    0.1126497   -2.6447125  
H  -10.1818898    2.8862830    0.1489829  
H  -12.3270424    1.8791918   -0.6675892  
C    0.8175213    0.6860729    2.3021913  
C    0.0000000    0.0000000    1.4700000  
C   -0.8887526   -0.7456559    2.3478473  
C   -0.4549825   -0.3816753    3.7138435  
N    0.5448156    0.4573574    3.6934124  
C   -1.0945674   -0.9182058    4.8835240  
C   -2.1210866   -1.7789155    4.6970523  
O   -2.8083856   -2.3554314    5.6976972  
C   -2.5824069   -2.1655116    3.3310774  
O   -3.5227682   -2.9541547    3.2362962  
C   -1.9100805   -1.6015804    2.1470656  
H   -0.7567140   -0.6349833    5.8697035  
H   -3.4728268   -2.9124471    5.2533954  
H   -2.2742832   -1.9066565    1.1752040  
H    1.6189533    1.3585343    2.0405121  
