58

C    1.1319246    0.0015691   -0.8009266  
C    0.7969911    0.0034968   -2.1169399  
C   -0.6453340    0.0035688   -2.1842668  
C   -1.1266840    0.0015398   -0.7896020  
N    0.0000000    0.0000000    0.0000000  
C   -2.4346129    0.0013886   -0.4276289  
C   -3.4350107    0.0031296   -1.4820179  
O   -4.6384616    0.0030823   -1.2583904  
C   -2.9478963    0.0050412   -2.9661065  
O   -3.7809384    0.0062097   -3.8623765  
C   -1.5113828    0.0053040   -3.2312120  
H   -2.7664562    0.0000141    0.6013455  
H   -1.1823540    0.0068368   -4.2614843  
H    2.1104315    0.0009458   -0.3488058  
C    4.6221969   -2.0851197   -2.8253993  
C    3.4630833   -1.6242666   -2.2886067  
C    2.8772276   -0.7284830   -3.2577199  
C    3.7966179   -0.7050915   -4.4113941  
N    4.8343012   -1.5478317   -4.0859839  
C    3.5979651    0.0246625   -5.5382040  
C    2.3987147    0.8417460   -5.6201041  
O    2.1298698    1.5345363   -6.5927631  
C    1.4112236    0.8324040   -4.4099055  
O    0.3983743    1.5165864   -4.4672752  
C    1.7334690    0.0049301   -3.2500363  
H    3.0641099   -1.8822425   -1.3237847  
H    4.2848306    0.0275718   -6.3731400  
H    5.3394122   -2.7718842   -2.4060589  
C    6.9231714   -5.3002915   -4.8229816  
C    7.8849845   -4.9239441   -5.6975425  
C    7.6774824   -3.4972174   -5.8922056  
C    6.5172400   -3.1691228   -5.0361829  
N    6.0708302   -4.2220709   -4.4068913  
C    5.9897467   -1.8353035   -4.9480781  
C    6.5941121   -0.8729189   -5.6814897  
O    6.2074577    0.4140713   -5.6954623  
C    7.7671605   -1.1724918   -6.5546293  
O    8.2673003   -0.2474075   -7.1943952  
C    8.2896213   -2.5485653   -6.6279885  
H    8.6418583   -5.5385785   -6.1540969  
H    6.8261734    0.8522173   -6.3073218  
H    9.1408470   -2.7242927   -7.2720111  
H    6.7377587   -6.2843339   -4.4226616  
C    0.0000000    0.0000000    1.4700000  
C    1.0662921    0.0000102    2.3034270  
C    0.4961870   -0.0000064    3.6418889  
C   -0.9663858    0.0000850    3.4240247  
N   -1.2632773    0.0000084    2.1528658  
C   -1.8985362    0.0000517    4.5177257  
C   -1.3925775   -0.0004564    5.7720543  
O   -2.1456383   -0.0005410    6.8851312  
C    0.0786232   -0.0009323    6.0245000  
O    0.4683759   -0.0012588    7.1921102  
C    1.0143166   -0.0008442    4.8859032  
H    2.1107198   -0.0000632    2.0421868  
H   -2.9622183    0.0003270    4.3293377  
H   -1.5042274   -0.0009692    7.6184419  
H    2.0724152   -0.0013148    5.1109744  
