58

C    1.9999911   -2.1070885   -5.1447767  
C    1.9105659   -1.6426488   -6.4177164  
C    0.7784245   -0.7475267   -6.4606979  
C    0.2115577   -0.7283871   -5.0986830  
N    0.9973780   -1.5733441   -4.3494009  
C   -0.8712832    0.0001717   -4.7267108  
C   -1.5219805    0.8200172   -5.7351660  
O   -2.5037645    1.5119160   -5.4992068  
C   -0.9387710    0.8148054   -7.1841812  
O   -1.4783600    1.5008679   -8.0417489  
C    0.2330291   -0.0112894   -7.4640108  
H    2.5631026   -1.8981135   -7.2335269  
H    2.7138539   -2.7945380   -4.7208627  
H    0.8643837   -1.7702166   -3.3744133  
C    1.0965512    0.0001360   -0.8010309  
C    0.0000000    0.0000000    0.0000000  
C   -1.1546565    0.0001472   -0.8669511  
C   -0.6372019    0.0003522   -2.2486278  
N    0.7342867    0.0007340   -2.1395013  
C   -1.4147744    0.0001358   -3.3608714  
C   -2.8576056   -0.0001041   -3.1854455  
O   -3.6427787   -0.0002485   -4.1244896  
C   -3.4275841   -0.0000722   -1.7311659  
O   -4.6406834    0.0000336   -1.5710048  
C   -2.4891869   -0.0001088   -0.6116742  
H   -2.8919125   -0.0002917    0.3920873  
H    2.1388271    0.0000665   -0.5261651  
H    1.3735866   -0.0006094   -2.9130262  
C    0.7736677   -0.0084037   -8.8309791  
C    1.8404398   -0.6919330   -9.3067556  
C    1.9262297   -0.3229655  -10.7113919  
C    0.8032435    0.6163288  -10.9192672  
N    0.1240989    0.8046630   -9.8205028  
C    0.5408888    1.2174647  -12.1978964  
C    1.3632558    0.8952072  -13.2221987  
O    1.2357475    1.3813445  -14.4685749  
C    2.5053419   -0.0492687  -13.0439690  
O    3.2128532   -0.2971662  -14.0202862  
C    2.7536783   -0.6528113  -11.7226100  
H    2.4890750   -1.3634981   -8.7707065  
H   -0.2869600    1.9003645  -12.3212824  
H    1.9630232    0.9709665  -14.9703845  
H    3.5911538   -1.3319017  -11.6348556  
C    0.8175213    0.6860729    2.3021913  
C    0.0000000    0.0000000    1.4700000  
C   -0.8887526   -0.7456559    2.3478473  
C   -0.4549825   -0.3816753    3.7138435  
N    0.5448156    0.4573574    3.6934124  
C   -1.0945674   -0.9182058    4.8835240  
C   -2.1210866   -1.7789155    4.6970523  
O   -2.8083856   -2.3554314    5.6976972  
C   -2.5824069   -2.1655116    3.3310774  
O   -3.5227682   -2.9541547    3.2362962  
C   -1.9100805   -1.6015804    2.1470656  
H   -0.7567140   -0.6349833    5.8697035  
H   -3.4728268   -2.9124471    5.2533954  
H   -2.2742832   -1.9066565    1.1752040  
H    1.6189533    1.3585343    2.0405121  
