58

C   -3.2573605   -0.0065335   -1.5109380  
C   -2.5379415   -0.0051471   -0.3591960  
C   -1.1435019   -0.0024293   -0.7338498  
C   -1.1092587   -0.0023161   -2.2088473  
N   -2.4227506   -0.0052676   -2.6182608  
C    0.0265529    0.0003080   -2.9515662  
C    1.3003009    0.0029887   -2.2514979  
O    2.3786720    0.0053976   -2.8306424  
C    1.2877697    0.0026672   -0.6895606  
O    2.3539918    0.0046020   -0.0892037  
C    0.0000000    0.0000000    0.0000000  
H   -2.9384026   -0.0061204    0.6389238  
H    0.0296281    0.0004706   -4.0327233  
H   -2.7280460   -0.0043757   -3.5742108  
C   -5.6463360   -0.0120636   -0.7029957  
C   -4.7161240   -0.0093387   -1.6923253  
C   -5.4339737   -0.0100232   -2.9451334  
C   -6.8689375   -0.0133652   -2.6021223  
N   -6.9298739   -0.0148654   -1.2276498  
C   -7.8767342   -0.0145190   -3.5109952  
C   -7.5246171   -0.0125484   -4.9211527  
O   -8.3596007   -0.0134364   -5.8161964  
C   -6.0111238   -0.0092542   -5.3073282  
O   -5.7025013   -0.0078811   -6.4913938  
C   -5.0159792   -0.0079891   -4.2379647  
H   -8.9229312   -0.0168488   -3.2382756  
H   -3.9701986   -0.0055013   -4.5137555  
H   -5.5021789   -0.0124778    0.3652307  
C   -8.1698656   -0.0159654   -0.4381443  
C   -8.3002058   -0.0159788    0.9089234  
C   -9.7354319   -0.0173178    1.1468809  
C  -10.3371723   -0.0178863   -0.2038571  
N   -9.4243636   -0.0171788   -1.1370063  
C  -11.7603820   -0.0192625   -0.4027523  
C  -12.5467083   -0.0204245    0.6977133  
O  -13.8900769   -0.0217658    0.6602922  
C  -11.9695033   -0.0202615    2.0743015  
O  -12.7450917   -0.0212424    3.0301687  
C  -10.5065211   -0.0187949    2.2520735  
H   -7.5189014   -0.0152690    1.6496252  
H  -12.1727517   -0.0194448   -1.4011815  
H  -14.1641596   -0.0223818    1.5951884  
H  -10.1280933   -0.0188385    3.2654945  
C    2.3971438    2.0127888    3.1728260  
C    1.9431056    1.6308205    1.9564670  
C    0.8496017    0.7127664    2.2356185  
C    0.7794028    0.6545384    3.7115134  
N    1.6840587    1.4146091    4.2663826  
C   -0.1885723   -0.1578550    4.3957118  
C   -1.0476298   -0.8789867    3.6398520  
O   -2.0015663   -1.6796266    4.1448486  
C   -1.0022026   -0.8410666    2.1483229  
O   -1.8147390   -1.5232959    1.5241687  
C    0.0000000    0.0000000    1.4700000  
H    2.3054237    1.9346118    0.9892483  
H   -0.2170646   -0.1815267    5.4753125  
H   -2.4487139   -2.0549881    3.3649027  
H    3.2048689    2.6911772    3.3971983  
