58

C    3.2573673   -0.0002921   -1.5109381  
C    2.5379471   -0.0001710   -0.3591960  
C    1.1435044    0.0000331   -0.7338500  
C    1.1092605   -0.0000084   -2.2088475  
N    2.4227563    0.0001908   -2.6182611  
C   -0.0265529   -0.0002525   -2.9515660  
C   -1.3003036   -0.0002641   -2.2514983  
O   -2.3786782   -0.0004134   -2.8306425  
C   -1.2877727    0.0000311   -0.6895607  
O   -2.3539958    0.0003306   -0.0892036  
C    0.0000000    0.0000000    0.0000000  
H    2.9384089   -0.0000367    0.6389237  
H   -0.0296289   -0.0004087   -4.0327234  
H    2.7280494   -0.0013408   -3.5742113  
C    6.4550019   -0.0009258    1.4492358  
C    7.5628472   -0.0014713    0.6718961  
C    7.0625123   -0.0013727   -0.6941805  
C    5.5906520   -0.0008360   -0.5520170  
N    5.2286137   -0.0004914    0.7021431  
C    4.7161334   -0.0005437   -1.6923256  
C    5.2860930   -0.0003878   -2.9188984  
O    4.5914248   -0.0001202   -4.0693228  
C    6.7683529   -0.0005475   -3.0951520  
O    7.2177900   -0.0005155   -4.2411132  
C    7.6440953   -0.0008911   -1.9098250  
H    8.5924161   -0.0017985    0.9866401  
H    5.2697924   -0.0000405   -4.7685866  
H    8.7123916   -0.0008826   -2.0800407  
C    9.6379078   -0.0024499    4.4252403  
C    8.9424233   -0.0015913    5.5862224  
C    7.5438433   -0.0008210    5.1856308  
C    7.5795713   -0.0012497    3.7073523  
N    8.8043814   -0.0022850    3.2558778  
C    6.3792079   -0.0007574    2.9172805  
C    5.1968968   -0.0002659    3.5741479  
O    3.9994042    0.0002338    2.9641881  
C    5.1279160   -0.0001954    5.0652553  
O    4.0173219    0.0003882    5.5961047  
C    6.3732696   -0.0006632    5.8533035  
H    9.3305426   -0.0015833    6.5904332  
H    3.3508429    0.0004771    3.6911825  
H    6.2804799   -0.0007107    6.9310885  
H   10.7080790   -0.0031997    4.2921719  
C    0.8175213    0.6860729    2.3021913  
C    0.0000000    0.0000000    1.4700000  
C   -0.8887526   -0.7456559    2.3478473  
C   -0.4549825   -0.3816753    3.7138435  
N    0.5448156    0.4573574    3.6934124  
C   -1.0945674   -0.9182058    4.8835240  
C   -2.1210866   -1.7789155    4.6970523  
O   -2.8083856   -2.3554314    5.6976972  
C   -2.5824069   -2.1655116    3.3310774  
O   -3.5227682   -2.9541547    3.2362962  
C   -1.9100805   -1.6015804    2.1470656  
H   -0.7567140   -0.6349833    5.8697035  
H   -3.4728268   -2.9124471    5.2533954  
H   -2.2742832   -1.9066565    1.1752040  
H    1.6189533    1.3585343    2.0405121  
