58

C    6.6174604   -0.0017048    1.3537082  
C    5.3857488   -0.0012517    0.7819028  
C    5.5854749   -0.0008504   -0.6481128  
C    7.0449748   -0.0011378   -0.8640993  
N    7.6133357   -0.0012549    0.3888394  
C    7.6418659   -0.0012960   -2.0828796  
C    6.7899755   -0.0009490   -3.2605124  
O    7.2316305   -0.0009952   -4.4021083  
C    5.2415215   -0.0003890   -3.0553446  
O    4.5141875    0.0002132   -4.0393395  
C    4.7161325   -0.0005435   -1.6923264  
H    4.4446710   -0.0010218    1.3024655  
H    8.7143808   -0.0016366   -2.2193391  
H    8.5996517   -0.0030073    0.5738417  
C    6.0761550   -0.0007746    3.8326902  
C    6.7231808    0.0005901    5.0266045  
C    8.1380736    0.0003562    4.7386556  
C    8.2632108   -0.0012390    3.2685774  
N    6.9774632   -0.0022609    2.7789441  
C    9.4426654   -0.0015075    2.5973154  
C   10.6708189   -0.0003598    3.3745993  
O   11.7828558   -0.0005565    2.8630571  
C   10.5619913    0.0010848    4.9327902  
O   11.5891625    0.0017524    5.5977554  
C    9.2341466    0.0015269    5.5416252  
H    6.2619296    0.0014584    5.9981285  
H    9.5124074   -0.0025571    1.5184059  
H    9.1674517    0.0027340    6.6211039  
H    5.0167205   -0.0010365    3.6339732  
C    3.2573665   -0.0002920   -1.5109385  
C    2.5379463   -0.0001709   -0.3591964  
C    1.1435038    0.0000331   -0.7338500  
C    1.1092599   -0.0000083   -2.2088477  
N    2.4227553    0.0001909   -2.6182613  
C   -0.0265539   -0.0002524   -2.9515660  
C   -1.3003040   -0.0002640   -2.2514977  
O   -2.3786790   -0.0004133   -2.8306421  
C   -1.2877727    0.0000311   -0.6895603  
O   -2.3539959    0.0003306   -0.0892030  
C    0.0000000    0.0000000    0.0000000  
H    2.9384091   -0.0000367    0.6389234  
H   -0.0296303   -0.0004086   -4.0327229  
H    2.7280482   -0.0013407   -3.5742119  
C    2.5528530    2.1414826    2.8079335  
C    2.0663498    1.7338582    4.0032312  
C    0.9804344    0.8229586    3.6752840  
C    0.9495562    0.7966882    2.1971295  
N    1.8690446    1.5676019    1.6831036  
C    0.0000000    0.0000000    1.4700000  
C   -0.8785127   -0.7372425    2.1869543  
O   -1.8187535   -1.5261249    1.6395491  
C   -0.8723269   -0.7321790    3.6796354  
O   -1.7010379   -1.4274584    4.2670412  
C    0.1115397    0.0933559    4.4024240  
H    2.4028853    2.0163452    4.9860947  
H   -2.2861435   -1.9184361    2.3990168  
H    0.0832434    0.0693689    5.4835595  
H    3.3664920    2.8238276    2.6198634  
