58

C    1.1319247    0.0015672   -0.8009268  
C    0.7969918    0.0034953   -2.1169401  
C   -0.6453339    0.0035696   -2.1842671  
C   -1.1266833    0.0015413   -0.7896028  
N    0.0000000    0.0000000    0.0000000  
C   -2.4346131    0.0013924   -0.4276296  
C   -3.4350115    0.0031349   -1.4820181  
O   -4.6384612    0.0030897   -1.2583917  
C   -2.9478958    0.0050454   -2.9661077  
O   -3.7809379    0.0062151   -3.8623778  
C   -1.5113824    0.0053060   -3.2312123  
H    1.4821237    0.0045428   -2.9459193  
H   -2.7664566    0.0000186    0.6013444  
H    2.1104318    0.0009426   -0.3488058  
C    1.7411999   -1.9992951   -5.5261467  
C    0.9379143   -1.6197493   -4.5052370  
C   -0.0205729   -0.7029843   -5.1030198  
C    0.3614474   -0.6427736   -6.5302614  
N    1.3934676   -1.4006646   -6.7842801  
C   -0.3540361    0.1690980   -7.4757952  
C   -1.4036916    0.8878354   -7.0164749  
O   -2.1602966    1.6877211   -7.7870411  
C   -1.8141040    0.8478723   -5.5818582  
O   -2.7793015    1.5279657   -5.2338823  
C   -1.0641735    0.0073886   -4.6315339  
H    0.9893834   -1.9243529   -3.4739062  
H   -2.8242388    2.0612889   -7.1797676  
H    2.5801840   -2.6761212   -5.4947512  
C    1.0118543   -3.0450322  -10.0817894  
C    1.2338312   -2.3925794  -11.2465265  
C    0.8944394   -1.0052183  -10.9698637  
C    0.4753907   -0.9996925   -9.5517836  
N    0.5422102   -2.1925721   -9.0258916  
C    0.0559137    0.2033323   -8.8870601  
C    0.0554702    1.3488365   -9.6061944  
O   -0.3117538    2.5440864   -9.1136854  
C    0.4732343    1.3757486  -11.0389926  
O    0.4479182    2.4541151  -11.6320400  
C    0.8992940    0.1284959  -11.6983551  
H    1.5846503   -2.8021593  -12.1783226  
H   -0.2065163    3.1623876   -9.8591931  
H    1.1944910    0.1902169  -12.7372380  
H    1.1452731   -4.0945131   -9.8725950  
C    2.5528530    2.1414826    2.8079335  
C    2.0663498    1.7338582    4.0032312  
C    0.9804344    0.8229586    3.6752840  
C    0.9495562    0.7966882    2.1971295  
N    1.8690446    1.5676019    1.6831036  
C    0.0000000    0.0000000    1.4700000  
C   -0.8785127   -0.7372425    2.1869543  
O   -1.8187535   -1.5261249    1.6395491  
C   -0.8723269   -0.7321790    3.6796354  
O   -1.7010379   -1.4274584    4.2670412  
C    0.1115397    0.0933559    4.4024240  
H    2.4028853    2.0163452    4.9860947  
H   -2.2861435   -1.9184361    2.3990168  
H    0.0832434    0.0693689    5.4835595  
H    3.3664920    2.8238276    2.6198634  
