62

C    3.3041274    0.0001173   -1.5420423  
C    2.5845372   -0.0004782   -0.3695851  
C    1.2040007   -0.0000010   -0.7283585  
C    1.1422379    0.0006032   -2.1454371  
N    2.4348643    0.0026104   -2.6077458  
C   -0.0655180    0.0008792   -2.8497916  
C   -1.2321769    0.0002319   -2.1101395  
O   -2.4392807    0.0001139   -2.7472519  
C   -1.1911208   -0.0000009   -0.6955263  
O   -2.4371523   -0.0002321   -0.1032864  
C    0.0000000    0.0000000    0.0000000  
H    3.0031534   -0.0000660    0.6222590  
H   -0.1193543    0.0014836   -3.9297468  
H   -3.1132982   -0.0000652   -2.0551783  
H   -2.3200280   -0.0004069    0.8516408  
H    4.3686624    0.0004066   -1.7024282  
C    5.6515803   -2.1002982   -4.7818998  
C    4.8081961   -1.6310303   -3.8266162  
C    3.8761267   -0.7467210   -4.4854631  
C    4.2482789   -0.7392331   -5.9131314  
N    5.3319472   -1.5792879   -6.0265373  
C    3.6067603   -0.0234904   -6.8711869  
C    2.4743168    0.7942192   -6.4693695  
O    1.8313268    1.4750501   -7.2576170  
C    2.0628008    0.8015922   -4.9625827  
O    1.1111845    1.4864532   -4.6123641  
C    2.8310669   -0.0116229   -4.0232744  
H    4.8359715   -1.8762192   -2.7798480  
H    3.8957845   -0.0321206   -7.9129644  
H    6.4798596   -2.7827413   -4.6813289  
C    7.0193110   -5.3410798   -7.6267271  
C    7.5017910   -4.8285054   -8.8086523  
C    7.1844177   -3.4379114   -8.8197498  
C    6.5027536   -3.1568929   -7.6080202  
N    6.4177757   -4.3347013   -6.9079036  
C    6.0393362   -1.8792938   -7.2797324  
C    6.2684917   -0.8668770   -8.1911468  
O    5.8374978    0.3996655   -7.9207266  
C    6.9464661   -1.1275667   -9.4057292  
O    7.0966799   -0.0154662  -10.2082325  
C    7.4036785   -2.3877612   -9.7303730  
H    8.0179168   -5.3882689   -9.5697515  
H    5.9946784   -4.4432659   -6.0039219  
H    6.0957540    0.9431629   -8.6764911  
H    7.5638247   -0.2778766  -11.0073078  
H    7.9195874   -2.5571046  -10.6682633  
H    7.0554132   -6.3452119   -7.2402378  
C    2.5528530    2.1414826    2.8079335  
C    2.0663498    1.7338582    4.0032312  
C    0.9804344    0.8229586    3.6752840  
C    0.9495562    0.7966882    2.1971295  
N    1.8690446    1.5676019    1.6831036  
C    0.0000000    0.0000000    1.4700000  
C   -0.8785127   -0.7372425    2.1869543  
O   -1.8187535   -1.5261249    1.6395491  
C   -0.8723269   -0.7321790    3.6796354  
O   -1.7010379   -1.4274584    4.2670412  
C    0.1115397    0.0933559    4.4024240  
H    2.4028853    2.0163452    4.9860947  
H   -2.2861435   -1.9184361    2.3990168  
H    0.0832434    0.0693689    5.4835595  
H    3.3664920    2.8238276    2.6198634  
