58

C   -4.4924712    2.0950387   -0.2442175  
C   -3.4157277    1.6323171   -0.9302107  
C   -3.9167331    0.7362618   -1.9455501  
C   -5.3841441    0.7147474   -1.7937834  
N   -5.6689491    1.5587231   -0.7452222  
C   -6.2266191   -0.0146655   -2.5683132  
C   -5.6495861   -0.8333370   -3.6215680  
O   -6.3243554   -1.5259647   -4.3720698  
C   -4.0978601   -0.8259951   -3.8001700  
O   -3.6005728   -1.5115246   -4.6833543  
C   -3.2941076    0.0012878   -2.9038237  
H   -2.3878033    1.8892261   -0.7458683  
H   -7.3001859   -0.0161870   -2.4403980  
H   -6.5897791    1.7563628   -0.3987286  
C   -1.3134473    4.2165126    1.9183028  
C   -2.0688509    4.8926489    2.8217851  
C   -3.4458176    4.5412174    2.5662581  
C   -3.4305902    3.5981318    1.4317323  
N   -2.1080827    3.4434984    1.0853905  
C   -4.5374996    3.0326345    0.8870589  
C   -5.8301409    3.3759128    1.4560695  
O   -6.8852957    2.9194080    1.0358861  
C   -5.8699325    4.3728594    2.6578678  
O   -6.9524728    4.6695925    3.1450189  
C   -4.6098047    4.9165456    3.1582038  
H   -1.7032151    5.5614162    3.5805169  
H   -4.6459878    5.6060066    3.9907048  
H   -0.2431140    4.2180741    1.7907345  
H   -1.7717754    2.8576091    0.3433133  
C    0.0000000    0.0000000    0.0000000  
C    1.0541688   -0.0001723   -0.8560392  
C    0.5103136   -0.0000455   -2.1935956  
C   -0.9576373    0.0002461   -2.0455730  
N   -1.2018460   -0.0001389   -0.6915968  
C   -1.8348314    0.0008319   -3.0810607  
C   -1.2972851    0.0009739   -4.4314603  
O   -2.0050676    0.0014268   -5.4301316  
C    0.2542619    0.0004184   -4.6117572  
O    0.7184666    0.0002257   -5.7439122  
C    1.0974551    0.0000873   -3.4189129  
H    2.0940752   -0.0005484   -0.5817983  
H    2.1707276   -0.0000912   -3.5523673  
H   -2.1128194    0.0014915   -0.2706789  
C    3.3321173   -0.0004715    2.8079335  
C    2.6974184   -0.0000116    4.0032312  
C    1.2800439    0.0002118    3.6752840  
C    1.2395035   -0.0000644    2.1971295  
N    2.4394063   -0.0005460    1.6831036  
C    0.0000000    0.0000000    1.4700000  
C   -1.1468701   -0.0000635    2.1869543  
O   -2.3742202   -0.0000073    1.6395491  
C   -1.1388768   -0.0001607    3.6796354  
O   -2.2206231   -0.0000905    4.2670412  
C    0.1454524   -0.0001816    4.4024240  
H    3.1367986    0.0000651    4.9860947  
H   -2.9844344   -0.0001026    2.3990168  
H    0.1083576   -0.0003682    5.4835595  
H    4.3940039   -0.0007619    2.6198634  
