60

C    1.1243405    0.0100270   -0.7919011  
C    0.7474059    0.0234779   -2.1148551  
C   -0.6787398    0.0234286   -2.1414701  
C   -1.1201753    0.0098251   -0.7935549  
N    0.0000000    0.0000000    0.0000000  
C   -2.4730820    0.0062951   -0.4408238  
C   -3.3971968    0.0169942   -1.4675055  
O   -4.7313528    0.0144810   -1.1793456  
C   -2.9763670    0.0302601   -2.8186319  
O   -4.0166500    0.0393890   -3.7247613  
C   -1.6418584    0.0334762   -3.1673481  
H    1.4178693    0.0311414   -2.9571219  
H   -2.8160168   -0.0041972    0.5845969  
H   -5.1938835    0.0229277   -2.0274373  
H   -3.6464704    0.0481183   -4.6127336  
H    2.1062462    0.0053469   -0.3505421  
C   -0.2201715   -0.6516354   -5.1344353  
C   -1.2456361    0.0471353   -4.5828766  
C   -1.8642321    0.7990473   -5.6490858  
C   -1.1097058    0.4787363   -6.8758216  
N   -0.1264542   -0.4053972   -6.4958036  
C   -1.3840484    0.9897602   -8.1027263  
C   -2.4965753    1.9173118   -8.2230091  
O   -2.8231685    2.4316773   -9.2846429  
C   -3.3092978    2.2709620   -6.9368442  
O   -4.2479088    3.0509437   -7.0257222  
C   -2.9183445    1.6560857   -5.6707739  
H   -0.8181874    0.7416387   -8.9899390  
H   -3.4863015    1.9060251   -4.7849528  
H    0.4751036   -1.3255995   -4.6608804  
C    1.3064172   -2.3147034   -7.3559168  
C    2.2304603   -2.5526732   -8.3221412  
C    2.4113951   -1.3161046   -9.0453267  
C    1.5105808   -0.3311450   -8.4166951  
N    0.8690474   -0.9995833   -7.3995840  
C    1.3880197    0.9611341   -8.8125472  
C    2.1971712    1.4119454   -9.9326266  
O    2.1585757    2.5567860  -10.3640800  
C    3.1579182    0.3857567  -10.6135866  
O    3.8438746    0.7536934  -11.5576987  
C    3.2028996   -0.9800030  -10.0973220  
H    2.7283559   -3.4877900   -8.5072641  
H    0.7213096    1.6674538   -8.3376581  
H    3.8708689   -1.6843404  -10.5742392  
H    0.9079978   -2.9894822   -6.6157644  
C    2.3971438    2.0127888    3.1728260  
C    1.9431056    1.6308205    1.9564670  
C    0.8496017    0.7127664    2.2356185  
C    0.7794028    0.6545384    3.7115134  
N    1.6840587    1.4146091    4.2663826  
C   -0.1885723   -0.1578550    4.3957118  
C   -1.0476298   -0.8789867    3.6398520  
O   -2.0015663   -1.6796266    4.1448486  
C   -1.0022026   -0.8410666    2.1483229  
O   -1.8147390   -1.5232959    1.5241687  
C    0.0000000    0.0000000    1.4700000  
H    2.3054237    1.9346118    0.9892483  
H   -0.2170646   -0.1815267    5.4753125  
H   -2.4487139   -2.0549881    3.3649027  
H    3.2048689    2.6911772    3.3971983  
