58

C    3.3321174    0.0004717   -1.3379335  
C    2.6974184    0.0000121   -2.5332312  
C    1.2800440   -0.0002115   -2.2052839  
C    1.2395035    0.0000645   -0.7271295  
N    2.4394064    0.0005461   -0.2131037  
C    0.0000000    0.0000000    0.0000000  
C   -1.1468696    0.0000636   -0.7169542  
O   -2.3742199    0.0000073   -0.1695491  
C   -1.1388768    0.0001610   -2.2096354  
O   -2.2206230    0.0000908   -2.7970413  
C    0.1454524    0.0001820   -2.9324241  
H    3.1367989   -0.0000646   -3.5160945  
H   -2.9844342    0.0001027   -0.9290167  
C    5.7851541    0.0006217   -1.9873438  
C    4.7795904    0.0008677   -1.0815724  
C    5.4416654    0.0017644    0.2138643  
C    6.8854800    0.0018492   -0.1054843  
N    7.0929847    0.0012619   -1.3942557  
C    7.8916459    0.0026974    0.9205347  
C    7.4744099    0.0038168    2.2070984  
O    8.3032742    0.0046905    3.2649380  
C    6.0244000    0.0041345    2.5615463  
O    5.7170382    0.0050467    3.7534978  
C    5.0115684    0.0032050    1.4909880  
H    8.9395974    0.0025331    0.6584130  
H    7.7145740    0.0054051    4.0412007  
H    3.9717453    0.0035869    1.7893136  
H    5.7099337    0.0000069   -3.0631298  
C    2.4320892   -2.0124020   -6.1859208  
C    2.0200842   -1.6305786   -4.9546438  
C    0.9177879   -0.7123201   -5.1959804  
C    0.7970297   -0.6538274   -6.6685904  
N    1.6820136   -1.4139316   -7.2542822  
C   -0.1937168    0.1588225   -7.3190579  
C   -1.0262430    0.8799466   -6.5340646  
O   -1.9968160    1.6808100   -7.0059188  
C   -0.9297028    0.8417626   -5.0449764  
O   -1.7202572    1.5240004   -4.3932128  
C    0.0950453    0.0004357   -4.4015596  
H    2.4153107   -1.9345886   -4.0004690  
H   -0.2592089    0.1826846   -8.3970433  
H   -2.4168999    2.0561008   -6.2110358  
H    3.2315443   -2.6908671   -6.4379722  
C    0.0000000    0.0000000    1.4700000  
C    1.0541688    0.0001722    2.3260392  
C    0.5103138    0.0000454    3.6635956  
C   -0.9576371   -0.0002459    3.5155732  
N   -1.2018458    0.0001392    2.1615969  
C   -1.8348311   -0.0008317    4.5510609  
C   -1.2972847   -0.0009736    5.9014604  
O   -2.0050672   -0.0014265    6.9001319  
C    0.2542623   -0.0004184    6.0817573  
O    0.7184670   -0.0002256    7.2139121  
C    1.0974552   -0.0000873    4.8889129  
H    2.0940752    0.0005483    2.0517982  
H   -2.9081052   -0.0011668    4.4207061  
H    2.1707277    0.0000911    5.0223670  
H   -2.1128194   -0.0014912    1.7406791  
