58

C   -3.1300291   -0.0232394   -1.7028248  
C   -2.5367023   -0.0193931   -0.4864660  
C   -1.1089562   -0.0087017   -0.7656180  
C   -1.0177600   -0.0074769   -2.2415129  
N   -2.1993007   -0.0158923   -2.7963816  
C    0.2459113    0.0021947   -2.9257120  
C    1.3674893    0.0106643   -2.1698528  
O    2.6128521    0.0201739   -2.6748493  
C    1.3083208    0.0100538   -0.6783233  
O    2.3692593    0.0179508   -0.0541693  
C    0.0000000    0.0000000    0.0000000  
H   -3.0095113   -0.0232354    0.4807528  
H    0.2829502    0.0026629   -4.0053120  
H    3.1966490    0.0245779   -1.8949040  
C   -6.5696820   -0.0502993    0.9721619  
C   -7.6067459   -0.0571267    0.1026620  
C   -6.9911025   -0.0517792   -1.2154634  
C   -5.5368971   -0.0414230   -0.9475754  
N   -5.2837685   -0.0405908    0.3330162  
C   -4.5678218   -0.0337339   -2.0086695  
C   -5.0304627   -0.0366641   -3.2796097  
O   -4.2397027   -0.0302901   -4.3662092  
C   -6.4921026   -0.0474335   -3.5823550  
O   -6.8415827   -0.0494330   -4.7626429  
C   -7.4662580   -0.0551361   -2.4765131  
H   -4.8555758   -0.0346093   -5.1210831  
H   -8.5159878   -0.0629683   -2.7377349  
H   -6.6066541   -0.0513320    2.0499400  
C   -9.6918305    0.6129058    1.3843017  
C   -9.0441655   -0.0677807    0.4102505  
C  -10.0831118   -0.8205000   -0.2756829  
C  -11.3307108   -0.4660774    0.4345746  
N  -11.1076195    0.3738921    1.4085721  
C  -12.6044028   -1.0115898    0.0535086  
C  -12.6306102   -1.8717580   -0.9899275  
O  -13.7487064   -2.4560682   -1.4530498  
C  -11.3886324   -2.2488179   -1.7271374  
O  -11.4869935   -3.0375160   -2.6670846  
C  -10.0942750   -1.6757751   -1.3170334  
H  -13.5000867   -0.7352482    0.5904399  
H  -13.4492399   -3.0103882   -2.1961526  
H   -9.2179460   -1.9740949   -1.8767505  
H   -9.2731369    1.2878960    2.1137244  
C    0.8175213    0.6860729    2.3021913  
C    0.0000000    0.0000000    1.4700000  
C   -0.8887526   -0.7456559    2.3478473  
C   -0.4549825   -0.3816753    3.7138435  
N    0.5448156    0.4573574    3.6934124  
C   -1.0945674   -0.9182058    4.8835240  
C   -2.1210866   -1.7789155    4.6970523  
O   -2.8083856   -2.3554314    5.6976972  
C   -2.5824069   -2.1655116    3.3310774  
O   -3.5227682   -2.9541547    3.2362962  
C   -1.9100805   -1.6015804    2.1470656  
H   -0.7567140   -0.6349833    5.8697035  
H   -3.4728268   -2.9124471    5.2533954  
H   -2.2742832   -1.9066565    1.1752040  
H    1.6189533    1.3585343    2.0405121  
