58

C    1.7704312   -2.0997832   -5.2515181  
C    1.5928585   -1.6333170   -6.5144327  
C    0.4607457   -0.7379011   -6.4771946  
C   -0.0100424   -0.7207978   -5.0790327  
N    0.8257125   -1.5670940   -4.3875227  
C   -1.0641734    0.0073898   -4.6315339  
C   -1.7831603    0.8289565   -5.5910245  
O   -2.7459474    1.5206786   -5.2862925  
C   -1.3021140    0.8259147   -7.0770897  
O   -1.8998120    1.5134382   -7.8939924  
C   -0.1528626    0.0000282   -7.4390071  
H    2.1870130   -1.8876244   -7.3740370  
H    0.1740157    0.0036592   -8.4699583  
H    0.7607704   -1.7654786   -3.4059559  
C    5.0581968   -4.2135571   -7.2529922  
C    5.5669962   -4.8927871   -6.1928769  
C    4.7631463   -4.5449903   -5.0449659  
C    3.7369488   -3.6007113   -5.5266775  
N    3.9709600   -3.4413498   -6.8730550  
C    2.7815117   -3.0383990   -4.7439583  
C    2.7627644   -3.3862638   -3.3328689  
O    1.9422176   -2.9327732   -2.5458810  
C    3.8402982   -4.3841631   -2.8009622  
O    3.8346465   -4.6842750   -1.6147237  
C    4.8186483   -4.9245690   -3.7415178  
H    6.4094092   -5.5610378   -6.2127231  
H    5.5612415   -5.6150294   -3.3652943  
H    5.3861586   -4.2119849   -8.2797977  
H    3.4333580   -2.8559837   -7.4857356  
C    1.1319248    0.0015675   -0.8009270  
C    0.7969916    0.0034959   -2.1169404  
C   -0.6453336    0.0035703   -2.1842672  
C   -1.1266831    0.0015415   -0.7896027  
N    0.0000000    0.0000000    0.0000000  
C   -2.4346129    0.0013924   -0.4276297  
C   -3.4350110    0.0031352   -1.4820184  
O   -4.6384610    0.0030897   -1.2583919  
C   -2.9478958    0.0050460   -2.9661075  
O   -3.7809377    0.0062160   -3.8623775  
C   -1.5113821    0.0053068   -3.2312125  
H    1.4821240    0.0045436   -2.9459192  
H   -2.7664565    0.0000185    0.6013447  
H    2.1104318    0.0009428   -0.3488058  
C    0.8175213    0.6860729    2.3021913  
C    0.0000000    0.0000000    1.4700000  
C   -0.8887526   -0.7456559    2.3478473  
C   -0.4549825   -0.3816753    3.7138435  
N    0.5448156    0.4573574    3.6934124  
C   -1.0945674   -0.9182058    4.8835240  
C   -2.1210866   -1.7789155    4.6970523  
O   -2.8083856   -2.3554314    5.6976972  
C   -2.5824069   -2.1655116    3.3310774  
O   -3.5227682   -2.9541547    3.2362962  
C   -1.9100805   -1.6015804    2.1470656  
H   -0.7567140   -0.6349833    5.8697035  
H   -3.4728268   -2.9124471    5.2533954  
H   -2.2742832   -1.9066565    1.1752040  
H    1.6189533    1.3585343    2.0405121  
