60

C    3.3003554    0.0005275   -1.4738974  
C    2.5232826    0.0003498   -2.6090738  
C    1.1623213   -0.0001318   -2.1820099  
C    1.1711890    0.0000584   -0.7636139  
N    2.4852302   -0.0014918   -0.3662349  
C    0.0000000    0.0000000    0.0000000  
C   -1.2020378    0.0000521   -0.6806491  
O   -2.3759246    0.0003495    0.0157732  
C   -1.2314647   -0.0005109   -2.0955517  
O   -2.5054373   -0.0008032   -2.6250193  
C   -0.0764502   -0.0007270   -2.8495196  
H    2.8036265    0.0088179    0.5858675  
H   -3.0835636    0.0000352   -0.6418829  
H   -2.4360027   -0.0011521   -3.5845936  
H   -0.1304075   -0.0013417   -3.9319090  
H    4.3715556    0.0004894   -1.3667119  
C    4.0912600   -0.7049384   -4.4540724  
C    3.0267456   -0.0008951   -3.9901691  
C    2.4918056    0.7392289   -5.1086016  
C    3.3379779    0.4062540   -6.2704577  
N    4.2890172   -0.4732103   -5.8068229  
C    3.1585259    0.9039811   -7.5201654  
C    2.0587118    1.8295632   -7.7352064  
O    1.8145075    2.3323680   -8.8241749  
C    1.1499717    2.1964773   -6.5189122  
O    0.2211209    2.9749320   -6.6877457  
C    1.4426664    1.5953885   -5.2201156  
H    0.8086049    1.8544580   -4.3831132  
H    4.7480580   -1.3734088   -3.9214817  
H    5.0137610   -0.8850252   -6.3655735  
C    4.5196282   -0.7107537   -8.9267196  
C    5.2810505   -0.7055175  -10.0511234  
C    5.2794682    0.6478554  -10.5543278  
C    4.4487762    1.4363127   -9.6242326  
N    4.0179321    0.5541866   -8.6603257  
C    4.1998517    2.7641955   -9.7525596  
C    4.7892509    3.4634570  -10.8822386  
O    4.6242620    4.6592456  -11.0851419  
C    5.6722912    2.6482229  -11.8799547  
O    6.1735435    3.2261003  -12.8349759  
C    5.8683307    1.2213320  -11.6362258  
H    5.7860240   -1.5530442  -10.4792759  
H    3.5877345    3.3238241   -9.0589900  
H    6.4812548    0.6640990  -12.3315944  
H    4.2826166   -1.5323152   -8.2704031  
C    2.5528530    2.1414826    2.8079335  
C    2.0663498    1.7338582    4.0032312  
C    0.9804344    0.8229586    3.6752840  
C    0.9495562    0.7966882    2.1971295  
N    1.8690446    1.5676019    1.6831036  
C    0.0000000    0.0000000    1.4700000  
C   -0.8785127   -0.7372425    2.1869543  
O   -1.8187535   -1.5261249    1.6395491  
C   -0.8723269   -0.7321790    3.6796354  
O   -1.7010379   -1.4274584    4.2670412  
C    0.1115397    0.0933559    4.4024240  
H    2.4028853    2.0163452    4.9860947  
H   -2.2861435   -1.9184361    2.3990168  
H    0.0832434    0.0693689    5.4835595  
H    3.3664920    2.8238276    2.6198634  
