62

C    1.1188646    0.0008225   -0.8003808  
C    0.0000000    0.0000000    0.0000000  
C   -1.1323861    0.0008895   -0.8673529  
C   -0.6382655    0.0019675   -2.1969285  
N    0.7324023    0.0038482   -2.1202242  
C   -1.4770909    0.0027312   -3.3154813  
C   -2.8395467    0.0020932   -3.0876860  
O   -3.7039190    0.0024408   -4.1440352  
C   -3.3517864    0.0013917   -1.7684337  
O   -4.7300486    0.0012348   -1.7073133  
C   -2.5248539    0.0009114   -0.6644824  
H   -1.1067558    0.0036982   -4.3313812  
H   -4.5940022    0.0021811   -3.7685142  
H   -4.9934597    0.0007245   -0.7819920  
H   -2.9462579    0.0005593    0.3339652  
H    2.1619896    0.0009362   -0.5342066  
C    4.5872072   -2.1312989   -2.8760566  
C    3.4257636   -1.6618660   -2.3075955  
C    2.8225615   -0.7845952   -3.2568813  
C    3.6683580   -0.7581058   -4.3952370  
N    4.7314862   -1.5851481   -4.1299511  
C    3.3837520    0.0055798   -5.5312703  
C    2.2240413    0.7559622   -5.5180173  
O    1.8977511    1.5195633   -6.6012815  
C    1.3675641    0.7429394   -4.3914766  
O    0.2523234    1.5428639   -4.5318411  
C    1.6478441   -0.0100095   -3.2702998  
H    3.0590296   -1.9191247   -1.3286586  
H    4.0243525    0.0301932   -6.4020327  
H    1.0629717    1.9557298   -6.3864165  
H   -0.2722942    1.4770478   -3.7280698  
H    5.3248336   -2.8113784   -2.4857249  
C    6.4326874   -3.1020857   -5.2449308  
C    7.4342381   -3.0272871   -6.1589201  
C    7.5070772   -1.6518040   -6.5920206  
C    6.4583631   -0.9261810   -5.8500899  
N    5.8431448   -1.8620902   -5.0510469  
C    6.2043683    0.4007890   -5.9779261  
C    7.0180427    1.1653105   -6.9085043  
O    6.8671530    2.3656813   -7.0946312  
C    8.1342175    0.4172681   -7.7049910  
O    8.8254042    1.0503968   -8.4915462  
C    8.3130807   -1.0151846   -7.4815216  
H    8.0514306   -3.8426577   -6.4918719  
H    5.4303614    0.9137545   -5.4241309  
H    9.0882161   -1.5256555   -8.0367771  
H    6.0755299   -3.9587849   -4.6968485  
C    0.0000000    0.0000000    1.4700000  
C    1.0662921    0.0000102    2.3034270  
C    0.4961870   -0.0000064    3.6418889  
C   -0.9663858    0.0000850    3.4240247  
N   -1.2632773    0.0000084    2.1528658  
C   -1.8985362    0.0000517    4.5177257  
C   -1.3925775   -0.0004564    5.7720543  
O   -2.1456383   -0.0005410    6.8851312  
C    0.0786232   -0.0009323    6.0245000  
O    0.4683759   -0.0012588    7.1921102  
C    1.0143166   -0.0008442    4.8859032  
H    2.1107198   -0.0000632    2.0421868  
H   -2.9622183    0.0003270    4.3293377  
H   -1.5042274   -0.0009692    7.6184419  
H    2.0724152   -0.0013148    5.1109744  
