58

C    0.0591967    2.7351455   -5.3136698  
C    0.4069190    1.8086486   -4.3837408  
C    0.4865106    0.5379360   -5.0647621  
C    0.1543007    0.8019706   -6.4778129  
N   -0.0948617    2.1523958   -6.5624326  
C    0.1197627   -0.1448643   -7.4494173  
C    0.4303055   -1.5154944   -7.0786441  
O    0.4261662   -2.4398414   -7.8810562  
C    0.7846653   -1.8180422   -5.5877721  
O    1.0475855   -2.9683020   -5.2636783  
C    0.7893452   -0.7137601   -4.6315344  
H    0.5869195    1.9941809   -3.3398105  
H   -0.1262313    0.0699524   -8.4800722  
H   -0.3475140    2.6399097   -7.4023998  
C   -0.8458737    0.7521664   -0.8009272  
C   -0.5971743    0.5278173   -2.1169406  
C    0.4792792   -0.4321568   -2.1842675  
C    0.8398923   -0.7509981   -0.7896032  
N    0.0000000    0.0000000    0.0000000  
C    1.8161862   -1.6213602   -0.4276298  
C    2.5616897   -2.2884613   -1.4820188  
O    3.4599344   -3.0893664   -1.2583924  
C    2.1968518   -1.9656949   -2.9661078  
O    2.8178275   -2.5209873   -3.8623783  
C    1.1245128   -1.0098388   -3.2312129  
H   -1.1092310    0.9830153   -2.9459195  
H    2.0647773   -1.8411888    0.6013442  
H   -1.5757825    1.4038637   -0.3488064  
C    0.2614486    5.6010936   -1.9063430  
C    0.3120674    4.4533506   -2.6216767  
C   -0.0313680    4.8429144   -3.9806443  
C   -0.2649917    6.3009671   -3.9026274  
N   -0.0947415    6.7510690   -2.6891974  
C   -0.6323785    7.0754336   -5.0560203  
C   -0.7601736    6.4230309   -6.2338885  
O   -1.0976202    7.0198852   -7.3897156  
C   -0.5307053    4.9522584   -6.3449417  
O   -0.6649221    4.4243918   -7.4488273  
C   -0.1547502    4.1799560   -5.1473889  
H    0.5528244    3.4645075   -2.2705338  
H   -0.7971776    8.1395549   -4.9700133  
H   -1.1078897    6.3004121   -8.0465310  
H    0.4526922    5.7365505   -0.8537028  
C    2.5528530    2.1414826    2.8079335  
C    2.0663498    1.7338582    4.0032312  
C    0.9804344    0.8229586    3.6752840  
C    0.9495562    0.7966882    2.1971295  
N    1.8690446    1.5676019    1.6831036  
C    0.0000000    0.0000000    1.4700000  
C   -0.8785127   -0.7372425    2.1869543  
O   -1.8187535   -1.5261249    1.6395491  
C   -0.8723269   -0.7321790    3.6796354  
O   -1.7010379   -1.4274584    4.2670412  
C    0.1115397    0.0933559    4.4024240  
H    2.4028853    2.0163452    4.9860947  
H   -2.2861435   -1.9184361    2.3990168  
H    0.0832434    0.0693689    5.4835595  
H    3.3664920    2.8238276    2.6198634  
