62

C    3.3003544    0.0005278   -1.4738987  
C    2.5232810    0.0003499   -2.6090746  
C    1.1623200   -0.0001317   -2.1820099  
C    1.1711887    0.0000584   -0.7636140  
N    2.4852298   -0.0014918   -0.3662360  
C    0.0000000    0.0000000    0.0000000  
C   -1.2020383    0.0000520   -0.6806476  
O   -2.3759252    0.0003495    0.0157747  
C   -1.2314652   -0.0005110   -2.0955508  
O   -2.5054394   -0.0008035   -2.6250176  
C   -0.0764516   -0.0007270   -2.8495191  
H    2.8919952   -0.0005616   -3.6205301  
H    2.8036265    0.0088183    0.5858661  
H   -3.0835641    0.0000348   -0.6418819  
H   -2.4360054   -0.0011526   -3.5845919  
H   -0.1304096   -0.0013419   -3.9319086  
C    6.5582206    0.0029731   -4.4647483  
C    7.6103877    0.0023863   -3.5785142  
C    7.0499432    0.0016141   -2.2668357  
C    5.6394781    0.0014824   -2.4168807  
N    5.3749047    0.0042719   -3.7639556  
C    4.7630502    0.0004758   -1.3275405  
C    5.3206367   -0.0007211   -0.0637073  
O    4.5107983   -0.0020882    1.0350072  
C    6.7255798   -0.0002352    0.1064473  
O    7.1255747   -0.0011493    1.4268057  
C    7.5907994    0.0010309   -0.9677596  
H    8.6535284    0.0036058   -3.8446913  
H    4.4592349   -0.0057077   -4.1755743  
H    5.0947322   -0.0024567    1.8046081  
H    8.0872935   -0.0007696    1.4532558  
H    8.6624385    0.0015572   -0.8063027  
C    7.6547716    0.0043449   -6.7357785  
C    6.5582206    0.0043940   -5.9347474  
C    5.4035652    0.0063889   -6.8016973  
C    5.9210197    0.0074768   -8.1833731  
N    7.2925081    0.0065535   -8.0742479  
C    5.1434471    0.0090155   -9.2956158  
C    3.7006167    0.0098678   -9.1201902  
O    2.9154439    0.0113178  -10.0592333  
C    3.1306378    0.0089929   -7.6659105  
O    1.9175396    0.0100050   -7.5057484  
C    4.0690346    0.0070534   -6.5464198  
H    5.5431762    0.0096630  -10.3001685  
H    3.6663094    0.0062526   -5.5426593  
H    8.6970466    0.0030980   -6.4609140  
H    7.9318065    0.0053984   -8.8477737  
C    2.3971438    2.0127888    3.1728260  
C    1.9431056    1.6308205    1.9564670  
C    0.8496017    0.7127664    2.2356185  
C    0.7794028    0.6545384    3.7115134  
N    1.6840587    1.4146091    4.2663826  
C   -0.1885723   -0.1578550    4.3957118  
C   -1.0476298   -0.8789867    3.6398520  
O   -2.0015663   -1.6796266    4.1448486  
C   -1.0022026   -0.8410666    2.1483229  
O   -1.8147390   -1.5232959    1.5241687  
C    0.0000000    0.0000000    1.4700000  
H    2.3054237    1.9346118    0.9892483  
H   -0.2170646   -0.1815267    5.4753125  
H   -2.4487139   -2.0549881    3.3649027  
H    3.2048689    2.6911772    3.3971983  
