64

C    5.9071319   -2.1224379   -4.5070230  
C    5.7365513   -1.6242143   -5.7779051  
C    4.6105079   -0.7497129   -5.7346236  
C    4.1312171   -0.7540644   -4.3996377  
N    4.9399006   -1.5992754   -3.6811211  
C    3.0267438   -0.0008951   -3.9901699  
C    2.3947817    0.7709583   -4.9457029  
O    1.3115943    1.5260768   -4.5999942  
C    2.8578549    0.7882373   -6.2828947  
O    2.1221350    1.6061780   -7.1153803  
C    3.9472180    0.0452596   -6.6876136  
H    6.3477797   -1.8626928   -6.6314395  
H    4.8491913   -1.7951604   -2.7006206  
H    1.0273564    1.9799843   -5.4040106  
H    2.5005414    1.5604824   -7.9987399  
H    4.2787220    0.0785434   -7.7188637  
C    7.9168380   -3.6466779   -4.7174069  
C    6.9096792   -3.0622341   -3.9849286  
C    7.0333086   -3.5444411   -2.6482192  
C    8.1433743   -4.4271361   -2.6251782  
N    8.6556457   -4.4678856   -3.8981803  
C    8.5595611   -5.0887645   -1.4659439  
C    7.8422591   -4.8548254   -0.3088233  
O    8.2057297   -5.4747208    0.8516218  
C    6.7315279   -3.9778507   -0.3118180  
O    6.1210838   -3.8498189    0.9187548  
C    6.3202197   -3.3250078   -1.4551233  
H    9.4551134   -5.0031029   -4.1851878  
H    9.4046749   -5.7628574   -1.4418176  
H    7.5824124   -5.1770734    1.5270078  
H    5.3816007   -3.2408763    0.8295513  
H    5.4655590   -2.6592517   -1.4267869  
H    8.1657692   -3.5438300   -5.7597193  
C    3.3003547    0.0005277   -1.4738986  
C    2.5232816    0.0003497   -2.6090746  
C    1.1623203   -0.0001319   -2.1820102  
C    1.1711884    0.0000584   -0.7636141  
N    2.4852301   -0.0014919   -0.3662359  
C    0.0000000    0.0000000    0.0000000  
C   -1.2020383    0.0000520   -0.6806479  
O   -2.3759248    0.0003493    0.0157745  
C   -1.2314655   -0.0005115   -2.0955511  
O   -2.5054388   -0.0008040   -2.6250184  
C   -0.0764513   -0.0007274   -2.8495195  
H    2.8036266    0.0088183    0.5858662  
H   -3.0835639    0.0000346   -0.6418822  
H   -2.4360043   -0.0011529   -3.5845924  
H   -0.1304091   -0.0013423   -3.9319089  
H    4.3715553    0.0004897   -1.3667133  
C    0.8175213    0.6860729    2.3021913  
C    0.0000000    0.0000000    1.4700000  
C   -0.8887526   -0.7456559    2.3478473  
C   -0.4549825   -0.3816753    3.7138435  
N    0.5448156    0.4573574    3.6934124  
C   -1.0945674   -0.9182058    4.8835240  
C   -2.1210866   -1.7789155    4.6970523  
O   -2.8083856   -2.3554314    5.6976972  
C   -2.5824069   -2.1655116    3.3310774  
O   -3.5227682   -2.9541547    3.2362962  
C   -1.9100805   -1.6015804    2.1470656  
H   -0.7567140   -0.6349833    5.8697035  
H   -3.4728268   -2.9124471    5.2533954  
H   -2.2742832   -1.9066565    1.1752040  
H    1.6189533    1.3585343    2.0405121  
