62

C    1.1243409    0.0100070   -0.7919007  
C    0.7474068    0.0234643   -2.1148546  
C   -0.6787389    0.0234403   -2.1414699  
C   -1.1201744    0.0098447   -0.7935549  
N    0.0000000    0.0000000    0.0000000  
C   -2.4730818    0.0063386   -0.4408239  
C   -3.3971962    0.0170538   -1.4675059  
O   -4.7313518    0.0145642   -1.1793467  
C   -2.9763658    0.0303120   -2.8186320  
O   -4.0166485    0.0394598   -3.7247620  
C   -1.6418572    0.0335049   -3.1673484  
H   -2.8160158   -0.0041479    0.5845963  
H   -5.1938823    0.0230192   -2.0274378  
H   -3.6464686    0.0481820   -4.6127340  
H   -1.3497480    0.0435693   -4.2109233  
H    2.1062464    0.0053094   -0.3505411  
C    4.6004726   -1.9778649   -3.1213376  
C    3.4874117   -1.6024409   -2.4492285  
C    2.8049893   -0.6773435   -3.3408530  
C    3.6691788   -0.6083010   -4.5387649  
N    4.7231353   -1.3686135   -4.4159196  
C    3.3373083    0.2134339   -5.6700036  
C    2.1938855    0.9331678   -5.6075337  
O    1.7614046    1.7418104   -6.5899279  
C    1.3005623    0.8844367   -4.4126448  
O    0.2755919    1.5659892   -4.4245744  
C    1.6628942    0.0339122   -3.2649305  
H    3.1687607   -1.9147832   -1.4694426  
H    0.9255291    2.1136975   -6.2550170  
H    5.3726996   -2.6583955   -2.7995969  
C    5.6539415   -2.9537787   -7.8128135  
C    4.8381692   -2.2791527   -6.9342565  
C    4.8438516   -0.9086079   -7.3294454  
C    5.6876463   -0.8063688   -8.4650006  
N    6.1645967   -2.0659649   -8.7306189  
C    5.9274840    0.4039995   -9.1224764  
C    5.3039210    1.5316496   -8.6247294  
O    5.5030853    2.7393511   -9.2287197  
C    4.4587423    1.4499447   -7.4925568  
O    3.9121041    2.6601535   -7.1184908  
C    4.2218964    0.2562677   -6.8432767  
H    4.3054957   -2.7203759   -6.1092870  
H    6.7800230   -2.3060159   -9.4866661  
H    6.5696202    0.4886066   -9.9883313  
H    4.9836678    3.3831498   -8.7297284  
H    3.3551956    2.5169155   -6.3471675  
H    5.9130669   -3.9977634   -7.8565085  
C    2.5528530    2.1414826    2.8079335  
C    2.0663498    1.7338582    4.0032312  
C    0.9804344    0.8229586    3.6752840  
C    0.9495562    0.7966882    2.1971295  
N    1.8690446    1.5676019    1.6831036  
C    0.0000000    0.0000000    1.4700000  
C   -0.8785127   -0.7372425    2.1869543  
O   -1.8187535   -1.5261249    1.6395491  
C   -0.8723269   -0.7321790    3.6796354  
O   -1.7010379   -1.4274584    4.2670412  
C    0.1115397    0.0933559    4.4024240  
H    2.4028853    2.0163452    4.9860947  
H   -2.2861435   -1.9184361    2.3990168  
H    0.0832434    0.0693689    5.4835595  
H    3.3664920    2.8238276    2.6198634  
