60

C   -3.3002999   -0.0190264   -1.4738986  
C   -2.5232400   -0.0144931   -2.6090748  
C   -1.1623027   -0.0063832   -2.1820101  
C   -1.1711699   -0.0066231   -0.7636139  
N   -2.4851996   -0.0124381   -0.3662358  
C    0.0000000    0.0000000    0.0000000  
C    1.2020195    0.0066854   -0.6806484  
O    2.3758894    0.0129678    0.0157741  
C    1.2314432    0.0074135   -2.0955511  
O    2.5053945    0.0148466   -2.6250181  
C    0.0764461    0.0011555   -2.8495196  
H   -2.8035333   -0.0245325    0.5858668  
H    3.0835151    0.0172487   -0.6418816  
H    2.4359593    0.0148064   -3.5845924  
H    0.1303994    0.0020727   -3.9319085  
H   -4.3714837   -0.0249924   -1.3667135  
C   -3.0267013   -0.0160703   -3.9901700  
C   -4.3102815   -0.0231540   -4.4333932  
C   -4.2574287   -0.0214464   -5.8763202  
C   -2.8275876   -0.0127540   -6.2400100  
N   -2.1344312   -0.0094480   -5.0515604  
C   -2.3581035   -0.0091773   -7.5133034  
C   -3.3256279   -0.0139997   -8.5979274  
O   -3.0026977   -0.0112691   -9.7786087  
C   -4.8450626   -0.0229654   -8.2359285  
O   -5.6689374   -0.0267780   -9.1406256  
C   -5.2287079   -0.0264235   -6.8264406  
H   -5.1933526   -0.0287353   -3.8195791  
H   -6.2827572   -0.0328405   -6.5842376  
H   -1.1343995   -0.0051502   -4.9681014  
C   -0.9264060   -0.0006700   -7.8465754  
C    0.1463258    0.0047818   -7.0139340  
C    1.3257293    0.0123039   -7.8468720  
C    0.8487544    0.0108058   -9.2430398  
N   -0.5253061    0.0024297   -9.1739218  
C    1.6583839    0.0168269  -10.3321525  
C    3.0954667    0.0251255  -10.1147603  
O    3.9076485    0.0309083  -11.0305270  
C    3.6228292    0.0265996   -8.6444909  
O    4.8307282    0.0332538   -8.4490510  
C    2.6522328    0.0199009   -7.5528182  
H    0.1149956    0.0034793   -5.9389314  
H    1.2880958    0.0157257  -11.3479263  
H    3.0255387    0.0211768   -6.5377490  
H   -1.1417978    0.0010452   -9.9657445  
C    2.5528530    2.1414826    2.8079335  
C    2.0663498    1.7338582    4.0032312  
C    0.9804344    0.8229586    3.6752840  
C    0.9495562    0.7966882    2.1971295  
N    1.8690446    1.5676019    1.6831036  
C    0.0000000    0.0000000    1.4700000  
C   -0.8785127   -0.7372425    2.1869543  
O   -1.8187535   -1.5261249    1.6395491  
C   -0.8723269   -0.7321790    3.6796354  
O   -1.7010379   -1.4274584    4.2670412  
C    0.1115397    0.0933559    4.4024240  
H    2.4028853    2.0163452    4.9860947  
H   -2.2861435   -1.9184361    2.3990168  
H    0.0832434    0.0693689    5.4835595  
H    3.3664920    2.8238276    2.6198634  
