58

C    0.0000000    0.0000000    0.0000000  
C    1.0541694   -0.0001722   -0.8560390  
C    0.5103145   -0.0000453   -2.1935954  
C   -0.9576361    0.0002459   -2.0455733  
N   -1.2018454   -0.0001391   -0.6915972  
C   -1.8348300    0.0008318   -3.0810613  
C   -1.2972833    0.0009738   -4.4314609  
O   -2.0050656    0.0014267   -5.4301325  
C    0.2542637    0.0004186   -4.6117574  
O    0.7184688    0.0002259   -5.7439120  
C    1.0974565    0.0000875   -3.4189127  
H    2.0940755   -0.0005483   -0.5817978  
H   -2.1128189    0.0014912   -0.2706798  
C   -4.4922134    2.0924790   -0.2420904  
C   -3.4155267    1.6303225   -0.9285533  
C   -3.9166416    0.7353628   -1.9448043  
C   -5.3840550    0.7138752   -1.7930606  
N   -5.6687577    1.5568188   -0.7436414  
C   -6.2266201   -0.0146454   -2.5683326  
C   -5.6496871   -0.8323155   -3.6224193  
O   -6.3245414   -1.5240963   -4.3736263  
C   -4.0979606   -0.8249839   -3.8010130  
O   -3.6007568   -1.5096759   -4.6848944  
C   -3.2941062    0.0012875   -2.9038250  
H   -2.3875706    1.8869171   -0.7439488  
H   -7.3001873   -0.0161643   -2.4404196  
H   -4.5251469    2.7791514    0.5881420  
H   -6.5895632    1.7542194   -0.3969475  
C    4.1985329   -2.1423510   -1.2324133  
C    5.3247416   -1.7348301   -1.8626199  
C    4.8654776   -0.8236667   -2.8996144  
C    3.3948139   -0.7971465   -2.7478589  
N    2.9980299   -1.5681529   -1.7721023  
C    2.5562225   -0.0001551   -3.6002997  
C    3.1594341    0.7371387   -4.5604396  
O    2.5003417    1.5262928   -5.4258138  
C    4.6414703    0.7318277   -4.7384875  
O    5.1222611    1.4271700   -5.6332280  
C    5.4799824   -0.0940164   -3.8514679  
H    6.3415669   -2.0175441   -1.6499827  
H    3.1964068    1.9185688   -5.9832776  
H    6.5493690   -0.0702023   -4.0129479  
H    4.1121693   -2.8248219   -0.4019027  
C    3.1301144    0.0010313    3.1728260  
C    2.5367765    0.0002768    1.9564670  
C    1.1089900   -0.0001027    2.2356185  
C    1.0177864    0.0004150    3.7115134  
N    2.1993570    0.0011613    4.2663826  
C   -0.2459220    0.0002880    4.3957118  
C   -1.3675327    0.0000606    3.6398520  
O   -2.6129319   -0.0000866    4.1448486  
C   -1.3083589   -0.0000910    2.1483229  
O   -2.3693264   -0.0004206    1.5241687  
C    0.0000000    0.0000000    1.4700000  
H    3.0096015    0.0001008    0.9892483  
H   -0.2829642    0.0004689    5.4753125  
H   -3.1967446   -0.0002093    3.3649027  
H    4.1849273    0.0015113    3.3971983  
