60

C    3.3041268    0.0001186   -1.5420437  
C    2.5845371   -0.0004775   -0.3695863  
C    1.2040003   -0.0000004   -0.7283592  
C    1.1422368    0.0006048   -2.1454375  
N    2.4348632    0.0026121   -2.6077469  
C   -0.0655188    0.0008807   -2.8497919  
C   -1.2321774    0.0002332   -2.1101395  
O   -2.4392822    0.0001156   -2.7472514  
C   -1.1911212   -0.0000004   -0.6955259  
O   -2.4371526   -0.0002318   -0.1032858  
C    0.0000000    0.0000000    0.0000000  
H    3.0031536   -0.0000659    0.6222571  
H    2.7054619   -0.0071085   -3.5745269  
H   -3.1132992   -0.0000643   -2.0551780  
H   -2.3200279   -0.0004073    0.8516411  
H    4.3686614    0.0004080   -1.7024305  
C    0.6366692   -0.6835170   -5.1902309  
C   -0.1387092    0.0017031   -4.3179684  
C   -1.0703988    0.7474291   -5.1500426  
C   -0.7050169    0.3844183   -6.5361532  
N    0.2949319   -0.4541525   -6.5660152  
C   -1.4022849    0.9213000   -7.6722260  
C   -2.4186296    1.7814191   -7.4343750  
O   -3.1551543    2.3581693   -8.3992230  
C   -2.8115384    2.1670324   -6.0469005  
O   -3.7463652    2.9551774   -5.9049579  
C   -2.0808439    1.6027575   -4.8981605  
H   -3.7968976    2.9146218   -7.9220662  
H   -2.3963422    1.9071172   -3.9091933  
H    1.4504351   -1.3557451   -4.9691702  
C   -0.1548825   -2.9268924   -9.4419239  
C   -0.5620762   -1.9479405   -8.5934431  
C   -0.6551921   -0.7322736   -9.3669532  
C   -0.2661059   -1.0857756  -10.7455182  
N    0.0255421   -2.4301577  -10.7238923  
C   -0.2255019   -0.2100972  -11.7814922  
C   -0.5890742    1.1728971  -11.5213460  
O   -0.5840945    2.0372648  -12.3880319  
C   -1.0041447    1.5696432  -10.0687227  
O   -1.3120183    2.7311292   -9.8375856  
C   -1.0097458    0.5368555   -9.0356829  
H   -0.7729510   -2.0641244   -7.5452793  
H    0.0626282   -0.4899846  -12.7852629  
H    0.0287810   -3.9693791   -9.2385049  
H    0.3216846   -2.9680817  -11.5176085  
C    2.3971438    2.0127888    3.1728260  
C    1.9431056    1.6308205    1.9564670  
C    0.8496017    0.7127664    2.2356185  
C    0.7794028    0.6545384    3.7115134  
N    1.6840587    1.4146091    4.2663826  
C   -0.1885723   -0.1578550    4.3957118  
C   -1.0476298   -0.8789867    3.6398520  
O   -2.0015663   -1.6796266    4.1448486  
C   -1.0022026   -0.8410666    2.1483229  
O   -1.8147390   -1.5232959    1.5241687  
C    0.0000000    0.0000000    1.4700000  
H    2.3054237    1.9346118    0.9892483  
H   -0.2170646   -0.1815267    5.4753125  
H   -2.4487139   -2.0549881    3.3649027  
H    3.2048689    2.6911772    3.3971983  
