60

C    3.3041274    0.0001181   -1.5420434  
C    2.5845372   -0.0004778   -0.3695856  
C    1.2040005   -0.0000006   -0.7283592  
C    1.1422372    0.0006041   -2.1454374  
N    2.4348641    0.0026115   -2.6077465  
C   -0.0655182    0.0008801   -2.8497921  
C   -1.2321768    0.0002327   -2.1101401  
O   -2.4392816    0.0001151   -2.7472519  
C   -1.1911210   -0.0000005   -0.6955263  
O   -2.4371523   -0.0002319   -0.1032864  
C    0.0000000    0.0000000    0.0000000  
H    3.0031537   -0.0000661    0.6222577  
H    2.7054629   -0.0071092   -3.5745263  
H   -3.1132988   -0.0000646   -2.0551790  
H   -2.3200280   -0.0004071    0.8516406  
H    4.3686616    0.0004075   -1.7024299  
C    2.3446864   -2.1385754   -5.7825621  
C    1.7992122   -1.7303697   -6.9519230  
C    0.7308347   -0.8198476   -6.5697990  
C    0.7735869   -0.7944094   -5.0919258  
N    1.7176438   -1.5654461   -4.6247553  
C   -0.1387083    0.0017023   -4.3179685  
C   -1.0519390    0.7391886   -4.9898745  
O   -1.9638776    1.5275968   -4.3958871  
C   -1.1200796    0.7349610   -6.4810152  
O   -1.9771139    1.4304208   -7.0260369  
C   -0.1732959   -0.0899936   -7.2523614  
H    2.0864369   -2.0122467   -7.9504836  
H   -2.4685604    1.9202491   -5.1309192  
H    3.1667832   -2.8208802   -5.6356228  
C   -0.2848516   -0.0565834   -8.7177419  
C    0.4543444   -0.7144183   -9.6477513  
C   -0.0620088   -0.3345687  -10.9415549  
C   -1.1705501    0.6052476  -10.6872486  
N   -1.2543636    0.7310500   -9.3197550  
C   -1.9180034    1.1927080  -11.6557046  
C   -1.6102750    0.8782088  -13.0409590  
O   -2.2257685    1.3559069  -13.9850307  
C   -0.4405733   -0.1147752  -13.3335095  
O   -0.1724531   -0.3873791  -14.4958608  
C    0.2930442   -0.6837759  -12.2057260  
H    1.2683028   -1.3889367   -9.4499886  
H   -2.7267419    1.8794337  -11.4477145  
H    1.1016467   -1.3703099  -12.4168116  
H   -1.9163943    1.3079082   -8.8339586  
C    2.5528530    2.1414826    2.8079335  
C    2.0663498    1.7338582    4.0032312  
C    0.9804344    0.8229586    3.6752840  
C    0.9495562    0.7966882    2.1971295  
N    1.8690446    1.5676019    1.6831036  
C    0.0000000    0.0000000    1.4700000  
C   -0.8785127   -0.7372425    2.1869543  
O   -1.8187535   -1.5261249    1.6395491  
C   -0.8723269   -0.7321790    3.6796354  
O   -1.7010379   -1.4274584    4.2670412  
C    0.1115397    0.0933559    4.4024240  
H    2.4028853    2.0163452    4.9860947  
H   -2.2861435   -1.9184361    2.3990168  
H    0.0832434    0.0693689    5.4835595  
H    3.3664920    2.8238276    2.6198634  
