58

C    3.2798084    0.0005860   -1.4499649  
C    2.5571141    0.0005569   -2.5996553  
C    1.1637434    0.0001550   -2.2210363  
C    1.1336962   -0.0000199   -0.7459473  
N    2.4483513   -0.0001427   -0.3402723  
C    0.0000000    0.0000000    0.0000000  
C   -1.2757367   -0.0000186   -0.6964414  
O   -2.3524598   -0.0000639   -0.1142315  
C   -1.2676494   -0.0000872   -2.2584084  
O   -2.3355762   -0.0004101   -2.8557298  
C    0.0181556    0.0001762   -2.9516295  
H    0.0150785    0.0003321   -4.0331632  
H    4.3498546    0.0008615   -1.3200022  
H    2.7563626    0.0012825    0.6148059  
C    5.9615633   -2.0068621   -4.6598587  
C    5.0892053   -1.6259401   -3.6978460  
C    4.1745232   -0.7102535   -4.3622063  
C    4.6548505   -0.6521083   -5.7595210  
N    5.7020996   -1.4101828   -5.9400261  
C    4.0067726    0.1582102   -6.7537375  
C    2.9276596    0.8774354   -6.3695954  
O    2.2263949    1.6760224   -7.1921086  
C    2.4184944    0.8395435   -4.9669281  
O    1.4313799    1.5199740   -4.6879304  
C    3.1006052    0.0006267   -3.9654951  
H    5.0688668   -1.9289886   -2.6649741  
H    1.5218038    2.0503734   -6.6330326  
H    6.7963915   -2.6834810   -4.5691842  
C    5.5969018   -2.9823388   -9.4192341  
C    5.0755683   -2.2995155   -8.3675503  
C    4.9643589   -0.9189104   -8.7754684  
C    5.4672158   -0.8529088  -10.1609535  
N    5.8352944   -2.1366039  -10.4919133  
C    5.5271888    0.2811461  -10.9039390  
C    5.0658801    1.5193922  -10.2985669  
O    5.0794270    2.5933512  -10.8857024  
C    4.5295202    1.4728997   -8.8322920  
O    4.1387059    2.5091431   -8.3119795  
C    4.5138532    0.1904083   -8.1331335  
H    4.8004944   -2.7154756   -7.4146989  
H    5.8994622    0.3078269  -11.9186370  
H    5.8272029   -4.0321933   -9.5008213  
H    6.2163228   -2.4163940  -11.3771155  
C    0.0000000    0.0000000    1.4700000  
C    1.0662921    0.0000102    2.3034270  
C    0.4961870   -0.0000064    3.6418889  
C   -0.9663858    0.0000850    3.4240247  
N   -1.2632773    0.0000084    2.1528658  
C   -1.8985362    0.0000517    4.5177257  
C   -1.3925775   -0.0004564    5.7720543  
O   -2.1456383   -0.0005410    6.8851312  
C    0.0786232   -0.0009323    6.0245000  
O    0.4683759   -0.0012588    7.1921102  
C    1.0143166   -0.0008442    4.8859032  
H    2.1107198   -0.0000632    2.0421868  
H   -2.9622183    0.0003270    4.3293377  
H   -1.5042274   -0.0009692    7.6184419  
H    2.0724152   -0.0013148    5.1109744  
