64

C   -3.3039370    0.0352494   -1.5420461  
C   -2.5843829    0.0281426   -0.3695873  
C   -1.2039309    0.0128882   -0.7283601  
C   -1.1421754    0.0116226   -2.1454382  
N   -2.4347492    0.0234517   -2.6077487  
C    0.0655087   -0.0015811   -2.8497913  
C    1.2321062   -0.0134216   -2.1101384  
O    2.4391434   -0.0262247   -2.7472494  
C    1.1910533   -0.0127490   -0.6955248  
O    2.4370159   -0.0258552   -0.1032836  
C    0.0000000    0.0000000    0.0000000  
H   -3.0029808    0.0322116    0.6222556  
H   -2.7052271    0.0360685   -3.5745287  
H    0.1193367   -0.0027619   -3.9297469  
H    3.1131239   -0.0332599   -2.0551752  
H    2.3198992   -0.0244264    0.8516432  
C   -5.7155363    0.0607657   -0.7739158  
C   -4.7574522    0.0504134   -1.7610507  
C   -5.4464040    0.0555178   -3.0100181  
C   -6.8346866    0.0694439   -2.7194955  
N   -6.9630420    0.0703472   -1.3526957  
C   -7.8157499    0.0780310   -3.7156029  
C   -7.3875462    0.0727654   -5.0289161  
O   -8.3032935    0.0810599   -6.0410192  
C   -6.0067753    0.0585220   -5.3388936  
O   -5.7410269    0.0544533   -6.6926682  
C   -5.0383817    0.0497712   -4.3567212  
H   -7.8327502    0.0895448   -0.8514768  
H   -7.7993898    0.0751247   -6.8652227  
H   -4.7868391    0.0447315   -6.8152824  
H   -3.9883529    0.0387246   -4.6246700  
H   -5.6077361    0.0606270    0.2972233  
C  -10.1778011    2.2247926   -0.6543928  
C  -11.4134375    1.7370935   -1.0119107  
C  -11.2106128    0.8596654   -2.1180667  
C   -9.8191382    0.8514672   -2.3931253  
N   -9.2216779    1.6923439   -1.4872638  
C   -9.2563688    0.0922765   -3.4235180  
C  -10.1138705   -0.6728068   -4.1900144  
O   -9.6173349   -1.4333513   -5.2088560  
C  -11.5052249   -0.6775541   -3.9313083  
O  -12.2260067   -1.4900167   -4.7820271  
C  -12.0611365    0.0713704   -2.9151393  
H  -12.3463636    1.9842874   -0.5349022  
H   -8.2369145    1.8796050   -1.4310801  
H  -10.3740110   -1.8810004   -5.6092524  
H  -13.1554414   -1.4358773   -4.5394926  
H  -13.1305154    0.0476931   -2.7409388  
H   -9.9030299    2.9114321    0.1279025  
C    2.5528530    2.1414826    2.8079335  
C    2.0663498    1.7338582    4.0032312  
C    0.9804344    0.8229586    3.6752840  
C    0.9495562    0.7966882    2.1971295  
N    1.8690446    1.5676019    1.6831036  
C    0.0000000    0.0000000    1.4700000  
C   -0.8785127   -0.7372425    2.1869543  
O   -1.8187535   -1.5261249    1.6395491  
C   -0.8723269   -0.7321790    3.6796354  
O   -1.7010379   -1.4274584    4.2670412  
C    0.1115397    0.0933559    4.4024240  
H    2.4028853    2.0163452    4.9860947  
H   -2.2861435   -1.9184361    2.3990168  
H    0.0832434    0.0693689    5.4835595  
H    3.3664920    2.8238276    2.6198634  
