58

C   -0.0876898    1.1285238   -0.8009271  
C   -0.0641275    0.7944145   -2.1169400  
C    0.0455434   -0.6437352   -2.1842669  
C    0.0841914   -1.1235345   -0.7896021  
N    0.0000000    0.0000000    0.0000000  
C    0.1838590   -2.4276616   -0.4276284  
C    0.2582412   -3.4252920   -1.4820176  
O    0.3498555   -4.6252495   -1.2583906  
C    0.2192718   -2.9397348   -2.9661065  
O    0.2814909   -3.7704509   -3.8623764  
C    0.1097089   -1.5074053   -3.2312120  
H   -0.1173030    1.4774806   -2.9459194  
H    0.2104784   -2.7584381    0.6013455  
H   -0.1615206    2.1042418   -0.3488061  
C    1.8610129    1.8882755   -5.5261472  
C    1.5436887    1.0584393   -4.5052373  
C    0.7025118    0.0329750   -5.1030196  
C    0.6134080    0.4093059   -6.5302612  
N    1.2905765    1.4960014   -6.7842800  
C   -0.1416697   -0.3658781   -7.4757950  
C   -0.7784559   -1.4671784   -7.0164746  
O   -1.5184534   -2.2824534   -7.7870404  
C   -0.7073808   -1.8733603   -5.5818577  
O   -1.3120618   -2.8875074   -5.2338819  
C    0.0736047   -1.0616520   -4.6315338  
H    1.8434929    1.1329368   -3.4739064  
H   -0.1896760   -0.0674125   -8.5128694  
H   -1.8404198   -2.9728949   -7.1797667  
C    3.9356640    3.7522816   -2.1781924  
C    4.5210862    4.8217669   -2.7656108  
C    4.1295486    4.7423766   -4.1645013  
C    3.2859154    3.5307554   -4.2472182  
N    3.1685909    2.9462139   -3.0859532  
C    2.6939122    3.0987908   -5.4833512  
C    2.9334774    3.8436013   -6.5866192  
O    2.4450645    3.5580046   -7.8056059  
C    3.7803101    5.0717716   -6.5353090  
O    3.9560425    5.7010615   -7.5785407  
C    4.3764009    5.4941034   -5.2553728  
H    5.1418667    5.5719487   -2.3063348  
H    2.7866533    4.2656036   -8.3816041  
H    4.9834301    6.3894930   -5.2602215  
H    3.9831307    3.4546309   -1.1427580  
C    0.0000000    0.0000000    1.4700000  
C    1.0662921    0.0000102    2.3034270  
C    0.4961870   -0.0000064    3.6418889  
C   -0.9663858    0.0000850    3.4240247  
N   -1.2632773    0.0000084    2.1528658  
C   -1.8985362    0.0000517    4.5177257  
C   -1.3925775   -0.0004564    5.7720543  
O   -2.1456383   -0.0005410    6.8851312  
C    0.0786232   -0.0009323    6.0245000  
O    0.4683759   -0.0012588    7.1921102  
C    1.0143166   -0.0008442    4.8859032  
H    2.1107198   -0.0000632    2.0421868  
H   -2.9622183    0.0003270    4.3293377  
H   -1.5042274   -0.0009692    7.6184419  
H    2.0724152   -0.0013148    5.1109744  
