62

C   -1.0431249    0.4196812   -0.7919009  
C   -0.6998319    0.2634427   -2.1148551  
C    0.6184642   -0.2806037   -2.1414699  
C    1.0317008   -0.4364422   -0.7935545  
N    0.0000000    0.0000000    0.0000000  
C    2.2836259   -0.9493301   -0.4408234  
C    3.1337624   -1.3117809   -1.4675050  
O    4.3679665   -1.8184544   -1.1793451  
C    2.7397015   -1.1634914   -2.8186313  
O    3.6978189   -1.5688111   -3.7247610  
C    1.5049035   -0.6573333   -3.1673477  
H    2.6046246   -1.0704647    0.5845977  
H    4.7922907   -2.0027236   -2.0274360  
H    3.3523079   -1.4356516   -4.6127329  
H    1.2310468   -0.5551985   -4.2109231  
H   -1.9489777    0.7986165   -0.3505420  
C   -3.4568246    3.6911737   -2.9144241  
C   -2.5572344    2.8256409   -2.3364467  
C   -2.3411156    1.7668091   -3.2674503  
C   -3.1422291    2.0428023   -4.4049790  
N   -3.8081335    3.2173583   -4.1567723  
C   -3.1789038    1.2067701   -5.5250207  
C   -2.3923020    0.0715994   -5.4963346  
O   -2.3899863   -0.7792271   -6.5636217  
C   -1.5865349   -0.2211362   -4.3703403  
O   -0.8611319   -1.3880938   -4.4942146  
C   -1.5500667    0.6030395   -3.2649309  
H   -2.1124379    2.9424203   -1.3630446  
H   -4.4430703    3.6694266   -4.7896000  
H   -3.7874629    1.4114353   -6.3950611  
H   -1.7825568   -1.4963151   -6.3398371  
H   -0.3446495   -1.5117673   -3.6919962  
C   -3.7469665    5.5066420   -1.1656372  
C   -4.4383603    6.6617439   -0.9873420  
C   -5.2252011    6.8697904   -2.1800001  
C   -4.9334695    5.7330433   -3.0741421  
N   -4.0302212    4.9434421   -2.4006721  
C   -5.4818207    5.5614454   -4.3036011  
C   -6.4219161    6.5633132   -4.7779599  
O   -6.9692196    6.4985989   -5.8709258  
C   -6.7454002    7.7756973   -3.8477519  
O   -7.5351414    8.6256710   -4.2364854  
C   -6.0915473    7.8512796   -2.5436756  
H   -4.4012446    7.2958005   -0.1194658  
H   -5.2543939    4.7202640   -4.9436017  
H   -6.3210846    8.6937806   -1.9055292  
H   -3.0541819    5.0195502   -0.4987934  
C    2.3971438    2.0127888    3.1728260  
C    1.9431056    1.6308205    1.9564670  
C    0.8496017    0.7127664    2.2356185  
C    0.7794028    0.6545384    3.7115134  
N    1.6840587    1.4146091    4.2663826  
C   -0.1885723   -0.1578550    4.3957118  
C   -1.0476298   -0.8789867    3.6398520  
O   -2.0015663   -1.6796266    4.1448486  
C   -1.0022026   -0.8410666    2.1483229  
O   -1.8147390   -1.5232959    1.5241687  
C    0.0000000    0.0000000    1.4700000  
H    2.3054237    1.9346118    0.9892483  
H   -0.2170646   -0.1815267    5.4753125  
H   -2.4487139   -2.0549881    3.3649027  
H    3.2048689    2.6911772    3.3971983  
