60

C   -4.0229859    0.6850070   -1.8408568  
C   -3.3460098   -0.0004261   -2.7913644  
C   -4.3652801   -0.7458406   -3.5138219  
C   -5.6347541   -0.3824352   -2.8482718  
N   -5.4404100    0.4560795   -1.8668888  
C   -6.8979644   -0.9189290   -3.2743691  
C   -6.8932337   -1.7790538   -4.3181586  
O   -7.9983138   -2.3554654   -4.8207403  
C   -5.6285817   -2.1650604   -5.0108458  
O   -5.6991224   -2.9531876   -5.9537675  
C   -4.3455537   -1.6011794   -4.5549932  
H   -7.8101572   -0.6361347   -2.7695494  
H   -7.6766074   -2.9120201   -5.5527948  
H   -3.4520522   -1.9058170   -5.0832732  
H   -3.6256580    1.3571156   -1.0969656  
C    0.0000000    0.0000000    0.0000000  
C    1.0662918   -0.0000103   -0.8334272  
C    0.4961866    0.0000066   -2.1718888  
C   -0.9663862   -0.0000848   -1.9540246  
N   -1.2632777   -0.0000084   -0.6828658  
C   -1.8985367   -0.0000514   -3.0477256  
C   -1.3925783    0.0004569   -4.3020543  
O   -2.1456389    0.0005417   -5.4151310  
C    0.0786225    0.0009329   -4.5544999  
O    0.4683752    0.0012595   -5.7221105  
C    1.0143159    0.0008446   -3.4159033  
H    2.1107193    0.0000632   -0.5721869  
H   -1.5042282    0.0009699   -6.1484418  
C    4.6171591   -2.0114326   -1.7322457  
C    3.3328186   -1.6298289   -1.9231047  
C    3.3780273   -0.7112570   -3.0503497  
C    4.8069984   -0.6523613   -3.4260584  
N    5.5382123   -1.4125185   -2.6569830  
C    5.2745444    0.1606806   -4.5148420  
C    4.3562391    0.8817948   -5.1975164  
O    4.6514300    1.6830002   -6.2352896  
C    2.9068147    0.8432093   -4.8427754  
O    2.1270256    1.5254615   -5.5073669  
C    2.4521470    0.0014842   -3.7217487  
H    2.4622556   -1.9341724   -1.3676129  
H    6.3245834    0.1848324   -4.7673198  
H    3.7953875    2.0581843   -6.5102110  
H    5.0049127   -2.6900161   -0.9891812  
C    0.0000000    0.0000000    1.4700000  
C    1.0521667    0.0011902    2.3562342  
C    0.4917218    0.0011957    3.6679131  
C   -0.9187428   -0.0003148    3.5178682  
N   -1.1833171    0.0009411    2.1707914  
C   -1.7951701   -0.0010350    4.6072090  
C   -1.2375837   -0.0005224    5.8710424  
O   -2.0474215   -0.0015360    6.9697579  
C    0.1673580    0.0013566    6.0411963  
O    0.5673524    0.0020687    7.3615553  
C    1.0325770    0.0023412    4.9669890  
H    2.0953057    0.0030649    2.0900562  
H   -2.0989778   -0.0102372    1.7591824  
H   -2.8710934   -0.0020419    4.4995513  
H   -1.4634884   -0.0006497    7.7393593  
H    1.5290710    0.0033153    7.3880045  
H    2.1042148    0.0039609    5.1284455  
