62

C    3.3041272    0.0001177   -1.5420431  
C    2.5845370   -0.0004780   -0.3695856  
C    1.2040004   -0.0000008   -0.7283590  
C    1.1422372    0.0006037   -2.1454372  
N    2.4348639    0.0026111   -2.6077465  
C   -0.0655183    0.0008798   -2.8497916  
C   -1.2321770    0.0002324   -2.1101397  
O   -2.4392813    0.0001147   -2.7472520  
C   -1.1911211   -0.0000007   -0.6955262  
O   -2.4371526   -0.0002320   -0.1032861  
C    0.0000000    0.0000000    0.0000000  
H    3.0031535   -0.0000661    0.6222581  
H    2.7054628   -0.0071098   -3.5745262  
H   -3.1132988   -0.0000650   -2.0551783  
H   -2.3200283   -0.0004072    0.8516412  
C    2.2991553   -2.1048097   -5.8924433  
C    1.6888954   -1.6397494   -7.0128793  
C    0.6412934   -0.7448183   -6.5810648  
C    0.6916333   -0.7264672   -5.1066424  
N    1.7177150   -1.5716519   -4.7520883  
C   -0.1387085    0.0017018   -4.3179686  
C   -1.1495782    0.8219300   -4.9644229  
O   -1.9445182    1.5135264   -4.3414738  
C   -1.2212028    0.8175533   -6.5247613  
O   -2.0683186    1.5039439   -7.0802106  
C   -0.2716618   -0.0081811   -7.2666416  
H    1.9434322   -1.8946831   -8.0262074  
H   -0.3277648   -0.0054796   -8.3467198  
H    3.1245931   -2.7923373   -5.8038528  
H    2.0018698   -1.7690376   -3.8101000  
C    5.7396279   -0.0009029   -0.8296830  
C    4.7577221    0.0005130   -1.7610465  
C    5.4529346    0.0023818   -3.0390038  
C    6.8880473    0.0019129   -2.6825830  
N    7.0622971   -0.0000910   -1.3888974  
C    7.9203001    0.0033443   -3.6823523  
C    7.5363318    0.0047726   -4.9792335  
O    8.3921606    0.0062107   -6.0153777  
C    6.0959299    0.0049096   -5.3709018  
O    5.8193624    0.0063725   -6.5703718  
C    5.0558664    0.0034672   -4.3267796  
H    8.9611542    0.0031679   -3.3933327  
H    7.8236449    0.0069709   -6.8065427  
H    4.0240706    0.0035016   -4.6517825  
H    5.6367315   -0.0024969    0.2438081  
C    0.8676693    0.7151171    2.2619005  
C    0.5875920    0.4624972    3.5848544  
C   -0.5048400   -0.4542819    3.6114698  
C   -0.8517165   -0.7276451    2.2635546  
N    0.0000000    0.0000000    1.4700000  
C   -1.8902865   -1.5946756    1.9108239  
C   -2.5912627   -2.1969500    2.9375057  
O   -3.6148162   -3.0527051    2.6493466  
C   -2.2603868   -1.9365747    4.2886322  
O   -3.0513550   -2.6123276    5.1947621  
C   -1.2361111   -1.0811317    4.6373480  
H    1.1060808    0.8876438    4.4271209  
H   -2.1597133   -1.8070987    0.8854031  
H   -3.9636755   -3.3565188    3.4974381  
H   -2.7621927   -2.3810384    6.0827341  
H   -1.0058879   -0.9010589    5.6809233  
H    1.6167816    1.3499334    1.8205408  
