60

C    3.3003545    0.0005275   -1.4738985  
C    2.5232816    0.0003498   -2.6090745  
C    1.1623201   -0.0001318   -2.1820100  
C    1.1711884    0.0000584   -0.7636138  
N    2.4852303   -0.0014918   -0.3662355  
C    0.0000000    0.0000000    0.0000000  
C   -1.2020383    0.0000520   -0.6806475  
O   -2.3759247    0.0003495    0.0157748  
C   -1.2314656   -0.0005111   -2.0955504  
O   -2.5054387   -0.0008035   -2.6250179  
C   -0.0764515   -0.0007273   -2.8495193  
H    2.8919956   -0.0005620   -3.6205297  
H    2.8036266    0.0088180    0.5858667  
H   -3.0835637    0.0000349   -0.6418815  
H   -2.4360046   -0.0011526   -3.5845919  
H    4.3715550    0.0004893   -1.3667129  
C    2.3339072   -2.1433066   -5.7798814  
C    1.7884039   -1.7364551   -6.9497006  
C    0.7199610   -0.8255803   -6.5686008  
C    0.7627111   -0.7984773   -5.0907571  
N    1.7068232   -1.5689207   -4.6227199  
C   -0.1496414   -0.0015612   -4.3176957  
C   -1.0629248    0.7351038   -4.9904306  
O   -1.9749198    1.5241139   -4.3973303  
C   -1.1310647    0.7291946   -6.4815657  
O   -1.9881487    1.4239795   -7.0273692  
C   -0.1842217   -0.0965591   -7.2519837  
H    2.0756490   -2.0194342   -7.9479435  
H   -2.4796306    1.9159033   -5.1328036  
H    3.1560524   -2.8253865   -5.6321748  
C   -0.2957794   -0.0648046   -8.7174008  
C    0.4434638   -0.7236319   -9.6466697  
C   -0.0729162   -0.3452744  -10.9408997  
C   -1.1815250    0.5947479  -10.6876505  
N   -1.2653478    0.7220819   -9.3202992  
C   -1.9290202    1.1810655  -11.6567666  
C   -1.6212689    0.8650308  -13.0416664  
O   -2.2367964    1.3416229  -13.9862748  
C   -0.4514960   -0.1281978  -13.3331000  
O   -0.1833559   -0.4020893  -14.4951440  
C    0.2821620   -0.6958773  -12.2046773  
H    1.2574707   -1.3978693   -9.4481487  
H   -2.7378077    1.8679664  -11.4495489  
H    1.0908139   -1.3825905  -12.4149907  
H   -1.9274199    1.2994385   -8.8351519  
C    2.3971438    2.0127888    3.1728260  
C    1.9431056    1.6308205    1.9564670  
C    0.8496017    0.7127664    2.2356185  
C    0.7794028    0.6545384    3.7115134  
N    1.6840587    1.4146091    4.2663826  
C   -0.1885723   -0.1578550    4.3957118  
C   -1.0476298   -0.8789867    3.6398520  
O   -2.0015663   -1.6796266    4.1448486  
C   -1.0022026   -0.8410666    2.1483229  
O   -1.8147390   -1.5232959    1.5241687  
C    0.0000000    0.0000000    1.4700000  
H    2.3054237    1.9346118    0.9892483  
H   -0.2170646   -0.1815267    5.4753125  
H   -2.4487139   -2.0549881    3.3649027  
H    3.2048689    2.6911772    3.3971983  
