58

C    3.2798082    0.0005856   -1.4499651  
C    2.5571141    0.0005564   -2.5996557  
C    1.1637430    0.0001547   -2.2210361  
C    1.1336957   -0.0000201   -0.7459470  
N    2.4483511   -0.0001429   -0.3402721  
C    0.0000000    0.0000000    0.0000000  
C   -1.2757373   -0.0000187   -0.6964409  
O   -2.3524598   -0.0000640   -0.1142310  
C   -1.2676502   -0.0000875   -2.2584078  
O   -2.3355770   -0.0004103   -2.8557291  
C    0.0181554    0.0001757   -2.9516296  
H    2.9547346    0.0006074   -3.5989107  
H    0.0150783    0.0003316   -4.0331629  
H    2.7563625    0.0012824    0.6148059  
C    6.4690078    0.0019755   -4.4192243  
C    7.5790602    0.0025231   -3.6450395  
C    7.0826139    0.0021761   -2.2775451  
C    5.6103552    0.0015082   -2.4155205  
N    5.2447502    0.0013071   -3.6686456  
C    4.7390845    0.0009614   -1.2727285  
C    5.3125314    0.0006874   -0.0477823  
O    4.6211391    0.0001824    1.1046138  
C    6.7952867    0.0009744    0.1242535  
O    7.2479824    0.0008235    1.2689314  
C    7.6676532    0.0015791   -1.0635602  
H    8.6077289    0.0030018   -3.9627114  
H    5.3014935    0.0000717    1.8019448  
H    8.7364289    0.0016562   -0.8963845  
C    9.6434342    0.0042566   -7.4042724  
C    8.9446494    0.0034938   -8.5632710  
C    7.5472149    0.0025216   -8.1587021  
C    7.5871481    0.0027409   -6.6805309  
N    8.8132381    0.0038373   -6.2325430  
C    6.3890374    0.0020110   -5.8870477  
C    5.2048623    0.0014923   -6.5405487  
O    4.0091095    0.0007813   -5.9271843  
C    5.1316394    0.0016297   -8.0314536  
O    4.0195396    0.0010082   -8.5591412  
C    6.3747459    0.0023394   -8.8230416  
H    9.3299091    0.0036705   -9.5685819  
H    3.3584830    0.0005760   -6.6523306  
H    6.2788902    0.0025327   -9.9005583  
H   10.7139795    0.0050976   -7.2742489  
C    0.0000000    0.0000000    1.4700000  
C    1.0662921    0.0000102    2.3034270  
C    0.4961870   -0.0000064    3.6418889  
C   -0.9663858    0.0000850    3.4240247  
N   -1.2632773    0.0000084    2.1528658  
C   -1.8985362    0.0000517    4.5177257  
C   -1.3925775   -0.0004564    5.7720543  
O   -2.1456383   -0.0005410    6.8851312  
C    0.0786232   -0.0009323    6.0245000  
O    0.4683759   -0.0012588    7.1921102  
C    1.0143166   -0.0008442    4.8859032  
H    2.1107198   -0.0000632    2.0421868  
H   -2.9622183    0.0003270    4.3293377  
H   -1.5042274   -0.0009692    7.6184419  
H    2.0724152   -0.0013148    5.1109744  
