58

C    3.1301152   -0.0010311   -1.7028248  
C    2.5367767   -0.0002766   -0.4864663  
C    1.1089906    0.0001028   -0.7656180  
C    1.0177872   -0.0004148   -2.2415129  
N    2.1993581   -0.0011610   -2.7963816  
C   -0.2459210   -0.0002877   -2.9257117  
C   -1.3675316   -0.0000605   -2.1698524  
O   -2.6129307    0.0000866   -2.6748494  
C   -1.3083586    0.0000911   -0.6783233  
O   -2.3693263    0.0004206   -0.0541693  
C    0.0000000    0.0000000    0.0000000  
H    3.0096017   -0.0001007    0.4807526  
H   -3.1967436    0.0002093   -1.8949037  
C    6.5698743   -0.0006425    0.9721619  
C    7.6069603   -0.0018566    0.1026619  
C    6.9912940   -0.0024303   -1.2154638  
C    5.5370518   -0.0015104   -0.9475758  
N    5.2839239   -0.0003800    0.3330159  
C    4.5679462   -0.0016852   -2.0086697  
C    5.0305956   -0.0023423   -3.2796100  
O    4.2398098   -0.0025845   -4.3662092  
C    6.4922748   -0.0029066   -3.5823555  
O    6.8417601   -0.0036168   -4.7626434  
C    7.4664608   -0.0027577   -2.4765134  
H    8.6597310   -0.0022169    0.3279342  
H    4.8556983   -0.0030409   -5.1210829  
H    8.5162200   -0.0030652   -2.7377351  
H    6.6068536    0.0001033    2.0499396  
C   -0.2963280   -0.0005339   -4.3948472  
C    0.7407584   -0.0008424   -5.2643476  
C    0.1250922   -0.0009651   -6.5824732  
C   -1.3291498   -0.0008024   -6.3145845  
N   -1.5822781   -0.0004687   -5.0339934  
C   -2.2982555   -0.0008136   -7.3756789  
C   -1.8356058   -0.0005908   -8.6466195  
O   -2.6263915   -0.0005806   -9.7332194  
C   -0.3739267   -0.0003762   -8.9493645  
O   -0.0244410   -0.0003032  -10.1296528  
C    0.6002594   -0.0004128   -7.8435228  
H    1.7935301   -0.0008806   -5.0390746  
H   -3.3548522   -0.0008990   -7.1509277  
H   -2.0105034   -0.0003707  -10.4880931  
H    1.6500179   -0.0001373   -8.1047442  
C    2.4951002    2.0940188    2.9809380  
C    1.9440701    1.6314916    1.8291961  
C    0.8759964    0.7350050    2.2038498  
C    0.8497377    0.7130254    3.6788474  
N    1.8560616    1.5571714    4.0882609  
C   -0.0205033   -0.0168748    4.4215661  
C   -0.9962600   -0.8356168    3.7214979  
O   -1.8224391   -1.5286685    4.3006425  
C   -0.9864710   -0.8277881    2.1595606  
O   -1.8030528   -1.5133726    1.5592035  
C    0.0000000    0.0000000    1.4700000  
H    2.2509283    1.8888011    0.8310761  
H   -0.0229599   -0.0187323    5.5027230  
H    3.3143982    2.7817323    3.1139444  
H    2.0889452    1.7545833    5.0442112  
