60

C    1.1243407    0.0100080   -0.7919011  
C    0.7474070    0.0234653   -2.1148553  
C   -0.6787391    0.0234400   -2.1414701  
C   -1.1201749    0.0098439   -0.7935549  
N    0.0000000    0.0000000    0.0000000  
C   -2.4730817    0.0063367   -0.4408239  
C   -3.3971963    0.0170513   -1.4675052  
O   -4.7313521    0.0145605   -1.1793463  
C   -2.9763659    0.0303100   -2.8186317  
O   -4.0166484    0.0394568   -3.7247616  
C   -1.6418574    0.0335038   -3.1673481  
H    1.4178702    0.0311175   -2.9571215  
H   -2.8160163   -0.0041503    0.5845965  
H   -5.1938822    0.0230150   -2.0274371  
H   -3.6464692    0.0481798   -4.6127337  
H    2.1062463    0.0053113   -0.3505413  
C    1.5731598   -2.0886860   -5.2038823  
C    1.4268801   -1.6686673   -6.4820708  
C    0.2928463   -0.7579271   -6.4501491  
C   -0.1353074   -0.7453027   -5.0348366  
N    0.6115276   -1.5234345   -4.2994877  
C   -1.2456348    0.0471564   -4.5828768  
C   -1.8983162    0.7933926   -5.5029159  
O   -2.9512310    1.5796901   -5.2215856  
C   -1.4900237    0.8021756   -6.9386669  
O   -2.1296692    1.5051133   -7.7209413  
C   -0.3478286   -0.0192615   -7.3774783  
H   -3.1965795    1.9802972   -6.0750906  
H   -0.0836670    0.0148416   -8.4259468  
H    2.3059288   -2.7749403   -4.8100834  
C    3.2678603   -5.4352337   -7.9947553  
C    2.5829509   -4.5644909   -7.2173967  
C    2.6875878   -3.2861962   -7.9040652  
C    3.4914755   -3.5760787   -9.1108435  
N    3.8344514   -4.8342208   -9.1694609  
C    3.8230505   -2.5560790  -10.0672672  
C    3.3717175   -1.3035079   -9.8291494  
O    3.6058940   -0.2551571  -10.6367151  
C    2.5578843   -0.9794478   -8.6205046  
O    2.1807445    0.1822824   -8.4676363  
C    2.2310677   -2.0431341   -7.6542296  
H    2.0699915   -4.7649092   -6.2923122  
H    4.4122567   -2.7961261  -10.9402634  
H    3.1595263    0.4952823  -10.2045710  
H    3.4259584   -6.4893379   -7.8309200  
C    2.5528530    2.1414826    2.8079335  
C    2.0663498    1.7338582    4.0032312  
C    0.9804344    0.8229586    3.6752840  
C    0.9495562    0.7966882    2.1971295  
N    1.8690446    1.5676019    1.6831036  
C    0.0000000    0.0000000    1.4700000  
C   -0.8785127   -0.7372425    2.1869543  
O   -1.8187535   -1.5261249    1.6395491  
C   -0.8723269   -0.7321790    3.6796354  
O   -1.7010379   -1.4274584    4.2670412  
C    0.1115397    0.0933559    4.4024240  
H    2.4028853    2.0163452    4.9860947  
H   -2.2861435   -1.9184361    2.3990168  
H    0.0832434    0.0693689    5.4835595  
H    3.3664920    2.8238276    2.6198634  
