60

C    2.4521484    0.0014842   -3.7217481  
C    3.4891871    0.0026165   -2.8521913  
C    4.6797438    0.0027985   -3.6882978  
C    4.1623480    0.0015425   -5.0735358  
N    2.8572365    0.0008489   -5.0994560  
C    5.0381741    0.0013700   -6.2128405  
C    6.3703211    0.0027939   -5.9789273  
O    7.3023599    0.0028121   -6.9470927  
C    6.9233377    0.0044557   -4.5924456  
O    8.1464873    0.0055754   -4.4541528  
C    6.0043347    0.0045566   -3.4403343  
H    3.4509646    0.0033402   -1.7762667  
H    4.6326017    0.0002347   -7.2140495  
H    8.1530728    0.0040285   -6.4722895  
H    6.4446259    0.0058990   -2.4522190  
C    0.0000000    0.0000000    0.0000000  
C    1.0662922   -0.0000101   -0.8334266  
C    0.4961875    0.0000066   -2.1718886  
C   -0.9663853   -0.0000848   -1.9540248  
N   -1.2632772   -0.0000083   -0.6828658  
C   -1.8985359   -0.0000514   -3.0477260  
C   -1.3925768    0.0004568   -4.3020543  
O   -2.1456378    0.0005413   -5.4151314  
C    0.0786238    0.0009327   -4.5544999  
O    0.4683768    0.0012594   -5.7221098  
C    1.0143171    0.0008446   -3.4159030  
H    2.1107199    0.0000634   -0.5721863  
H   -1.5042266    0.0009697   -6.1484425  
C   -4.0230208    0.6852479   -1.8410567  
C   -3.3460091   -0.0004261   -2.7913651  
C   -4.3652407   -0.7461027   -3.5136068  
C   -5.6347335   -0.3825694   -2.8481626  
N   -5.4404327    0.4562401   -1.8670228  
C   -6.8979169   -0.9192519   -3.2741043  
C   -6.8931413   -1.7796796   -4.3176445  
O   -7.9981917   -2.3562935   -4.8200586  
C   -5.6284689   -2.1658222   -5.0102187  
O   -5.6989684   -2.9542263   -5.9529116  
C   -4.3454701   -1.6017426   -4.5545295  
H   -7.8101235   -0.6363580   -2.7693670  
H   -7.6764564   -2.9130444   -5.5519517  
H   -3.4519522   -1.9064878   -5.0827211  
H   -3.6257278    1.3575929   -1.0973605  
C    1.1188642   -0.0008217    2.2703808  
C    0.0000000    0.0000000    1.4700000  
C   -1.1323862   -0.0008904    2.3373528  
C   -0.6382662   -0.0019682    3.6669281  
N    0.7324016   -0.0038477    3.5902241  
C   -1.4770914   -0.0027325    4.7854808  
C   -2.8395474   -0.0020958    4.5576857  
O   -3.7039201   -0.0024443    5.6140350  
C   -3.3517868   -0.0013946    3.2384331  
O   -4.7300496   -0.0012389    3.1773122  
C   -2.5248543   -0.0009135    2.1344818  
H    1.3576314    0.0056174    4.3757045  
H   -1.1067570   -0.0036993    5.8013813  
H   -4.5940033   -0.0021850    5.2385129  
H   -4.9934601   -0.0007286    2.2519915  
H   -2.9462578   -0.0005617    1.1360343  
H    2.1619896   -0.0009344    2.0042067  
