62

C    3.3041269    0.0001180   -1.5420440  
C    2.5845369   -0.0004778   -0.3695863  
C    1.2040001   -0.0000004   -0.7283596  
C    1.1422367    0.0006041   -2.1454377  
N    2.4348632    0.0026118   -2.6077472  
C   -0.0655191    0.0008805   -2.8497920  
C   -1.2321774    0.0002330   -2.1101397  
O   -2.4392828    0.0001156   -2.7472515  
C   -1.1911212   -0.0000004   -0.6955259  
O   -2.4371524   -0.0002317   -0.1032858  
C    0.0000000    0.0000000    0.0000000  
H    3.0031536   -0.0000660    0.6222569  
H    2.7054620   -0.0071092   -3.5745270  
H   -3.1132995   -0.0000643   -2.0551781  
H   -2.3200275   -0.0004071    0.8516414  
H    4.3686615    0.0004074   -1.7024307  
C    2.3129701   -2.1206335   -5.9853346  
C    1.8203197   -1.6593250   -4.7866029  
C    0.7463499   -0.7716021   -5.0917862  
C    0.6289197   -0.7306562   -6.5047477  
N    1.5963326   -1.5595237   -7.0163222  
C   -0.3301700    0.0460735   -7.1617302  
C   -1.1865083    0.7948790   -6.3780511  
O   -2.1420048    1.5708512   -6.9678864  
C   -1.0848083    0.7675257   -4.9667656  
O   -2.0089569    1.5677390   -4.3272717  
C   -0.1387095    0.0017026   -4.3179683  
H    2.1903004   -1.9285739   -3.8121224  
H    1.7490254   -1.7403223   -7.9920158  
H   -0.4247493    0.0817375   -8.2382915  
H   -2.6234336    2.0034617   -6.2507119  
H   -1.8718982    1.4918044   -3.3780339  
C    5.0339690   -4.2943195   -3.3105275  
C    5.7782768   -4.9541742   -4.2350126  
C    5.2681293   -4.5782653   -5.5324245  
C    4.1576586   -3.6385601   -5.2862546  
N    4.0669169   -3.5090532   -3.9195491  
C    3.4146383   -3.0543135   -6.2600520  
C    3.7295156   -3.3724018   -7.6428779  
O    3.1184095   -2.8977536   -8.5913293  
C    4.9013749   -4.3653351   -7.9268387  
O    5.1755002   -4.6409437   -9.0870786  
C    5.6297497   -4.9306935   -6.7938371  
H    6.5917180   -5.6275524   -4.0313247  
H    6.4398884   -5.6172171   -6.9989829  
H    5.1104122   -4.3157996   -2.2355462  
H    3.4020529   -2.9313421   -3.4386616  
C    2.5528530    2.1414826    2.8079335  
C    2.0663498    1.7338582    4.0032312  
C    0.9804344    0.8229586    3.6752840  
C    0.9495562    0.7966882    2.1971295  
N    1.8690446    1.5676019    1.6831036  
C    0.0000000    0.0000000    1.4700000  
C   -0.8785127   -0.7372425    2.1869543  
O   -1.8187535   -1.5261249    1.6395491  
C   -0.8723269   -0.7321790    3.6796354  
O   -1.7010379   -1.4274584    4.2670412  
C    0.1115397    0.0933559    4.4024240  
H    2.4028853    2.0163452    4.9860947  
H   -2.2861435   -1.9184361    2.3990168  
H    0.0832434    0.0693689    5.4835595  
H    3.3664920    2.8238276    2.6198634  
