58

C    1.9999919   -2.1070891   -5.1447771  
C    1.9105666   -1.6426499   -6.4177158  
C    0.7784253   -0.7475274   -6.4606980  
C    0.2115583   -0.7283877   -5.0986831  
N    0.9973789   -1.5733447   -4.3494012  
C   -0.8712826    0.0001710   -4.7267111  
C   -1.5219798    0.8200163   -5.7351666  
O   -2.5037638    1.5119150   -5.4992068  
C   -0.9387700    0.8148043   -7.1841818  
O   -1.4783591    1.5008665   -8.0417493  
C    0.2330299   -0.0112904   -7.4640108  
H    2.5631034   -1.8981145   -7.2335269  
H    2.7138550   -2.7945388   -4.7208629  
H    0.8643845   -1.7702170   -3.3744133  
C    1.8643943   -3.2120292  -10.0311791  
C    1.3226903   -2.5060745   -9.0053816  
C    1.2315121   -1.1326194   -9.4414356  
C    1.7683237   -1.0960221  -10.8152213  
N    2.1349336   -2.3881829  -11.1132261  
C    1.8546043    0.0234838  -11.5774321  
C    1.3878008    1.2759823  -11.0065769  
O    1.4234479    2.3386409  -11.6130303  
C    0.8156786    1.2606325   -9.5532191  
O    0.4199355    2.3090927   -9.0619166  
C    0.7736685   -0.0084049   -8.8309794  
H    1.0215333   -2.9022238   -8.0519758  
H    2.2515854    0.0286066  -12.5830621  
H    2.0889270   -4.2647819  -10.0876298  
H    2.5352825   -2.6871053  -11.9835208  
C    1.0965514    0.0001359   -0.8010305  
C    0.0000000    0.0000000    0.0000000  
C   -1.1546563    0.0001470   -0.8669513  
C   -0.6372014    0.0003519   -2.2486282  
N    0.7342871    0.0007337   -2.1395014  
C   -1.4147739    0.0001352   -3.3608717  
C   -2.8576049   -0.0001048   -3.1854462  
O   -3.6427779   -0.0002494   -4.1244907  
C   -3.4275840   -0.0000725   -1.7311666  
O   -4.6406831    0.0000333   -1.5710060  
C   -2.4891867   -0.0001091   -0.6116744  
H   -2.8919122   -0.0002918    0.3920866  
H    2.1388272    0.0000663   -0.5261648  
H    1.3735872   -0.0006099   -2.9130262  
C    2.3971438    2.0127888    3.1728260  
C    1.9431056    1.6308205    1.9564670  
C    0.8496017    0.7127664    2.2356185  
C    0.7794028    0.6545384    3.7115134  
N    1.6840587    1.4146091    4.2663826  
C   -0.1885723   -0.1578550    4.3957118  
C   -1.0476298   -0.8789867    3.6398520  
O   -2.0015663   -1.6796266    4.1448486  
C   -1.0022026   -0.8410666    2.1483229  
O   -1.8147390   -1.5232959    1.5241687  
C    0.0000000    0.0000000    1.4700000  
H    2.3054237    1.9346118    0.9892483  
H   -0.2170646   -0.1815267    5.4753125  
H   -2.4487139   -2.0549881    3.3649027  
H    3.2048689    2.6911772    3.3971983  
