60

C    3.3041283    0.0001171   -1.5420418  
C    2.5845377   -0.0004782   -0.3695842  
C    1.2040011   -0.0000010   -0.7283583  
C    1.1422387    0.0006032   -2.1454372  
N    2.4348655    0.0026102   -2.6077457  
C   -0.0655166    0.0008792   -2.8497924  
C   -1.2321758    0.0002321   -2.1101405  
O   -2.4392798    0.0001143   -2.7472530  
C   -1.1911203   -0.0000009   -0.6955271  
O   -2.4371529   -0.0002318   -0.1032872  
C    0.0000000    0.0000000    0.0000000  
H    3.0031535   -0.0000663    0.6222594  
H   -0.1193528    0.0014836   -3.9297473  
H   -3.1132976   -0.0000650   -2.0551803  
H   -2.3200285   -0.0004068    0.8516399  
H    4.3686633    0.0004068   -1.7024274  
C    5.6587049   -2.1482577   -4.5997605  
C    5.5107229   -1.7555993   -5.8864228  
C    4.3729248   -0.8490970   -5.8734377  
C    3.9446822   -0.8087297   -4.4586716  
N    4.6947132   -1.5682543   -3.7072961  
C    2.8310686   -0.0116229   -4.0232742  
C    2.1753270    0.7125516   -4.9586395  
O    1.1191558    1.5001773   -4.6937094  
C    2.5836206    0.6930782   -6.3942852  
O    1.9410908    1.3768911   -7.1910134  
C    3.7292216   -0.1325940   -6.8159344  
H    0.8721742    1.8818755   -5.5553699  
H    3.9932695   -0.1192724   -7.8649015  
H    6.3942996   -2.8231078   -4.1917764  
C    7.3673345   -5.5452377   -7.3203250  
C    6.6788014   -4.6613159   -6.5612569  
C    6.7781610   -3.3971986   -7.2744436  
C    7.5832776   -3.7088555   -8.4749608  
N    7.9314641   -4.9665147   -8.5073433  
C    7.9106508   -2.7076609   -9.4524690  
C    7.4541263   -1.4522766   -9.2405026  
O    7.6839804   -0.4200363  -10.0697717  
C    6.6389231   -1.1064522   -8.0388325  
O    6.2569692    0.0566415   -7.9102060  
C    6.3164885   -2.1510981   -7.0505634  
H    6.1666507   -4.8445190   -5.6321642  
H    8.5008718   -2.9634214  -10.3203036  
H    7.2344948    0.3373980   -9.6533470  
H    7.5297934   -6.5950317   -7.1345490  
C    0.0000000    0.0000000    1.4700000  
C    1.0662921    0.0000102    2.3034270  
C    0.4961870   -0.0000064    3.6418889  
C   -0.9663858    0.0000850    3.4240247  
N   -1.2632773    0.0000084    2.1528658  
C   -1.8985362    0.0000517    4.5177257  
C   -1.3925775   -0.0004564    5.7720543  
O   -2.1456383   -0.0005410    6.8851312  
C    0.0786232   -0.0009323    6.0245000  
O    0.4683759   -0.0012588    7.1921102  
C    1.0143166   -0.0008442    4.8859032  
H    2.1107198   -0.0000632    2.0421868  
H   -2.9622183    0.0003270    4.3293377  
H   -1.5042274   -0.0009692    7.6184419  
H    2.0724152   -0.0013148    5.1109744  
