64

C    1.1188649    0.0008223   -0.8003809  
C    0.0000000    0.0000000    0.0000000  
C   -1.1323859    0.0008898   -0.8673530  
C   -0.6382651    0.0019678   -2.1969287  
N    0.7324024    0.0038481   -2.1202242  
C   -1.4770903    0.0027319   -3.3154817  
C   -2.8395469    0.0020944   -3.0876865  
O   -3.7039190    0.0024425   -4.1440359  
C   -3.3517863    0.0013930   -1.7684340  
O   -4.7300491    0.0012365   -1.7073134  
C   -2.5248538    0.0009123   -0.6644826  
H   -1.1067558    0.0036986   -4.3313816  
H   -4.5940024    0.0021827   -3.7685147  
H   -4.9934598    0.0007262   -0.7819928  
H   -2.9462575    0.0005602    0.3339646  
H    2.1619898    0.0009355   -0.5342066  
C    4.5872068   -2.1313003   -2.8760565  
C    3.4257632   -1.6618669   -2.3075954  
C    2.8225616   -0.7845961   -3.2568814  
C    3.6683580   -0.7581070   -4.3952367  
N    4.7314860   -1.5851497   -4.1299508  
C    3.3837523    0.0055789   -5.5312702  
C    2.2240422    0.7559615   -5.5180177  
O    1.8977521    1.5195630   -6.6012814  
C    1.3675647    0.7429390   -4.3914764  
O    0.2523242    1.5428638   -4.5318413  
C    1.6478443   -0.0100100   -3.2702998  
H    3.0590290   -1.9191256   -1.3286585  
H    5.4907282   -1.7742962   -4.7590422  
H    1.0629731    1.9557297   -6.3864166  
H   -0.2722932    1.4770480   -3.7280697  
H    5.3248330   -2.8113800   -2.4857246  
C    4.9070865   -1.0427702   -7.2595360  
C    4.2546355    0.0390400   -6.7150533  
C    4.5894179    1.1724175   -7.5137870  
C    5.4564043    0.7170096   -8.5398791  
N    5.6300480   -0.6321724   -8.3550199  
C    5.9865124    1.5674243   -9.5148507  
C    5.6347568    2.9018248   -9.4530387  
O    6.1236291    3.7758694  -10.3804357  
C    4.7713074    3.3753528   -8.4366519  
O    4.5161666    4.7291769   -8.5101869  
C    4.2481856    2.5370155   -7.4743314  
H    6.1871795   -1.2307894   -8.9374663  
H    6.6479266    1.2265743  -10.2994240  
H    5.7596451    4.6424922  -10.1573987  
H    3.9257508    4.9670330   -7.7887736  
H    3.5894897    2.9285898   -6.7079977  
H    4.9150866   -2.0745122   -6.9522848  
C    0.0000000    0.0000000    1.4700000  
C    1.0662921    0.0000102    2.3034270  
C    0.4961870   -0.0000064    3.6418889  
C   -0.9663858    0.0000850    3.4240247  
N   -1.2632773    0.0000084    2.1528658  
C   -1.8985362    0.0000517    4.5177257  
C   -1.3925775   -0.0004564    5.7720543  
O   -2.1456383   -0.0005410    6.8851312  
C    0.0786232   -0.0009323    6.0245000  
O    0.4683759   -0.0012588    7.1921102  
C    1.0143166   -0.0008442    4.8859032  
H    2.1107198   -0.0000632    2.0421868  
H   -2.9622183    0.0003270    4.3293377  
H   -1.5042274   -0.0009692    7.6184419  
H    2.0724152   -0.0013148    5.1109744  
