64

C    2.3136490   -2.1180447   -5.9171365  
C    1.6624061   -1.6181598   -7.0209770  
C    0.6419646   -0.7441450   -6.5420229  
C    0.7194932   -0.7504916   -5.1257338  
N    1.7437762   -1.5963711   -4.7793969  
C   -0.1387079    0.0017019   -4.3179684  
C   -1.0923523    0.7746129   -4.9514888  
O   -1.9557347    1.5288503   -4.2107391  
C   -1.1856778    0.7938838   -6.3634861  
O   -2.1870601    1.6126755   -6.8432324  
C   -0.3395493    0.0518696   -7.1609864  
H    1.8935984   -1.8552471   -8.0453467  
H    2.0414324   -1.7936221   -3.8410614  
H   -2.5301601    1.9837417   -4.8403222  
H   -2.1819306    1.5683232   -7.8042790  
H   -0.4351233    0.0866799   -8.2399366  
C    4.7116911   -4.2517828   -9.0294052  
C    3.7940088   -3.4563402   -8.3831869  
C    4.0310692   -3.5995309   -6.9839377  
C    5.1149412   -4.5023974   -6.8356781  
N    5.5031083   -4.8807093   -8.0969568  
C    5.6216591   -4.8772881   -5.5876872  
C    5.0235128   -4.3305503   -4.4689934  
O    5.4789719   -4.6621758   -3.2257737  
C    3.9407279   -3.4282453   -4.5964315  
O    3.4531193   -2.9711215   -3.3895269  
C    3.4401445   -3.0581688   -5.8272790  
H    3.0450638   -2.8485994   -8.8614394  
H    6.2575777   -5.5085349   -8.3081235  
H    6.4474005   -5.5650474   -5.4679429  
H    4.9303928   -4.1771371   -2.5956448  
H    2.7246364   -2.3676226   -3.5647547  
H    4.8633833   -4.4213748  -10.0816337  
C    3.3041273    0.0001178   -1.5420428  
C    2.5845373   -0.0004780   -0.3695851  
C    1.2040007   -0.0000007   -0.7283589  
C    1.1422374    0.0006038   -2.1454372  
N    2.4348641    0.0026111   -2.6077464  
C   -0.0655179    0.0008799   -2.8497918  
C   -1.2321766    0.0002325   -2.1101402  
O   -2.4392814    0.0001148   -2.7472522  
C   -1.1911209   -0.0000007   -0.6955266  
O   -2.4371528   -0.0002320   -0.1032862  
C    0.0000000    0.0000000    0.0000000  
H    3.0031533   -0.0000660    0.6222584  
H    2.7054631   -0.0071097   -3.5745261  
H   -3.1132988   -0.0000648   -2.0551787  
H   -2.3200282   -0.0004072    0.8516409  
H    4.3686625    0.0004073   -1.7024290  
C    0.0000000    0.0000000    1.4700000  
C    1.0662921    0.0000102    2.3034270  
C    0.4961870   -0.0000064    3.6418889  
C   -0.9663858    0.0000850    3.4240247  
N   -1.2632773    0.0000084    2.1528658  
C   -1.8985362    0.0000517    4.5177257  
C   -1.3925775   -0.0004564    5.7720543  
O   -2.1456383   -0.0005410    6.8851312  
C    0.0786232   -0.0009323    6.0245000  
O    0.4683759   -0.0012588    7.1921102  
C    1.0143166   -0.0008442    4.8859032  
H    2.1107198   -0.0000632    2.0421868  
H   -2.9622183    0.0003270    4.3293377  
H   -1.5042274   -0.0009692    7.6184419  
H    2.0724152   -0.0013148    5.1109744  
