60

C    1.1243415    0.0100053   -0.7919006  
C    0.7474076    0.0234629   -2.1148549  
C   -0.6787379    0.0234402   -2.1414703  
C   -1.1201745    0.0098455   -0.7935549  
N    0.0000000    0.0000000    0.0000000  
C   -2.4730814    0.0063409   -0.4408250  
C   -3.3971956    0.0170567   -1.4675066  
O   -4.7313516    0.0145687   -1.1793477  
C   -2.9763648    0.0303141   -2.8186328  
O   -4.0166474    0.0394625   -3.7247629  
C   -1.6418562    0.0335056   -3.1673486  
H    1.4178715    0.0311137   -2.9571210  
H   -2.8160164   -0.0041451    0.5845958  
H   -5.1938818    0.0230239   -2.0274389  
H   -3.6464675    0.0481844   -4.6127350  
H    2.1062469    0.0053068   -0.3505407  
C   -0.2201812   -0.6516331   -5.1344351  
C   -1.2456329    0.0471566   -4.5828770  
C   -1.8642147    0.7990800   -5.6490865  
C   -1.1096938    0.4787544   -6.8758219  
N   -0.1264587   -0.4053975   -6.4958035  
C   -1.3840266    0.9897831   -8.1027271  
C   -2.4965360    1.9173553   -8.2230101  
O   -2.8231187    2.4317261   -9.2846443  
C   -3.3092523    2.2710212   -6.9368462  
O   -4.2478484    3.0510203   -7.0257244  
C   -2.9183109    1.6561379   -5.6707753  
H   -3.4862636    1.9060881   -4.7849544  
H    0.4750809   -1.3256101   -4.6608795  
H    0.5531280   -0.8110403   -7.1127824  
C    0.4376308   -2.7206913   -9.7695768  
C   -0.2290420   -1.8761016   -8.9487264  
C   -0.1564871   -0.5798281   -9.6051642  
C    0.6108061   -0.8317666  -10.8438615  
N    0.9617099   -2.0849536  -10.9457375  
C    0.9036285    0.2151775  -11.7836750  
C    0.4501918    1.4572652  -11.4991624  
O    0.6501884    2.5278976  -12.2864292  
C   -0.3272530    1.7432342  -10.2574044  
O   -0.7085333    2.8973397  -10.0627611  
C   -0.6146594    0.6524099   -9.3090243  
H   -0.7106518   -2.1045489   -8.0133443  
H    1.4665990    0.0026572  -12.6807873  
H    0.2118804    3.2631274  -11.8211588  
H    0.6092274   -3.7772108   -9.6380707  
C    2.5528530    2.1414826    2.8079335  
C    2.0663498    1.7338582    4.0032312  
C    0.9804344    0.8229586    3.6752840  
C    0.9495562    0.7966882    2.1971295  
N    1.8690446    1.5676019    1.6831036  
C    0.0000000    0.0000000    1.4700000  
C   -0.8785127   -0.7372425    2.1869543  
O   -1.8187535   -1.5261249    1.6395491  
C   -0.8723269   -0.7321790    3.6796354  
O   -1.7010379   -1.4274584    4.2670412  
C    0.1115397    0.0933559    4.4024240  
H    2.4028853    2.0163452    4.9860947  
H   -2.2861435   -1.9184361    2.3990168  
H    0.0832434    0.0693689    5.4835595  
H    3.3664920    2.8238276    2.6198634  
