60

C   -3.3003308   -0.0121629   -1.4739010  
C   -2.5232623   -0.0092455   -2.6090765  
C   -1.1623112   -0.0039658   -2.1820107  
C   -1.1711803   -0.0041874   -0.7636147  
N   -2.4852194   -0.0072698   -0.3662376  
C    0.0000000    0.0000000    0.0000000  
C    1.2020323    0.0041857   -0.6806468  
O    2.3759119    0.0080268    0.0157763  
C    1.2314571    0.0048526   -2.0955500  
O    2.5054229    0.0096365   -2.6250155  
C    0.0764511    0.0009967   -2.8495191  
H   -2.8919764   -0.0096338   -3.6205321  
H   -2.8035780   -0.0187023    0.5858645  
H    3.0835459    0.0108362   -0.6418796  
H    2.4359887    0.0097408   -3.5845903  
H    0.1304072    0.0018018   -3.9319082  
C   -6.4260389   -0.0257183   -4.5098949  
C   -7.5521987   -0.0295144   -3.7593424  
C   -7.0847699   -0.0267801   -2.3816621  
C   -5.6099337   -0.0213189   -2.4884927  
N   -5.2179277   -0.0205921   -3.7336114  
C   -4.7630180   -0.0172677   -1.3275436  
C   -5.3622243   -0.0182221   -0.1149905  
O   -4.6953486   -0.0148023    1.0517597  
C   -6.8482756   -0.0233185    0.0256712  
O   -7.3250620   -0.0240403    1.1605255  
C   -7.6953354   -0.0274557   -1.1803130  
H   -5.3902864   -0.0165612    1.7345560  
H   -8.7673997   -0.0309758   -1.0357616  
H   -6.3446258   -0.0261375   -5.5852301  
C   -9.8001592   -2.0529030   -7.0330274  
C   -8.7903532   -1.6666100   -6.2189945  
C   -9.4033822   -0.7502212   -5.2698227  
C  -10.8263798   -0.6975896   -5.6684353  
N  -11.0649688   -1.4592413   -6.7013685  
C  -11.7838436    0.1116840   -4.9659927  
C  -11.3399922    0.8351791   -3.9129566  
O  -12.1229209    1.6333818   -3.1673456  
C   -9.9100412    0.8029004   -3.4859207  
O   -9.5763716    1.4870234   -2.5185216  
C   -8.9472575   -0.0350493   -4.2226791  
H   -7.7571044   -1.9665560   -6.2577815  
H  -12.8174756    0.1312748   -5.2792532  
H  -11.5250824    2.0114289   -2.4974030  
H   -9.7559587   -2.7316825   -7.8698535  
C    0.0000000    0.0000000    1.4700000  
C    1.0662921    0.0000102    2.3034270  
C    0.4961870   -0.0000064    3.6418889  
C   -0.9663858    0.0000850    3.4240247  
N   -1.2632773    0.0000084    2.1528658  
C   -1.8985362    0.0000517    4.5177257  
C   -1.3925775   -0.0004564    5.7720543  
O   -2.1456383   -0.0005410    6.8851312  
C    0.0786232   -0.0009323    6.0245000  
O    0.4683759   -0.0012588    7.1921102  
C    1.0143166   -0.0008442    4.8859032  
H    2.1107198   -0.0000632    2.0421868  
H   -2.9622183    0.0003270    4.3293377  
H   -1.5042274   -0.0009692    7.6184419  
H    2.0724152   -0.0013148    5.1109744  
