60

C   -3.3003526   -0.0035222   -1.4738992  
C   -2.5232794   -0.0026393   -2.6090750  
C   -1.1623190   -0.0009229   -2.1820104  
C   -1.1711884   -0.0011211   -0.7636141  
N   -2.4852306   -0.0007631   -0.3662362  
C    0.0000000    0.0000000    0.0000000  
C    1.2020373    0.0010386   -0.6806474  
O    2.3759243    0.0018063    0.0157751  
C    1.2314657    0.0016283   -2.0955506  
O    2.5054375    0.0030767   -2.6250173  
C    0.0764515    0.0007963   -2.8495192  
H   -2.8919940   -0.0020623   -3.6205304  
H   -2.8036173   -0.0113619    0.5858658  
H    3.0835634    0.0027629   -0.6418813  
H    2.4360039    0.0033627   -3.5845915  
H    0.1304089    0.0014601   -3.9319085  
C   -4.7630475   -0.0047973   -1.3275412  
C   -5.7197888   -0.0067901   -2.2912411  
C   -6.9965511   -0.0072674   -1.6169173  
C   -6.7031120   -0.0053463   -0.1709988  
N   -5.3315492   -0.0043072   -0.0628096  
C   -7.6461186   -0.0047617    0.8049324  
C   -9.0433272   -0.0063409    0.4045073  
O   -9.9665684   -0.0060304    1.2082034  
C   -9.3772040   -0.0086392   -1.1213781  
O  -10.5499505   -0.0102888   -1.4705544  
C   -8.2742368   -0.0087980   -2.0791442  
H   -5.5504459   -0.0079919   -3.3532840  
H   -8.5138854   -0.0101898   -3.1337961  
H   -4.8220255   -0.0013802    0.8017275  
C   -6.3451861    0.6849640    2.8715661  
C   -7.3244743   -0.0026599    2.2393105  
C   -7.9990579   -0.7474533    3.2913182  
C   -7.2771821   -0.3813280    4.5288287  
N   -6.3067061    0.4581171    4.2890409  
C   -7.6449361   -0.9164687    5.8108065  
C   -8.6867414   -1.7778985    5.8545803  
O   -9.1380096   -2.3532871    6.9821106  
C   -9.4354778   -2.1666513    4.6231479  
O  -10.3732035   -2.9558453    4.7374445  
C   -9.0389319   -1.6041161    3.3199865  
H   -7.0996988   -0.6316869    6.6987959  
H   -9.8831509   -2.9112318    6.6946827  
H   -9.6067307   -1.9107426    2.4517614  
H   -5.6209318    1.3574052    2.4399965  
C    0.8175213    0.6860729    2.3021913  
C    0.0000000    0.0000000    1.4700000  
C   -0.8887526   -0.7456559    2.3478473  
C   -0.4549825   -0.3816753    3.7138435  
N    0.5448156    0.4573574    3.6934124  
C   -1.0945674   -0.9182058    4.8835240  
C   -2.1210866   -1.7789155    4.6970523  
O   -2.8083856   -2.3554314    5.6976972  
C   -2.5824069   -2.1655116    3.3310774  
O   -3.5227682   -2.9541547    3.2362962  
C   -1.9100805   -1.6015804    2.1470656  
H   -0.7567140   -0.6349833    5.8697035  
H   -3.4728268   -2.9124471    5.2533954  
H   -2.2742832   -1.9066565    1.1752040  
H    1.6189533    1.3585343    2.0405121  
