58

C    1.1319244    0.0015875   -0.8009273  
C    0.7969906    0.0035098   -2.1169405  
C   -0.6453346    0.0035588   -2.1842669  
C   -1.1266838    0.0015218   -0.7896022  
N    0.0000000    0.0000000    0.0000000  
C   -2.4346129    0.0013497   -0.4276287  
C   -3.4350118    0.0030750   -1.4820171  
O   -4.6384616    0.0030084   -1.2583901  
C   -2.9478971    0.0049942   -2.9661060  
O   -3.7809393    0.0061494   -3.8623760  
C   -1.5113839    0.0052801   -3.2312120  
H   -2.7664561   -0.0000297    0.6013455  
H   -1.1823550    0.0068183   -4.2614846  
H    2.1104314    0.0009799   -0.3488067  
C    2.9134402   -0.7204448   -3.3148111  
C    3.5548304   -0.5024372   -4.4917423  
C    2.7453554    0.4245473   -5.2469143  
C    1.5713936    0.7309419   -4.4074344  
N    1.7334681    0.0049582   -3.2500371  
C    0.5677453    1.5709677   -4.7662538  
C    0.6490885    2.2162137   -6.0660909  
O   -0.2046268    2.9893147   -6.4805608  
C    1.8833681    1.9061120   -6.9717375  
O    1.9626033    2.4432174   -8.0683228  
C    2.9013534    0.9834462   -6.4755052  
H   -0.2845692    1.7821493   -4.1354830  
H    3.7529104    0.7741960   -7.1085840  
H    3.2033929   -1.3501730   -2.4894270  
C    5.1718409   -4.5563174   -4.0073139  
C    6.3720457   -4.3943984   -4.6216148  
C    6.4331628   -3.0237593   -5.0715573  
C    5.1610729   -2.3959190   -4.6661014  
N    4.4409753   -3.3780876   -4.0260277  
C    4.8308401   -1.1020195   -4.9079167  
C    5.7923834   -0.2724589   -5.6148816  
O    5.5883084    0.9049044   -5.8803429  
C    7.1459318   -0.9166305   -6.0539210  
O    7.9631541   -0.2281255   -6.6500488  
C    7.3879451   -2.3217293   -5.7361492  
H    7.1281791   -5.1490555   -4.7455839  
H    8.3276775   -2.7601364   -6.0434377  
H    4.7596882   -5.4373106   -3.5426947  
H    3.5263226   -3.2570223   -3.6313115  
C    0.0000000    0.0000000    1.4700000  
C    1.0662921    0.0000102    2.3034270  
C    0.4961870   -0.0000064    3.6418889  
C   -0.9663858    0.0000850    3.4240247  
N   -1.2632773    0.0000084    2.1528658  
C   -1.8985362    0.0000517    4.5177257  
C   -1.3925775   -0.0004564    5.7720543  
O   -2.1456383   -0.0005410    6.8851312  
C    0.0786232   -0.0009323    6.0245000  
O    0.4683759   -0.0012588    7.1921102  
C    1.0143166   -0.0008442    4.8859032  
H    2.1107198   -0.0000632    2.0421868  
H   -2.9622183    0.0003270    4.3293377  
H   -1.5042274   -0.0009692    7.6184419  
H    2.0724152   -0.0013148    5.1109744  
