58

C   -3.2797914   -0.0108270   -1.4499644  
C   -2.5571011   -0.0085413   -2.5996551  
C   -1.1637379   -0.0037887   -2.2210360  
C   -1.1336916   -0.0035200   -0.7459469  
N   -2.4483407   -0.0075022   -0.3402718  
C    0.0000000    0.0000000    0.0000000  
C    1.2757305    0.0040022   -0.6964418  
O    2.3524472    0.0074096   -0.1142322  
C    1.2676417    0.0040455   -2.2584083  
O    2.3355630    0.0077030   -2.8557301  
C   -0.0181564   -0.0002327   -2.9516298  
H   -2.9547199   -0.0098339   -3.5989098  
H   -0.0150793   -0.0003790   -4.0331632  
H   -2.7563455   -0.0098892    0.6148067  
C   -5.6706182   -0.0174260   -2.2998274  
C   -6.9366478   -0.0197517   -1.8086668  
C   -6.8295844   -0.0192067   -0.3687457  
C   -5.3870598   -0.0163232   -0.0590617  
N   -4.7390592   -0.0157593   -1.2727275  
C   -4.8700337   -0.0146260    1.1956838  
C   -5.7961140   -0.0159381    2.3159105  
O   -5.4290218   -0.0146520    3.4836189  
C   -7.3281054   -0.0192424    2.0112847  
O   -8.1173976   -0.0206775    2.9463123  
C   -7.7644743   -0.0205649    0.6172142  
H   -3.8085574   -0.0123870    1.4010438  
H   -8.8269007   -0.0226484    0.4148048  
H   -5.3397730   -0.0170063   -3.3257077  
C   -8.0352661   -2.1310085   -5.4990558  
C   -9.3029383   -1.6691668   -5.6532773  
C   -9.5619624   -0.7740072   -4.5503578  
C   -8.3324567   -0.7520146   -3.7351138  
N   -7.4458742   -1.5955235   -4.3638853  
C   -8.1743864   -0.0225741   -2.6016965  
C   -9.2897078    0.7952774   -2.1548045  
O   -9.2459049    1.4877684   -1.1464202  
C  -10.6015528    0.7870325   -3.0026256  
O  -11.5473628    1.4713979   -2.6360914  
C  -10.6520669   -0.0397651   -4.2058320  
H   -9.9794414   -1.9263750   -6.4487652  
H  -11.5639387   -0.0397463   -4.7873936  
H   -7.4821082   -2.8176684   -6.1190594  
H   -6.5135077   -1.7903840   -4.0480209  
C    0.8175213    0.6860729    2.3021913  
C    0.0000000    0.0000000    1.4700000  
C   -0.8887526   -0.7456559    2.3478473  
C   -0.4549825   -0.3816753    3.7138435  
N    0.5448156    0.4573574    3.6934124  
C   -1.0945674   -0.9182058    4.8835240  
C   -2.1210866   -1.7789155    4.6970523  
O   -2.8083856   -2.3554314    5.6976972  
C   -2.5824069   -2.1655116    3.3310774  
O   -3.5227682   -2.9541547    3.2362962  
C   -1.9100805   -1.6015804    2.1470656  
H   -0.7567140   -0.6349833    5.8697035  
H   -3.4728268   -2.9124471    5.2533954  
H   -2.2742832   -1.9066565    1.1752040  
H    1.6189533    1.3585343    2.0405121  
