60

C    0.0000000    0.0000000    0.0000000  
C    1.0521667   -0.0011906   -0.8862341  
C    0.4917227   -0.0011963   -2.1979131  
C   -0.9187421    0.0003145   -2.0478684  
N   -1.1833168   -0.0009413   -0.7007915  
C   -1.7951690    0.0010346   -3.1372095  
C   -1.2375822    0.0005217   -4.4010428  
O   -2.0474198    0.0015349   -5.4997584  
C    0.1673600   -0.0013578   -4.5711963  
O    0.5673545   -0.0020703   -5.8915548  
C    1.0325785   -0.0023423   -3.4969888  
H    2.0953061   -0.0030656   -0.6200555  
H   -2.0989774    0.0102375   -0.2891831  
H   -1.4634863    0.0006484   -6.2693600  
H    1.5290728   -0.0033171   -5.9180038  
H    2.1042157   -0.0039623   -3.6584453  
C   -4.7114676    2.0140164   -0.4339619  
C   -3.5467558    1.6314383   -1.0072506  
C   -3.9343478    0.7149044   -2.0684939  
C   -5.4099584    0.6581318   -1.9914604  
N   -5.8712092    1.4176769   -1.0352551  
C   -6.1879767   -0.1525090   -2.8873597  
C   -5.5221535   -0.8733545   -3.8181634  
O   -6.1204506   -1.6724248   -4.7179237  
C   -4.0334736   -0.8368761   -3.9214237  
O   -3.4940295   -1.5187507   -4.7927835  
C   -3.2578642    0.0024037   -2.9908517  
H   -2.5479538    1.9339113   -0.7427124  
H   -7.2650744   -0.1751424   -2.8082468  
H   -5.3892901   -2.0479978   -5.2408982  
C   -3.8908744    3.5896875    1.3777366  
C   -4.3955447    4.3708456    2.3672689  
C   -5.8312854    4.2221686    2.3301312  
C   -6.1237919    3.2836077    1.2299790  
N   -4.9052096    2.9377537    0.6930135  
C   -7.3700105    2.8831231    0.8718496  
C   -8.4985458    3.4119298    1.6197175  
O   -9.6596313    3.1121323    1.3741504  
C   -8.2121289    4.4075376    2.7887063  
O   -9.1542980    4.8595765    3.4252902  
C   -6.8259300    4.7640867    3.0805601  
H   -3.8269446    4.9816617    3.0456581  
H   -7.5627687    2.1936486    0.0616776  
H   -6.6361172    5.4538832    3.8916554  
H   -2.8633023    3.4355869    1.0909641  
C    1.0672568    0.0000697    2.3021913  
C    0.0000000    0.0000000    1.4700000  
C   -1.1601224    0.0000736    2.3478473  
C   -0.5938729    0.0000769    3.7138435  
N    0.7113367    0.0001554    3.6934124  
C   -1.4286986    0.0001879    4.8835240  
C   -2.7683114    0.0006799    4.6970523  
O   -3.6653903    0.0008304    5.6976972  
C   -3.3702025    0.0010610    3.3310774  
O   -4.5974910    0.0013779    3.2362962  
C   -2.4926826    0.0008943    2.1470656  
H   -0.9878360   -0.0000190    5.8697035  
H   -4.5324246    0.0012261    5.2533954  
H   -2.9677772    0.0012974    1.1752040  
H    2.1134392    0.0000545    2.0405121  
