60

C    3.3003547    0.0005275   -1.4738980  
C    2.5232816    0.0003495   -2.6090742  
C    1.1623206   -0.0001320   -2.1820096  
C    1.1711889    0.0000583   -0.7636136  
N    2.4852300   -0.0014920   -0.3662353  
C    0.0000000    0.0000000    0.0000000  
C   -1.2020382    0.0000519   -0.6806479  
O   -2.3759247    0.0003494    0.0157745  
C   -1.2314650   -0.0005113   -2.0955508  
O   -2.5054383   -0.0008037   -2.6250181  
C   -0.0764510   -0.0007273   -2.8495192  
H    2.8919962   -0.0005621   -3.6205295  
H    2.8036265    0.0088181    0.5858667  
H   -3.0835641    0.0000347   -0.6418820  
H   -2.4360047   -0.0011529   -3.5845921  
C    6.7690617    0.0009402   -4.2725610  
C    5.4996716    0.0003248   -3.8032769  
C    5.6352806    0.0001663   -2.3547913  
C    7.0947610    0.0006466   -2.1170952  
N    7.7645146    0.0011821   -3.2375503  
C    7.6497409    0.0006996   -0.7915447  
C    6.7859642    0.0006805    0.2492369  
O    7.1644560    0.0007168    1.5387274  
C    5.3077381    0.0005720    0.0418549  
O    4.5810516    0.0004361    1.0354075  
C    4.7630506    0.0004754   -1.3275394  
H    4.5843351    0.0001066   -4.3700523  
H    8.7202883    0.0008484   -0.6471975  
H    6.3302585    0.0007161    2.0419852  
H    7.0973397    0.0012418   -5.2997940  
C    0.6255550   -0.6879834   -5.1891748  
C   -0.1496409   -0.0015614   -4.3176961  
C   -1.0811315    0.7434624   -5.1506208  
C   -0.7158460    0.3787721   -6.5363162  
N    0.2838792   -0.4600984   -6.5652203  
C   -1.4129707    0.9145424   -7.6730016  
C   -2.4290864    1.7752033   -7.4361333  
O   -3.1654571    2.3510478   -8.4016397  
C   -2.8218931    2.1625050   -6.0491002  
O   -3.7565099    2.9510602   -5.9080577  
C   -2.0913489    1.5993469   -4.8997161  
H   -1.1245867    0.6308112   -8.6746207  
H   -3.8070523    2.9082157   -7.9251188  
H   -2.4067664    1.9049196   -3.9110975  
H    1.4391420   -1.3601755   -4.9673468  
C    0.8175213    0.6860729    2.3021913  
C    0.0000000    0.0000000    1.4700000  
C   -0.8887526   -0.7456559    2.3478473  
C   -0.4549825   -0.3816753    3.7138435  
N    0.5448156    0.4573574    3.6934124  
C   -1.0945674   -0.9182058    4.8835240  
C   -2.1210866   -1.7789155    4.6970523  
O   -2.8083856   -2.3554314    5.6976972  
C   -2.5824069   -2.1655116    3.3310774  
O   -3.5227682   -2.9541547    3.2362962  
C   -1.9100805   -1.6015804    2.1470656  
H   -0.7567140   -0.6349833    5.8697035  
H   -3.4728268   -2.9124471    5.2533954  
H   -2.2742832   -1.9066565    1.1752040  
H    1.6189533    1.3585343    2.0405121  
