60

C    0.0000000    0.0000000    0.0000000  
C    1.0541691   -0.0001722   -0.8560385  
C    0.5103148   -0.0000454   -2.1935953  
C   -0.9576360    0.0002459   -2.0455733  
N   -1.2018453   -0.0001391   -0.6915972  
C   -1.8348299    0.0008316   -3.0810614  
C   -1.2972830    0.0009736   -4.4314610  
O   -2.0050651    0.0014265   -5.4301325  
C    0.2542642    0.0004184   -4.6117570  
O    0.7184692    0.0002257   -5.7439117  
C    1.0974567    0.0000874   -3.4189124  
H    2.0940754   -0.0005483   -0.5817975  
H   -2.1128192    0.0014911   -0.2706798  
C    3.4829134   -0.6854437   -2.8909313  
C    2.5562225   -0.0001552   -3.6002994  
C    3.3177146    0.7443541   -4.5914285  
C    4.7267869    0.3806372   -4.3291127  
N    4.8298583   -0.4572650   -3.3334794  
C    5.8086210    0.9162538   -5.1087503  
C    5.4969309    1.7758371   -6.1053949  
O    6.4051351    2.3514131   -6.9115696  
C    4.0844808    2.1621383   -6.3950779  
O    3.8744096    2.9497371   -7.3174551  
C    2.9924636    1.5991605   -5.5811501  
H    6.8289464    0.6332495   -4.8948439  
H    5.8822561    2.9077530   -7.5167430  
H    1.9830966    1.9039863   -5.8229961  
H    3.3221085   -1.3569585   -2.0625695  
C   -4.0214236    0.6873766   -1.9917560  
C   -3.2941060    0.0012872   -2.9038252  
C   -4.2729610   -0.7438343   -3.6804439  
C   -5.5765683   -0.3795584   -3.0850485  
N   -5.4354539    0.4591728   -2.0947929  
C   -6.8150141   -0.9155377   -3.5790778  
C   -6.7539645   -1.7760021   -4.6208112  
O   -7.8303740   -2.3520049   -5.1825968  
C   -5.4537075   -2.1628853   -5.2435586  
O   -5.4732669   -2.9512803   -6.1886893  
C   -4.1970784   -1.5995195   -4.7187480  
H   -7.7531674   -0.6321093   -3.1247141  
H   -7.4696157   -2.9089624   -5.8959021  
H   -3.2763225   -1.9047893   -5.1975479  
H   -3.6647949    1.3595205   -1.2275490  
C    0.0000000    0.0000000    1.4700000  
C    1.0521667    0.0011902    2.3562342  
C    0.4917218    0.0011957    3.6679131  
C   -0.9187428   -0.0003148    3.5178682  
N   -1.1833171    0.0009411    2.1707914  
C   -1.7951701   -0.0010350    4.6072090  
C   -1.2375837   -0.0005224    5.8710424  
O   -2.0474215   -0.0015360    6.9697579  
C    0.1673580    0.0013566    6.0411963  
O    0.5673524    0.0020687    7.3615553  
C    1.0325770    0.0023412    4.9669890  
H    2.0953057    0.0030649    2.0900562  
H   -2.0989778   -0.0102372    1.7591824  
H   -2.8710934   -0.0020419    4.4995513  
H   -1.4634884   -0.0006497    7.7393593  
H    1.5290710    0.0033153    7.3880045  
H    2.1042148    0.0039609    5.1284455  
