58

C    4.5939382   -2.1037472   -2.7696731  
C    4.8996527   -1.6376002   -4.0079463  
C    3.8355763   -0.7416511   -4.3950538  
C    2.8780294   -0.7238869   -3.2727448  
N    3.3957276   -1.5703485   -2.3196543  
C    1.7334695    0.0049281   -3.2500363  
C    1.4239152    0.8265211   -4.4083525  
O    0.4172712    1.5187838   -4.4841266  
C    2.4237222    0.8227865   -5.6084260  
O    2.1735667    1.5103256   -6.5892280  
C    3.6246411   -0.0037444   -5.5162755  
H    4.3119034   -0.0005914   -6.3513712  
H    5.1430572   -2.7922313   -2.1481042  
H    2.9698478   -1.7683916   -1.4328327  
C    7.0623966   -5.4382129   -4.6197571  
C    6.1850190   -4.4818844   -4.2201083  
C    6.5967199   -3.2460522   -4.8430500  
C    7.7944426   -3.5630665   -5.6441461  
N    8.0245240   -4.9077269   -5.4657092  
C    8.4840665   -2.6602164   -6.3864298  
C    8.0155164   -1.2843942   -6.3968739  
O    8.5682124   -0.3973237   -7.0340027  
C    6.7491823   -0.9261016   -5.5555477  
O    6.3455252    0.2290264   -5.5563545  
C    6.0906968   -1.9859492   -4.7959609  
H    5.3453629   -4.6257272   -3.5636783  
H    9.3602038   -2.9135304   -6.9670537  
H    7.0871893   -6.4858445   -4.3672849  
H    8.7745277   -5.4245691   -5.8869185  
C    1.1319246    0.0015678   -0.8009268  
C    0.7969914    0.0034958   -2.1169401  
C   -0.6453340    0.0035696   -2.1842669  
C   -1.1266832    0.0015410   -0.7896025  
N    0.0000000    0.0000000    0.0000000  
C   -2.4346129    0.0013913   -0.4276292  
C   -3.4350111    0.0031335   -1.4820181  
O   -4.6384614    0.0030875   -1.2583914  
C   -2.9478961    0.0050442   -2.9661074  
O   -3.7809382    0.0062135   -3.8623773  
C   -1.5113825    0.0053055   -3.2312122  
H   -2.7664565    0.0000174    0.6013448  
H   -1.1823533    0.0068381   -4.2614848  
H    2.1104316    0.0009435   -0.3488059  
C    2.3971438    2.0127888    3.1728260  
C    1.9431056    1.6308205    1.9564670  
C    0.8496017    0.7127664    2.2356185  
C    0.7794028    0.6545384    3.7115134  
N    1.6840587    1.4146091    4.2663826  
C   -0.1885723   -0.1578550    4.3957118  
C   -1.0476298   -0.8789867    3.6398520  
O   -2.0015663   -1.6796266    4.1448486  
C   -1.0022026   -0.8410666    2.1483229  
O   -1.8147390   -1.5232959    1.5241687  
C    0.0000000    0.0000000    1.4700000  
H    2.3054237    1.9346118    0.9892483  
H   -0.2170646   -0.1815267    5.4753125  
H   -2.4487139   -2.0549881    3.3649027  
H    3.2048689    2.6911772    3.3971983  
