58

C   -4.4297979    2.1087671   -0.2339399  
C   -5.6380117    1.6447708   -0.6450366  
C   -5.3911869    0.7496347   -1.7507692  
C   -3.9296546    0.7300042   -1.9515854  
N   -3.4052350    1.5747190   -1.0006225  
C   -3.2941076    0.0012878   -2.9038237  
C   -4.1035805   -0.8182213   -3.7902174  
O   -3.6253063   -1.5102279   -4.6794205  
C   -5.6534092   -0.8124877   -3.5957848  
O   -6.3452686   -1.4982635   -4.3362586  
C   -6.2225101    0.0137348   -2.5340257  
H   -6.5931611    1.9005375   -0.2220862  
H   -4.2016950    2.7960867    0.5644660  
H   -2.4284976    1.7712469   -0.8805869  
C   -9.1197038    3.2154130   -1.6110100  
C   -7.9899278    2.5090855   -1.8732743  
C   -8.3887890    1.1357808   -2.0727201  
C   -9.8540582    1.0996775   -1.9039710  
N  -10.2352509    2.3919519   -1.6253881  
C  -10.6134586   -0.0195595   -2.0149777  
C   -9.9428726   -1.2722694   -2.3208629  
O  -10.5387336   -2.3347149   -2.4411075  
C   -8.3916650   -1.2574427   -2.5034661  
O   -7.8160513   -2.3060845   -2.7609125  
C   -7.6821512    0.0113410   -2.3598352  
H   -6.9911086    2.9048936   -1.9213327  
H  -11.6870753   -0.0243204   -1.8875549  
H   -9.2311810    4.2681907   -1.4082267  
H  -11.1787603    2.6911889   -1.4601788  
C    0.0000000    0.0000000    0.0000000  
C    1.0541688   -0.0001723   -0.8560392  
C    0.5103136   -0.0000455   -2.1935956  
C   -0.9576373    0.0002461   -2.0455730  
N   -1.2018460   -0.0001389   -0.6915968  
C   -1.8348314    0.0008319   -3.0810607  
C   -1.2972851    0.0009739   -4.4314603  
O   -2.0050676    0.0014268   -5.4301316  
C    0.2542619    0.0004184   -4.6117572  
O    0.7184666    0.0002257   -5.7439122  
C    1.0974551    0.0000873   -3.4189129  
H    2.0940752   -0.0005484   -0.5817983  
H    2.1707276   -0.0000912   -3.5523673  
H   -2.1128194    0.0014915   -0.2706789  
C    3.1301144    0.0010313    3.1728260  
C    2.5367765    0.0002768    1.9564670  
C    1.1089900   -0.0001027    2.2356185  
C    1.0177864    0.0004150    3.7115134  
N    2.1993570    0.0011613    4.2663826  
C   -0.2459220    0.0002880    4.3957118  
C   -1.3675327    0.0000606    3.6398520  
O   -2.6129319   -0.0000866    4.1448486  
C   -1.3083589   -0.0000910    2.1483229  
O   -2.3693264   -0.0004206    1.5241687  
C    0.0000000    0.0000000    1.4700000  
H    3.0096015    0.0001008    0.9892483  
H   -0.2829642    0.0004689    5.4753125  
H   -3.1967446   -0.0002093    3.3649027  
H    4.1849273    0.0015113    3.3971983  
