58

C    3.2573668   -0.0002920   -1.5109379  
C    2.5379467   -0.0001710   -0.3591960  
C    1.1435040    0.0000332   -0.7338495  
C    1.1092603   -0.0000082   -2.2088472  
N    2.4227559    0.0001909   -2.6182607  
C   -0.0265537   -0.0002523   -2.9515654  
C   -1.3003041   -0.0002640   -2.2514973  
O   -2.3786787   -0.0004131   -2.8306424  
C   -1.2877728    0.0000312   -0.6895600  
O   -2.3539956    0.0003307   -0.0892030  
C    0.0000000    0.0000000    0.0000000  
H    2.9384089   -0.0000367    0.6389240  
H   -0.0296296   -0.0004085   -4.0327227  
H    4.3270393   -0.0004766   -1.6439440  
C    5.7077615   -2.0955290   -4.6950678  
C    4.8321760   -1.6318731   -3.7663869  
C    3.9281494   -0.7371777   -4.4498269  
C    4.3518499   -0.7174793   -5.8629371  
N    5.4355520   -1.5611011   -5.9452790  
C    3.7483560    0.0102942   -6.8365108  
C    2.6053636    0.8289907   -6.4679465  
O    1.9941032    1.5202154   -7.2722291  
C    2.1395164    0.8235571   -4.9770537  
O    1.1785715    1.5091256   -4.6548103  
C    2.8699637   -0.0020525   -4.0185822  
H    4.8209984   -1.8873090   -2.7217620  
H    6.5291166   -2.7825107   -4.5712830  
H    5.9483424   -1.7597065   -6.7847131  
C    4.6173214   -1.0689076   -8.9436955  
C    4.1923785    0.0105723   -8.2378476  
C    4.2618354    1.1476267   -9.1250444  
C    4.7656617    0.6384423  -10.4148817  
N    4.9617650   -0.7118673  -10.2385390  
C    4.9717515    1.4042060  -11.5161709  
C    4.6779334    2.8247298  -11.4249660  
O    4.8305076    3.5979569  -12.3615252  
C    4.1436405    3.3856570  -10.0686112  
O    3.8930682    4.5800519   -9.9797619  
C    3.9619430    2.4615007   -8.9520216  
H    5.3418657    1.0108310  -12.4527504  
H    3.5914211    2.8577989   -8.0164010  
H    4.7080396   -2.0951875   -8.6268203  
H    5.3007608   -1.3414053  -10.9426779  
C    2.3971438    2.0127888    3.1728260  
C    1.9431056    1.6308205    1.9564670  
C    0.8496017    0.7127664    2.2356185  
C    0.7794028    0.6545384    3.7115134  
N    1.6840587    1.4146091    4.2663826  
C   -0.1885723   -0.1578550    4.3957118  
C   -1.0476298   -0.8789867    3.6398520  
O   -2.0015663   -1.6796266    4.1448486  
C   -1.0022026   -0.8410666    2.1483229  
O   -1.8147390   -1.5232959    1.5241687  
C    0.0000000    0.0000000    1.4700000  
H    2.3054237    1.9346118    0.9892483  
H   -0.2170646   -0.1815267    5.4753125  
H   -2.4487139   -2.0549881    3.3649027  
H    3.2048689    2.6911772    3.3971983  
