64

C    6.7068647   -0.0034179    1.2828889  
C    7.7136019   -0.0021476    0.3453682  
C    7.0885448   -0.0007422   -0.9367789  
C    5.6872994   -0.0009463   -0.7166942  
N    5.4901244   -0.0045362    0.6418808  
C    4.7577216    0.0005129   -1.7610467  
C    5.2516913    0.0025159   -3.0510726  
O    4.3881533    0.0043529   -4.1081025  
C    6.6464200    0.0023764   -3.2909667  
O    6.9801791    0.0041002   -4.6296022  
C    7.5640502    0.0006642   -2.2611721  
H    8.7687013   -0.0033297    0.5592775  
H    4.5960831    0.0050495    1.0985849  
H    4.9330450    0.0052559   -4.9058230  
H    7.9393887    0.0039070   -4.7039034  
H    8.6263208    0.0004196   -2.4757849  
C   10.1568594   -0.0047953    4.1266875  
C    9.3797860   -0.0031372    2.9915130  
C    8.0188259   -0.0055558    3.4185742  
C    8.0276949   -0.0083847    4.8369679  
N    9.3417379   -0.0097922    5.2343425  
C    6.8565075   -0.0109549    5.6005783  
C    5.6544692   -0.0103570    4.9199312  
O    4.4805830   -0.0124300    5.6163510  
C    5.6250410   -0.0079239    3.5050299  
O    4.3510680   -0.0080472    2.9755623  
C    6.7800545   -0.0056609    2.7510640  
H    9.7485006   -0.0016132    1.9800587  
H    9.6601267   -0.0012733    6.1864650  
H    6.8565079   -0.0132616    6.6818721  
H    3.7729440   -0.0118751    4.9586955  
H    4.4205020   -0.0062968    2.0159901  
H   11.2280604   -0.0042546    4.2338731  
C    3.3041270    0.0001177   -1.5420435  
C    2.5845370   -0.0004780   -0.3695856  
C    1.2040004   -0.0000007   -0.7283590  
C    1.1422370    0.0006038   -2.1454373  
N    2.4348634    0.0026110   -2.6077469  
C   -0.0655187    0.0008799   -2.8497918  
C   -1.2321769    0.0002326   -2.1101398  
O   -2.4392822    0.0001149   -2.7472517  
C   -1.1911211   -0.0000007   -0.6955263  
O   -2.4371526   -0.0002319   -0.1032858  
C    0.0000000    0.0000000    0.0000000  
H    3.0031534   -0.0000661    0.6222578  
H    2.7054623   -0.0071098   -3.5745266  
H   -0.1193555    0.0014846   -3.9297472  
H   -3.1132992   -0.0000646   -2.0551783  
H   -2.3200279   -0.0004070    0.8516411  
C    0.0000000    0.0000000    1.4700000  
C    1.0662921    0.0000102    2.3034270  
C    0.4961870   -0.0000064    3.6418889  
C   -0.9663858    0.0000850    3.4240247  
N   -1.2632773    0.0000084    2.1528658  
C   -1.8985362    0.0000517    4.5177257  
C   -1.3925775   -0.0004564    5.7720543  
O   -2.1456383   -0.0005410    6.8851312  
C    0.0786232   -0.0009323    6.0245000  
O    0.4683759   -0.0012588    7.1921102  
C    1.0143166   -0.0008442    4.8859032  
H    2.1107198   -0.0000632    2.0421868  
H   -2.9622183    0.0003270    4.3293377  
H   -1.5042274   -0.0009692    7.6184419  
H    2.0724152   -0.0013148    5.1109744  
