60

C    3.3041270    0.0001178   -1.5420432  
C    2.5845372   -0.0004779   -0.3695853  
C    1.2040007   -0.0000006   -0.7283591  
C    1.1422373    0.0006039   -2.1454374  
N    2.4348636    0.0026110   -2.6077466  
C   -0.0655186    0.0008800   -2.8497915  
C   -1.2321770    0.0002326   -2.1101397  
O   -2.4392818    0.0001149   -2.7472515  
C   -1.1911209   -0.0000006   -0.6955262  
O   -2.4371522   -0.0002319   -0.1032858  
C    0.0000000    0.0000000    0.0000000  
H    3.0031535   -0.0000661    0.6222580  
H    2.7054625   -0.0071097   -3.5745263  
H   -3.1132993   -0.0000646   -2.0551781  
H   -2.3200286   -0.0004070    0.8516413  
C    6.7370859   -0.0008254    1.2348660  
C    5.4910171   -0.0006932    0.6950625  
C    5.6537425    0.0002335   -0.7396342  
C    7.1071773    0.0006038   -0.9932431  
N    7.7077095    0.0003272    0.2445987  
C    7.6723918    0.0010659   -2.2270332  
C    6.7903710    0.0014341   -3.3822708  
O    7.2023938    0.0019214   -4.5348932  
C    5.2477322    0.0013038   -3.1371792  
O    4.4952266    0.0019173   -4.1020607  
C    4.7577214    0.0005130   -1.7610465  
H    4.5636978   -0.0010059    1.2397576  
H    8.7410255    0.0012018   -2.3911475  
H    7.0279700   -0.0014511    2.2727843  
H    8.6984747   -0.0010834    0.4040643  
C    2.1709832   -2.0097061   -6.1391756  
C    1.7780118   -1.6284991   -4.9015024  
C    0.6718272   -0.7104844   -5.1253423  
C    0.5282232   -0.6514436   -6.5958779  
N    1.4042452   -1.4110423   -7.1955324  
C   -0.4727393    0.1611593   -7.2305726  
C   -1.2932064    0.8817147   -6.4324695  
O   -2.2712237    1.6824665   -6.8888901  
C   -1.1735679    0.8429687   -4.9450735  
O   -1.9541231    1.5247038   -4.2808511  
C   -0.1387086    0.0017020   -4.3179679  
H    2.1880834   -1.9327664   -3.9536951  
H   -0.5549521    0.1854296   -8.3074022  
H   -2.6790404    2.0573119   -6.0874357  
H    2.9666372   -2.6878246   -6.4038700  
C    2.4951002    2.0940188    2.9809380  
C    1.9440701    1.6314916    1.8291961  
C    0.8759964    0.7350050    2.2038498  
C    0.8497377    0.7130254    3.6788474  
N    1.8560616    1.5571714    4.0882609  
C   -0.0205033   -0.0168748    4.4215661  
C   -0.9962600   -0.8356168    3.7214979  
O   -1.8224391   -1.5286685    4.3006425  
C   -0.9864710   -0.8277881    2.1595606  
O   -1.8030528   -1.5133726    1.5592035  
C    0.0000000    0.0000000    1.4700000  
H    2.2509283    1.8888011    0.8310761  
H   -0.0229599   -0.0187323    5.5027230  
H    3.3143982    2.7817323    3.1139444  
H    2.0889452    1.7545833    5.0442112  
