58

C    3.2798082    0.0005862   -1.4499650  
C    2.5571139    0.0005570   -2.5996554  
C    1.1637431    0.0001552   -2.2210361  
C    1.1336960   -0.0000198   -0.7459469  
N    2.4483511   -0.0001427   -0.3402720  
C    0.0000000    0.0000000    0.0000000  
C   -1.2757371   -0.0000185   -0.6964412  
O   -2.3524599   -0.0000640   -0.1142311  
C   -1.2676497   -0.0000868   -2.2584076  
O   -2.3355765   -0.0004097   -2.8557291  
C    0.0181554    0.0001764   -2.9516295  
H    0.0150782    0.0003325   -4.0331629  
H    4.3498545    0.0008616   -1.3200025  
H    2.7563624    0.0012824    0.6148065  
C    4.2042264   -0.7245765   -4.3883883  
C    4.4532742   -0.5080826   -5.7056510  
C    3.4504640    0.4176292   -6.1771001  
C    2.5906250    0.7249267   -5.0182058  
N    3.1006049    0.0006270   -3.9654950  
C    1.5247255    1.5641946   -5.0527251  
C    1.2027489    2.2076140   -6.3156099  
O    0.2625092    2.9799153   -6.4490272  
C    2.0996878    1.8965305   -7.5559858  
O    1.8381619    2.4320976   -8.6246447  
C    3.2214644    0.9748211   -7.3949816  
H    0.9070130    1.7760617   -4.1910679  
H    3.8377462    0.7648819   -8.2586052  
H    4.7339420   -1.3530606   -3.6910372  
C    6.1913620   -4.5664105   -5.7794922  
C    5.4426708   -3.4687462   -5.4990152  
C    5.9194233   -2.4050200   -6.3510880  
C    7.0150762   -2.9770539   -7.1567647  
N    7.1299998   -4.2900024   -6.7619883  
C    7.7267104   -2.2892787   -8.0853363  
C    7.3912802   -0.8923483   -8.3058044  
O    7.9737921   -0.1879105   -9.1198976  
C    6.2346090   -0.2658266   -7.4635528  
O    5.9434212    0.9094457   -7.6402017  
C    5.5403572   -1.1079407   -6.4926200  
H    4.6473267   -3.4107862   -4.7774316  
H    8.5265773   -2.7278218   -8.6656848  
H    6.1365206   -5.5539514   -5.3509531  
H    7.7922393   -4.9468534   -7.1321690  
C    2.3971438    2.0127888    3.1728260  
C    1.9431056    1.6308205    1.9564670  
C    0.8496017    0.7127664    2.2356185  
C    0.7794028    0.6545384    3.7115134  
N    1.6840587    1.4146091    4.2663826  
C   -0.1885723   -0.1578550    4.3957118  
C   -1.0476298   -0.8789867    3.6398520  
O   -2.0015663   -1.6796266    4.1448486  
C   -1.0022026   -0.8410666    2.1483229  
O   -1.8147390   -1.5232959    1.5241687  
C    0.0000000    0.0000000    1.4700000  
H    2.3054237    1.9346118    0.9892483  
H   -0.2170646   -0.1815267    5.4753125  
H   -2.4487139   -2.0549881    3.3649027  
H    3.2048689    2.6911772    3.3971983  
