62

C   -3.3029211    0.0892877   -1.5420422  
C   -2.5835780    0.0704120   -0.3695847  
C   -1.2035597    0.0325794   -0.7283587  
C   -1.1418363    0.0303039   -2.1454371  
N   -2.4340435    0.0632742   -2.6077458  
C    0.0654693   -0.0026525   -2.8497918  
C    1.2317189   -0.0335737   -2.1101405  
O    2.4383844   -0.0661186   -2.7472528  
C    1.1906851   -0.0322295   -0.6955268  
O    2.4362660   -0.0657144   -0.1032867  
C    0.0000000    0.0000000    0.0000000  
H   -3.0020517    0.0813274    0.6222589  
H   -2.7042803    0.0803135   -3.5745254  
H    0.1192705   -0.0047136   -3.9297473  
H    3.1121606   -0.0841772   -2.0551794  
H    2.3191907   -0.0623702    0.8516404  
C   -6.7722304    0.1869869    1.2764690  
C   -5.5061188    0.1525989    0.7395841  
C   -5.6552277    0.1540899   -0.6789942  
C   -7.0468095    0.1906842   -0.9511857  
N   -7.6963065    0.2079785    0.2581412  
C   -7.5632400    0.2024733   -2.2503967  
C   -6.6583858    0.1771609   -3.2938406  
O   -7.1084336    0.1875661   -4.5823909  
C   -5.2661677    0.1401477   -3.0424920  
O   -4.4952205    0.1178909   -4.1863846  
C   -4.7559941    0.1282250   -1.7610449  
H   -4.5880340    0.1281998    1.3012948  
H   -8.6227602    0.2301809   -2.4645249  
H   -6.3239714    0.1657351   -5.1457796  
H   -3.5687231    0.0934110   -3.9283014  
H   -7.0892746    0.1967561    2.3052287  
C   -9.1541409    0.2618630    0.4390135  
C   -9.8494481    0.2906478    1.5997457  
C  -11.2469934    0.3406434    1.1986626  
C  -11.2109186    0.3351843   -0.2795976  
N   -9.9868198    0.2890064   -0.7306380  
C  -12.4102844    0.3767942   -1.0700894  
C  -13.5919857    0.4214227   -0.4136405  
O  -14.7885293    0.4633934   -1.0240199  
C  -13.6613068    0.4277508    1.0774381  
O  -14.7713013    0.4695756    1.6078941  
C  -12.4169803    0.3845442    1.8659219  
H   -9.4618400    0.2792591    2.6040896  
H  -12.3543468    0.3719351   -2.1488651  
H  -15.4368521    0.4887777   -0.2972560  
H  -12.5099916    0.3905621    2.9436707  
C    2.3971438    2.0127888    3.1728260  
C    1.9431056    1.6308205    1.9564670  
C    0.8496017    0.7127664    2.2356185  
C    0.7794028    0.6545384    3.7115134  
N    1.6840587    1.4146091    4.2663826  
C   -0.1885723   -0.1578550    4.3957118  
C   -1.0476298   -0.8789867    3.6398520  
O   -2.0015663   -1.6796266    4.1448486  
C   -1.0022026   -0.8410666    2.1483229  
O   -1.8147390   -1.5232959    1.5241687  
C    0.0000000    0.0000000    1.4700000  
H    2.3054237    1.9346118    0.9892483  
H   -0.2170646   -0.1815267    5.4753125  
H   -2.4487139   -2.0549881    3.3649027  
H    3.2048689    2.6911772    3.3971983  
