58

C    1.1319246    0.0015676   -0.8009264  
C    0.7969921    0.0034954   -2.1169399  
C   -0.6453335    0.0035693   -2.1842671  
C   -1.1266829    0.0015408   -0.7896032  
N    0.0000000    0.0000000    0.0000000  
C   -2.4346128    0.0013914   -0.4276300  
C   -3.4350110    0.0031336   -1.4820189  
O   -4.6384608    0.0030878   -1.2583926  
C   -2.9478954    0.0050440   -2.9661081  
O   -3.7809368    0.0062135   -3.8623782  
C   -1.5113817    0.0053053   -3.2312129  
H    1.4821240    0.0045431   -2.9459191  
H   -2.7664563    0.0000176    0.6013434  
H    2.1104319    0.0009432   -0.3488054  
C    1.7765376   -2.1310607   -5.1320084  
C    1.6763837   -1.7219598   -6.4181596  
C    0.5413924   -0.8120091   -6.4350136  
C    0.0622656   -0.7878465   -5.0362863  
N    0.7824508   -1.5590785   -4.2678307  
C   -1.0641729    0.0073880   -4.6315341  
C   -1.6835601    0.7452547   -5.5808744  
O   -2.7464415    1.5329418   -5.3445031  
C   -1.2235539    0.7423083   -7.0009259  
O   -1.8348759    1.4380505   -7.8117584  
C   -0.0657273   -0.0817637   -7.3911398  
H   -2.9609648    1.9261206   -6.2096869  
H    0.2362041   -0.0562576   -8.4296086  
H    2.4949782   -2.8133092   -4.7061525  
C    2.5227103   -2.1055627   -7.5572292  
C    3.5812420   -2.9488092   -7.5623236  
C    4.0424360   -2.9635085   -8.9420279  
C    3.1231691   -2.0484172   -9.6520562  
N    2.2302370   -1.5424135   -8.8454442  
C    3.2469638   -1.7867664  -11.0596423  
C    4.2440303   -2.4106206  -11.7274740  
O    4.4762092   -2.2590855  -13.0424537  
C    5.1881251   -3.3395050  -11.0389829  
O    6.0720856   -3.8726736  -11.7094796  
C    5.0403710   -3.5915609   -9.5944889  
H    3.9977231   -3.4935023   -6.7323062  
H    2.5610442   -1.1135964  -11.5528622  
H    5.2467738   -2.8265291  -13.2251856  
H    5.7444993   -4.2708772   -9.1330105  
C    2.5528530    2.1414826    2.8079335  
C    2.0663498    1.7338582    4.0032312  
C    0.9804344    0.8229586    3.6752840  
C    0.9495562    0.7966882    2.1971295  
N    1.8690446    1.5676019    1.6831036  
C    0.0000000    0.0000000    1.4700000  
C   -0.8785127   -0.7372425    2.1869543  
O   -1.8187535   -1.5261249    1.6395491  
C   -0.8723269   -0.7321790    3.6796354  
O   -1.7010379   -1.4274584    4.2670412  
C    0.1115397    0.0933559    4.4024240  
H    2.4028853    2.0163452    4.9860947  
H   -2.2861435   -1.9184361    2.3990168  
H    0.0832434    0.0693689    5.4835595  
H    3.3664920    2.8238276    2.6198634  
