60

C   -1.1240191    0.0287078   -0.7919006  
C   -0.7477717    0.0022815   -2.1148546  
C    0.6775293   -0.0467938   -2.1414702  
C    1.1191717   -0.0484043   -0.7935548  
N    0.0000000    0.0000000    0.0000000  
C    2.4713975   -0.0914782   -0.4408242  
C    3.3945951   -0.1340024   -1.4675060  
O    4.7280458   -0.1774467   -1.1793469  
C    2.9735574   -0.1327643   -2.8186324  
O    4.0129089   -0.1777213   -3.7247622  
C    1.6397302   -0.0900106   -3.1673482  
H    2.8144897   -0.0928045    0.5845967  
H    5.1900110   -0.2018204   -2.0274378  
H    3.6426479   -0.1736939   -4.6127343  
H    1.3474476   -0.0900125   -4.2109234  
H   -2.1051805    0.0672077   -0.3505413  
C   -1.6630760    0.0233583   -3.2649302  
C   -3.0155714    0.0701687   -3.2529364  
C   -3.4033023    0.0707097   -4.6551364  
C   -2.1243006    0.0198749   -5.3955107  
N   -1.1007183   -0.0081311   -4.5858911  
C   -2.0766066    0.0050568   -6.8316834  
C   -3.2531650    0.0390702   -7.4979333  
O   -3.3575382    0.0303320   -8.8377360  
C   -4.5604568    0.0902987   -6.7792369  
O   -5.5921711    0.1194522   -7.4500110  
C   -4.5829642    0.1046435   -5.3057340  
H   -3.6693772    0.1004856   -2.3981289  
H   -4.3155664    0.0613821   -9.0120070  
H   -5.5502749    0.1419830   -4.8228825  
C    1.6598025   -2.2107153   -6.0404635  
C    0.4012443   -1.7043120   -5.9799535  
C    0.2517043   -0.8125382   -7.1056583  
C    1.5355027   -0.8411396   -7.8321802  
N    2.3460767   -1.7070943   -7.1350562  
C    1.7978864   -0.1301400   -8.9579419  
C    0.7457218    0.7201832   -9.4893878  
O    0.8841792    1.3996281  -10.4980924  
C   -0.6218096    0.7660548   -8.7360226  
O   -1.5150492    1.4785672   -9.1738687  
C   -0.7854287   -0.0455535   -7.5325389  
H   -0.3379407   -1.9296095   -5.2319826  
H    2.7464157   -0.1654864   -9.4755839  
H    2.1437663   -2.9092876   -5.3773901  
H    3.2900299   -1.9392022   -7.3843066  
C    0.0000000    0.0000000    1.4700000  
C    1.0662921    0.0000102    2.3034270  
C    0.4961870   -0.0000064    3.6418889  
C   -0.9663858    0.0000850    3.4240247  
N   -1.2632773    0.0000084    2.1528658  
C   -1.8985362    0.0000517    4.5177257  
C   -1.3925775   -0.0004564    5.7720543  
O   -2.1456383   -0.0005410    6.8851312  
C    0.0786232   -0.0009323    6.0245000  
O    0.4683759   -0.0012588    7.1921102  
C    1.0143166   -0.0008442    4.8859032  
H    2.1107198   -0.0000632    2.0421868  
H   -2.9622183    0.0003270    4.3293377  
H   -1.5042274   -0.0009692    7.6184419  
H    2.0724152   -0.0013148    5.1109744  
