60

C    3.1301152   -0.0010311   -1.7028248  
C    2.5367767   -0.0002766   -0.4864663  
C    1.1089906    0.0001028   -0.7656180  
C    1.0177872   -0.0004148   -2.2415129  
N    2.1993581   -0.0011610   -2.7963816  
C   -0.2459210   -0.0002877   -2.9257117  
C   -1.3675316   -0.0000605   -2.1698524  
O   -2.6129307    0.0000866   -2.6748494  
C   -1.3083586    0.0000911   -0.6783233  
O   -2.3693263    0.0004206   -0.0541693  
C    0.0000000    0.0000000    0.0000000  
H    3.0096017   -0.0001007    0.4807526  
H   -3.1967436    0.0002093   -1.8949037  
C    4.5679462   -0.0016852   -2.0086697  
C    5.6049853   -0.0016930   -1.1391127  
C    6.7955423   -0.0024716   -1.9752190  
C    6.2781454   -0.0029781   -3.3604573  
N    4.9730343   -0.0024398   -3.3863775  
C    7.1539718   -0.0037578   -4.4997619  
C    8.4861205   -0.0036309   -4.2658482  
O    9.4181590   -0.0043052   -5.2340135  
C    9.0391359   -0.0027523   -2.8793659  
O   10.2622859   -0.0028089   -2.7410728  
C    8.1201341   -0.0020060   -1.7272550  
H    5.5667631   -0.0011377   -0.0631872  
H    6.7483991   -0.0043218   -5.5009712  
H   10.2688734   -0.0039788   -4.7592102  
H    8.5604259   -0.0012651   -0.7391394  
C    2.2088393   -2.1426203   -5.8191629  
C    1.6816931   -1.7351239   -6.9971451  
C    0.6077920   -0.8240078   -6.6323119  
C    0.6276223   -0.7974852   -5.1539723  
N    1.5640858   -1.5684496   -4.6716451  
C   -0.2963280   -0.0005339   -4.3948472  
C   -1.1988032    0.7367192   -5.0813824  
O   -2.1196076    1.5258332   -4.5021939  
C   -1.2438065    0.7314048   -6.5733968  
O   -2.0920731    1.4267091   -7.1321601  
C   -0.2854213   -0.0943976   -7.3293548  
H    1.9842874   -2.0178255   -7.9909217  
H   -2.6127091    1.9180867   -5.2452560  
H   -0.3507702   -0.0705874   -8.4088886  
H    3.0283512   -2.8250548   -5.6589855  
C    0.8576279    0.7185626    2.2703808  
C    0.0000000    0.0000000    1.4700000  
C   -0.8668858   -0.7285659    2.3373528  
C   -0.4876752   -0.4117774    3.6669281  
N    0.5635254    0.4678311    3.5902241  
C   -1.1297612   -0.9515493    4.7854808  
C   -2.1738724   -1.8268314    4.5576857  
O   -2.8357962   -2.3827064    5.6140350  
C   -2.5667212   -2.1555554    3.2384331  
O   -3.6226318   -3.0413663    3.1773122  
C   -1.9335634   -1.6236449    2.1344818  
H    1.0363952    0.8769718    4.3757045  
H   -0.8454472   -0.7142436    5.8013813  
H   -3.5178062   -2.9546422    5.2385129  
H   -3.8247440   -3.2102924    2.2519915  
H   -2.2566033   -1.8942483    1.1360343  
H    1.6567807    1.3889844    2.0042067  
