58

C    3.2798083    0.0005856   -1.4499654  
C    2.5571141    0.0005565   -2.5996560  
C    1.1637428    0.0001547   -2.2210363  
C    1.1336961   -0.0000201   -0.7459473  
N    2.4483511   -0.0001429   -0.3402725  
C    0.0000000    0.0000000    0.0000000  
C   -1.2757382   -0.0000187   -0.6964417  
O   -2.3524603   -0.0000641   -0.1142312  
C   -1.2676502   -0.0000875   -2.2584083  
O   -2.3355768   -0.0004103   -2.8557295  
C    0.0181556    0.0001758   -2.9516298  
H    2.9547345    0.0006074   -3.5989111  
H    0.0150785    0.0003317   -4.0331631  
H    2.7563627    0.0012824    0.6148057  
C    6.4690079    0.0019757   -4.4192242  
C    7.5790604    0.0025232   -3.6450397  
C    7.0826141    0.0021762   -2.2775453  
C    5.6103551    0.0015083   -2.4155207  
N    5.2447503    0.0013072   -3.6686457  
C    4.7390843    0.0009614   -1.2727288  
C    5.3125315    0.0006874   -0.0477826  
O    4.6211394    0.0001824    1.1046137  
C    6.7952870    0.0009745    0.1242535  
O    7.2479823    0.0008235    1.2689314  
C    7.6676530    0.0015792   -1.0635604  
H    8.6077290    0.0030020   -3.9627113  
H    5.3014934    0.0000717    1.8019445  
H    6.4103405    0.0020017   -5.4960397  
C   10.0411250    0.7069022   -1.5422634  
C    9.1199933    0.0016838   -0.8363884  
C    9.8399606   -0.7410033    0.1710331  
C   11.2662694   -0.4082522   -0.0070469  
N   11.3207236    0.4735433   -1.0617322  
C   12.2731515   -0.9081158    0.7532359  
C   11.9291373   -1.8359251    1.8178295  
O   12.7640094   -2.3407447    2.5570507  
C   10.4249098   -2.2026448    2.0242756  
O   10.1231869   -2.9829621    2.9172082  
C    9.4298656   -1.5991509    1.1413638  
H   13.3129225   -0.6509721    0.6060528  
H    8.3905065   -1.8581019    1.2910358  
H    9.8928440    1.3772928   -2.3732140  
H   12.1604449    0.8858036   -1.4249914  
C    0.0000000    0.0000000    1.4700000  
C    1.0662921    0.0000102    2.3034270  
C    0.4961870   -0.0000064    3.6418889  
C   -0.9663858    0.0000850    3.4240247  
N   -1.2632773    0.0000084    2.1528658  
C   -1.8985362    0.0000517    4.5177257  
C   -1.3925775   -0.0004564    5.7720543  
O   -2.1456383   -0.0005410    6.8851312  
C    0.0786232   -0.0009323    6.0245000  
O    0.4683759   -0.0012588    7.1921102  
C    1.0143166   -0.0008442    4.8859032  
H    2.1107198   -0.0000632    2.0421868  
H   -2.9622183    0.0003270    4.3293377  
H   -1.5042274   -0.0009692    7.6184419  
H    2.0724152   -0.0013148    5.1109744  
