58

C    5.9718891   -2.1066114   -4.3836097  
C    5.8824617   -1.6421429   -5.6565381  
C    4.7503165   -0.7470247   -5.6994994  
C    4.1834492   -0.7279189   -4.3374836  
N    4.9692736   -1.5728897   -3.5882214  
C    3.1006054    0.0006263   -3.9654951  
C    2.4499047    0.8204919   -4.9739314  
O    1.4681175    1.5123811   -4.7379561  
C    3.0331143    0.8153162   -6.4229469  
O    2.4935221    1.5013959   -7.2804989  
C    4.2049177   -0.0107666   -6.7027951  
H    4.6026870   -0.0086185   -7.7085282  
H    6.6857548   -2.7940674   -3.9597112  
H    4.8362804   -1.7697855   -2.6132382  
C    7.7171140   -5.4503847   -6.8459424  
C    8.4008994   -5.0371274   -7.9440008  
C    8.1443031   -3.6240046   -8.0925884  
C    7.2485781   -3.2451423   -6.9831160  
N    7.0273843   -4.3973300   -6.2644885  
C    6.7743884   -1.9912971   -6.7716434  
C    7.1726347   -0.9451610   -7.6987542  
O    6.7988259    0.2156729   -7.5937152  
C    8.1204611   -1.3238534   -8.8811332  
O    8.4622835   -0.4515919   -9.6682664  
C    8.5657830   -2.7095744   -9.0048987  
H    9.0148162   -5.6520779   -8.5776838  
H    9.2220711   -2.9635056   -9.8261952  
H    7.6588657   -6.4356758   -6.4127008  
H    6.4548893   -4.4627057   -5.4428905  
C    3.2798083    0.0005857   -1.4499652  
C    2.5571142    0.0005565   -2.5996556  
C    1.1637432    0.0001548   -2.2210361  
C    1.1336964   -0.0000200   -0.7459473  
N    2.4483512   -0.0001428   -0.3402723  
C    0.0000000    0.0000000    0.0000000  
C   -1.2757368   -0.0000186   -0.6964415  
O   -2.3524598   -0.0000639   -0.1142311  
C   -1.2676497   -0.0000872   -2.2584083  
O   -2.3355766   -0.0004101   -2.8557295  
C    0.0181558    0.0001758   -2.9516296  
H    0.0150788    0.0003319   -4.0331631  
H    4.3498547    0.0008612   -1.3200026  
H    2.7563626    0.0012823    0.6148059  
C    2.3971438    2.0127888    3.1728260  
C    1.9431056    1.6308205    1.9564670  
C    0.8496017    0.7127664    2.2356185  
C    0.7794028    0.6545384    3.7115134  
N    1.6840587    1.4146091    4.2663826  
C   -0.1885723   -0.1578550    4.3957118  
C   -1.0476298   -0.8789867    3.6398520  
O   -2.0015663   -1.6796266    4.1448486  
C   -1.0022026   -0.8410666    2.1483229  
O   -1.8147390   -1.5232959    1.5241687  
C    0.0000000    0.0000000    1.4700000  
H    2.3054237    1.9346118    0.9892483  
H   -0.2170646   -0.1815267    5.4753125  
H   -2.4487139   -2.0549881    3.3649027  
H    3.2048689    2.6911772    3.3971983  
