62

C    1.1243400    0.0100500   -0.7919010  
C    0.7474052    0.0234928   -2.1148550  
C   -0.6787406    0.0234143   -2.1414695  
C   -1.1201754    0.0098019   -0.7935541  
N    0.0000000    0.0000000    0.0000000  
C   -2.4730823    0.0062441   -0.4408232  
C   -3.3971975    0.0169240   -1.4675048  
O   -4.7313531    0.0143835   -1.1793446  
C   -2.9763680    0.0301984   -2.8186306  
O   -4.0166520    0.0393063   -3.7247603  
C   -1.6418601    0.0334421   -3.1673475  
H   -2.8160164   -0.0042554    0.5845986  
H   -5.1938846    0.0228207   -2.0274351  
H   -3.6464723    0.0480426   -4.6127324  
H   -1.3497516    0.0435180   -4.2109228  
H    2.1062459    0.0053899   -0.3505419  
C    4.6036339   -2.0930716   -2.9144245  
C    3.4418649   -1.6362332   -2.3364471  
C    2.8381164   -0.7399517   -3.2674505  
C    3.6839306   -0.6894178   -4.4049794  
N    4.7475931   -1.5210622   -4.1567729  
C    3.3988584    0.0973662   -5.5250210  
C    2.2386550    0.8465548   -5.4963344  
O    1.9118972    1.6321378   -6.5636216  
C    1.3821518    0.8097215   -4.3703406  
O    0.2663906    1.6116414   -4.4942143  
C    1.6628913    0.0339758   -3.2649309  
H    3.0752696   -1.9138828   -1.3630448  
H    4.0394695    0.1403668   -6.3950614  
H    1.0768251    2.0632292   -6.3398371  
H   -0.2582085    1.5289057   -3.6919960  
H    5.3416944   -2.7805788   -2.5381801  
C    5.8594620   -1.7782052   -5.0833396  
C    6.9382555   -2.5871434   -4.9224098  
C    7.7274506   -2.4810055   -6.1268765  
C    7.0149118   -1.5371331   -7.0090236  
N    5.8906665   -1.1479003   -6.3180386  
C    7.4394524   -1.1694036   -8.2444359  
C    8.6809108   -1.7415895   -8.7383192  
O    9.1468647   -1.4734365   -9.8379918  
C    9.4519364   -2.7435723   -7.8210650  
O   10.4981360   -3.2319829   -8.2262603  
C    8.8945906   -3.0623245   -6.5089618  
H    7.1561944   -3.1896031   -4.0586050  
H    6.9018118   -0.4753389   -8.8754085  
H    9.4346557   -3.7568115   -5.8798816  
H    5.2003303   -0.5034925   -6.6574832  
C    2.5528530    2.1414826    2.8079335  
C    2.0663498    1.7338582    4.0032312  
C    0.9804344    0.8229586    3.6752840  
C    0.9495562    0.7966882    2.1971295  
N    1.8690446    1.5676019    1.6831036  
C    0.0000000    0.0000000    1.4700000  
C   -0.8785127   -0.7372425    2.1869543  
O   -1.8187535   -1.5261249    1.6395491  
C   -0.8723269   -0.7321790    3.6796354  
O   -1.7010379   -1.4274584    4.2670412  
C    0.1115397    0.0933559    4.4024240  
H    2.4028853    2.0163452    4.9860947  
H   -2.2861435   -1.9184361    2.3990168  
H    0.0832434    0.0693689    5.4835595  
H    3.3664920    2.8238276    2.6198634  
