62

C    3.3041286    0.0001177   -1.5420405  
C    2.5845377   -0.0004779   -0.3695834  
C    1.2040013   -0.0000007   -0.7283580  
C    1.1422395    0.0006038   -2.1454365  
N    2.4348658    0.0026110   -2.6077446  
C   -0.0655157    0.0008800   -2.8497917  
C   -1.2321756    0.0002327   -2.1101405  
O   -2.4392796    0.0001150   -2.7472537  
C   -1.1911200   -0.0000007   -0.6955273  
O   -2.4371524   -0.0002319   -0.1032878  
C    0.0000000    0.0000000    0.0000000  
H    3.0031532   -0.0000662    0.6222604  
H    2.7054651   -0.0071097   -3.5745243  
H   -0.1193524    0.0014848   -3.9297472  
H   -3.1132973   -0.0000645   -2.0551807  
H   -2.3200290   -0.0004070    0.8516394  
C    6.5771485   -0.0035574    1.3345587  
C    7.6645483   -0.0027623    0.5288665  
C    7.1290988   -0.0009889   -0.8238311  
C    5.6614008   -0.0010505   -0.6437016  
N    5.3318743   -0.0024721    0.6193897  
C    4.7577233    0.0005129   -1.7610426  
C    5.2958140    0.0024561   -3.0019248  
O    4.5716659    0.0040582   -4.1340236  
C    6.7730280    0.0029429   -3.2164016  
O    7.1927183    0.0046218   -4.3735869  
C    7.6790911    0.0012688   -2.0540887  
H    8.7019025   -0.0032211    0.8169145  
H    5.2317480    0.0052553   -4.8505732  
H    6.5493783   -0.0048795    2.4126125  
C   11.1034890   -2.1250691   -0.1197036  
C    9.8498624   -1.6626742   -0.4469321  
C   10.0091551   -0.7730460   -1.5504660  
C   11.3937704   -0.7321104   -1.8555768  
N   12.0296948   -1.5628189   -0.9666784  
C   11.9170139    0.0462600   -2.8924683  
C   11.0262348    0.7967473   -3.6350711  
O   11.4834137    1.5743646   -4.6594305  
C    9.6411845    0.7694330   -3.3457491  
O    8.8842570    1.5714286   -4.1747291  
C    9.1243215    0.0019915   -2.3228064  
H    8.9334520   -1.9324419    0.0494652  
H   13.0169695   -1.7440501   -0.9460545  
H   12.9712969    0.0819252   -3.1299911  
H   10.7085135    2.0079644   -5.0399366  
H    7.9618165    1.4953952   -3.9121931  
H   11.4104080   -2.8103460    0.6517596  
C    0.0000000    0.0000000    1.4700000  
C    1.0662921    0.0000102    2.3034270  
C    0.4961870   -0.0000064    3.6418889  
C   -0.9663858    0.0000850    3.4240247  
N   -1.2632773    0.0000084    2.1528658  
C   -1.8985362    0.0000517    4.5177257  
C   -1.3925775   -0.0004564    5.7720543  
O   -2.1456383   -0.0005410    6.8851312  
C    0.0786232   -0.0009323    6.0245000  
O    0.4683759   -0.0012588    7.1921102  
C    1.0143166   -0.0008442    4.8859032  
H    2.1107198   -0.0000632    2.0421868  
H   -2.9622183    0.0003270    4.3293377  
H   -1.5042274   -0.0009692    7.6184419  
H    2.0724152   -0.0013148    5.1109744  
