64

C    4.1066126   -0.7198887   -4.4477716  
C    3.0267438   -0.0008951   -3.9901699  
C    2.5093613    0.7266866   -5.1026176  
C    3.3209996    0.4088812   -6.2216217  
N    4.2823368   -0.4703597   -5.7887433  
C    3.1008514    0.9475210   -7.4929164  
C    2.0418866    1.8226954   -7.6372801  
O    1.7817969    2.3774849   -8.8569415  
C    1.2209707    2.1524235   -6.5326559  
O    0.2080049    3.0379818   -6.8376634  
C    1.4377317    1.6216302   -5.2781441  
H    3.7159028    0.7094368   -8.3497888  
H    1.0124322    2.9495427   -8.7382250  
H   -0.2987945    3.2076335   -6.0376782  
H    0.7922748    1.8929862   -4.4509630  
H    4.7662577   -1.3898546   -3.9233937  
C    5.7668725   -2.3700390   -6.5422728  
C    6.7594896   -2.5778255   -7.4717907  
C    6.9424996   -1.3463214   -8.1678547  
C    6.0262294   -0.4154739   -7.6147753  
N    5.3267034   -1.0701850   -6.6315998  
C    5.9288863    0.9060680   -8.0606903  
C    6.7720807    1.2950950   -9.0833637  
O    6.7191600    2.5742317   -9.5566733  
C    7.6927696    0.3807949   -9.6483455  
O    8.4625969    0.9197834  -10.6583939  
C    7.7891601   -0.9231667   -9.2091195  
H    7.2860374   -3.5034845   -7.6295744  
H    5.2325560    1.6203649   -7.6434287  
H    7.3807865    2.6334101  -10.2581094  
H    9.0569161    0.2373556  -10.9850146  
H    8.5039442   -1.6007101   -9.6613332  
H    5.3370503   -3.0466042   -5.8236134  
C    3.3003547    0.0005277   -1.4738986  
C    2.5232816    0.0003497   -2.6090746  
C    1.1623203   -0.0001319   -2.1820102  
C    1.1711884    0.0000584   -0.7636141  
N    2.4852301   -0.0014919   -0.3662359  
C    0.0000000    0.0000000    0.0000000  
C   -1.2020383    0.0000520   -0.6806479  
O   -2.3759248    0.0003493    0.0157745  
C   -1.2314655   -0.0005115   -2.0955511  
O   -2.5054388   -0.0008040   -2.6250184  
C   -0.0764513   -0.0007274   -2.8495195  
H    2.8036266    0.0088183    0.5858662  
H   -3.0835639    0.0000346   -0.6418822  
H   -2.4360043   -0.0011529   -3.5845924  
H   -0.1304091   -0.0013423   -3.9319089  
H    4.3715553    0.0004897   -1.3667133  
C    0.0000000    0.0000000    1.4700000  
C    1.0662921    0.0000102    2.3034270  
C    0.4961870   -0.0000064    3.6418889  
C   -0.9663858    0.0000850    3.4240247  
N   -1.2632773    0.0000084    2.1528658  
C   -1.8985362    0.0000517    4.5177257  
C   -1.3925775   -0.0004564    5.7720543  
O   -2.1456383   -0.0005410    6.8851312  
C    0.0786232   -0.0009323    6.0245000  
O    0.4683759   -0.0012588    7.1921102  
C    1.0143166   -0.0008442    4.8859032  
H    2.1107198   -0.0000632    2.0421868  
H   -2.9622183    0.0003270    4.3293377  
H   -1.5042274   -0.0009692    7.6184419  
H    2.0724152   -0.0013148    5.1109744  
