58

C    2.0485055   -2.1404840   -4.9352598  
C    2.0920571   -1.7327542   -6.2250032  
C    0.9665696   -0.8221932   -6.3687262  
C    0.3351120   -0.7962139   -5.0318754  
N    0.9649965   -1.5669928   -4.1874018  
C   -0.8287665    0.0000939   -4.7555305  
C   -1.3384143    0.7372508   -5.7685422  
O   -2.4204377    1.5257894   -5.6524722  
C   -0.7235770    0.7324748   -7.1287308  
O   -1.2406170    1.4276564   -8.0031528  
C    0.4698619   -0.0926716   -7.3871124  
H   -2.5373019    1.9181275   -6.5365340  
H    0.8852519   -0.0684847   -8.3856597  
H    2.7147575   -2.8226587   -4.4315536  
C    3.8901764   -5.6069735   -7.0879552  
C    4.6858945   -5.3226223   -8.1451005  
C    4.4911760   -3.9017872   -8.3896628  
C    3.5193129   -3.4760742   -7.3596947  
N    3.1634377   -4.4713266   -6.5936553  
C    3.0593700   -2.1180895   -7.2626557  
C    3.5483942   -1.2258640   -8.1537925  
O    3.2065406    0.0735644   -8.1795325  
C    4.5305850   -1.6246526   -9.2047095  
O    4.9332846   -0.7598315   -9.9826160  
C    4.9869663   -3.0237264   -9.2836601  
H    5.3260092   -5.9940984   -8.6914060  
H    3.7155181    0.4492172   -8.9204638  
H    5.6990894   -3.2721515  -10.0591582  
H    3.7507179   -6.5577228   -6.5984659  
C    1.0672569   -0.0000698   -0.8321910  
C    0.0000000    0.0000000    0.0000000  
C   -1.1601223   -0.0000736   -0.8778472  
C   -0.5938729   -0.0000768   -2.2438435  
N    0.7113367   -0.0001553   -2.2234123  
C   -1.4286985   -0.0001877   -3.4135239  
C   -2.7683113   -0.0006798   -3.2270524  
O   -3.6653902   -0.0008302   -4.2276970  
C   -3.3702024   -0.0010610   -1.8610774  
O   -4.5974910   -0.0013779   -1.7662963  
C   -2.4926825   -0.0008943   -0.6770658  
H   -4.5324245   -0.0012258   -3.7833954  
H   -2.9677772   -0.0012974    0.2947961  
H    2.1134391   -0.0000547   -0.5705119  
C    2.5528530    2.1414826    2.8079335  
C    2.0663498    1.7338582    4.0032312  
C    0.9804344    0.8229586    3.6752840  
C    0.9495562    0.7966882    2.1971295  
N    1.8690446    1.5676019    1.6831036  
C    0.0000000    0.0000000    1.4700000  
C   -0.8785127   -0.7372425    2.1869543  
O   -1.8187535   -1.5261249    1.6395491  
C   -0.8723269   -0.7321790    3.6796354  
O   -1.7010379   -1.4274584    4.2670412  
C    0.1115397    0.0933559    4.4024240  
H    2.4028853    2.0163452    4.9860947  
H   -2.2861435   -1.9184361    2.3990168  
H    0.0832434    0.0693689    5.4835595  
H    3.3664920    2.8238276    2.6198634  
