62

C    3.3003542    0.0005276   -1.4738995  
C    2.5232807    0.0003499   -2.6090754  
C    1.1623196   -0.0001317   -2.1820105  
C    1.1711880    0.0000584   -0.7636143  
N    2.4852302   -0.0014919   -0.3662359  
C    0.0000000    0.0000000    0.0000000  
C   -1.2020385    0.0000520   -0.6806476  
O   -2.3759251    0.0003495    0.0157751  
C   -1.2314662   -0.0005111   -2.0955503  
O   -2.5054392   -0.0008035   -2.6250176  
C   -0.0764521   -0.0007270   -2.8495195  
H    2.8919946   -0.0005618   -3.6205304  
H    2.8036265    0.0088180    0.5858656  
H   -3.0835641    0.0000348   -0.6418810  
H   -2.4360054   -0.0011524   -3.5845918  
H    4.3715548    0.0004895   -1.3667143  
C   -0.1496421   -0.0015610   -4.3176959  
C    0.8738319   -0.0018368   -5.2031789  
C    0.2377927   -0.0026902   -6.5115958  
C   -1.2121187   -0.0029422   -6.2211808  
N   -1.4453520   -0.0022021   -4.9368174  
C   -2.1975674   -0.0037104   -7.2671140  
C   -1.7546887   -0.0038155   -8.5450789  
O   -2.5622342   -0.0045087   -9.6192803  
C   -0.2978817   -0.0031970   -8.8704617  
O    0.0332533   -0.0034571  -10.0560291  
C    0.6933411   -0.0024574   -7.7798648  
H    1.9299710   -0.0014123   -4.9942643  
H   -3.2505505   -0.0040854   -7.0259997  
H   -1.9581302   -0.0043718  -10.3836179  
C    4.1884896   -2.1213986   -6.0908097  
C    5.1326961   -1.6216050   -6.9574972  
C    4.4519435   -0.7476243   -7.8560147  
C    3.0827780   -0.7538966   -7.4855119  
N    2.9571003   -1.5997012   -6.4115298  
C    2.1141613   -0.0017121   -8.1569193  
C    2.5354322    0.7711137   -9.2215548  
O    1.6312865    1.5253386   -9.9119742  
C    3.8971135    0.7903098   -9.6066168  
O    4.1580454    1.6090212  -10.6859548  
C    4.8531790    0.0483040   -8.9448825  
H    6.1827416   -1.8587297   -6.9444770  
H    2.1012212   -1.7968890   -5.9251459  
H    2.1275944    1.9801664  -10.6048484  
H    5.0991265    1.5646212  -10.8808878  
H    5.8886337    0.0830556   -9.2628516  
H    4.2957427   -2.8098454   -5.2701412  
C    0.0000000    0.0000000    1.4700000  
C    1.0662921    0.0000102    2.3034270  
C    0.4961870   -0.0000064    3.6418889  
C   -0.9663858    0.0000850    3.4240247  
N   -1.2632773    0.0000084    2.1528658  
C   -1.8985362    0.0000517    4.5177257  
C   -1.3925775   -0.0004564    5.7720543  
O   -2.1456383   -0.0005410    6.8851312  
C    0.0786232   -0.0009323    6.0245000  
O    0.4683759   -0.0012588    7.1921102  
C    1.0143166   -0.0008442    4.8859032  
H    2.1107198   -0.0000632    2.0421868  
H   -2.9622183    0.0003270    4.3293377  
H   -1.5042274   -0.0009692    7.6184419  
H    2.0724152   -0.0013148    5.1109744  
