60

C   -1.1180135   -0.0436310   -0.8003807  
C    0.0000000    0.0000000    0.0000000  
C    1.1315913    0.0424375   -0.8673523  
C    0.6378742    0.0224545   -2.1969275  
N   -0.7317178   -0.0318680   -2.1202239  
C    1.4761149    0.0537859   -3.3154807  
C    2.8375494    0.1065525   -3.0876854  
O    3.7013018    0.1392769   -4.1440340  
C    3.3493858    0.1268524   -1.7684323  
O    4.7266338    0.1797431   -1.7073115  
C    2.5230409    0.0956930   -0.6644807  
H    1.1060887    0.0386502   -4.3313807  
H    4.5907234    0.1735922   -3.7685116  
H    4.9898317    0.1903315   -0.7819909  
H    2.9441224    0.1121683    0.3339668  
H   -2.1603703   -0.0836557   -0.5342067  
C   -1.6470194   -0.0530462   -3.2702999  
C   -3.0039752   -0.1037387   -3.2835865  
C   -3.4117310   -0.1032567   -4.6687112  
C   -2.1722102   -0.0477590   -5.4670213  
N   -1.1382938   -0.0189413   -4.5597863  
C   -2.1313287   -0.0311996   -6.8233984  
C   -3.3922984   -0.0704447   -7.5451667  
O   -3.4609091   -0.0594144   -8.7672433  
C   -4.7172631   -0.1291993   -6.7200472  
O   -5.7850311   -0.1622850   -7.3167359  
C   -4.6335813   -0.1425034   -5.2617358  
H   -3.6460173   -0.1374223   -2.4214607  
H   -1.2112846    0.0095736   -7.3897607  
H   -0.1641342    0.0187914   -4.7977707  
C   -5.9522366    1.8618733   -1.5549778  
C   -5.2403977    1.4378366   -2.6308742  
C   -6.0830727    0.5171857   -3.3569153  
C   -7.3533159    0.4390801   -2.6104752  
N   -7.2092609    1.2771098   -1.5288820  
C   -8.4128444   -0.3270823   -2.9739302  
C   -8.2941421   -1.1284109   -4.1807101  
O   -9.1926368   -1.8511163   -4.5914460  
C   -6.9578438   -1.0613160   -4.9866938  
O   -6.8461371   -1.7317784   -6.0041719  
C   -5.8866964   -0.1981948   -4.4952495  
H   -4.2391878    1.7358249   -2.8865995  
H   -9.3356975   -0.3699229   -2.4123109  
H   -5.6642088    2.5521961   -0.7788438  
H   -7.9101425    1.4404778   -0.8295081  
C    2.5528530    2.1414826    2.8079335  
C    2.0663498    1.7338582    4.0032312  
C    0.9804344    0.8229586    3.6752840  
C    0.9495562    0.7966882    2.1971295  
N    1.8690446    1.5676019    1.6831036  
C    0.0000000    0.0000000    1.4700000  
C   -0.8785127   -0.7372425    2.1869543  
O   -1.8187535   -1.5261249    1.6395491  
C   -0.8723269   -0.7321790    3.6796354  
O   -1.7010379   -1.4274584    4.2670412  
C    0.1115397    0.0933559    4.4024240  
H    2.4028853    2.0163452    4.9860947  
H   -2.2861435   -1.9184361    2.3990168  
H    0.0832434    0.0693689    5.4835595  
H    3.3664920    2.8238276    2.6198634  
