58

C   -4.7161315    0.0019806   -1.6923275  
C   -5.6957059    0.0027954   -0.7518443  
C   -6.9559325    0.0031796   -1.4565888  
C   -6.6279059    0.0024877   -2.8950562  
N   -5.2541433    0.0021768   -2.9703270  
C   -7.5472407    0.0021949   -3.8933189  
C   -8.9536499    0.0028134   -3.5265108  
O   -9.8573540    0.0026741   -4.3521136  
C   -9.3240192    0.0038032   -2.0090688  
O  -10.5048011    0.0046365   -1.6881119  
C   -8.2443350    0.0037592   -1.0251305  
H   -5.5518779    0.0032758    0.3139539  
H   -8.5092033    0.0042424    0.0234721  
H   -4.7240348    0.0001421   -3.8224002  
C   -3.2573657    0.0012846   -1.5109392  
C   -2.5379457    0.0009443   -0.3591970  
C   -1.1435032    0.0003153   -0.7338501  
C   -1.1092595    0.0003463   -2.2088478  
N   -2.4227545    0.0005474   -2.6182617  
C    0.0265547    0.0002444   -2.9515659  
C    1.3003050   -0.0001322   -2.2514972  
O    2.3786795   -0.0003114   -2.8306412  
C    1.2877728   -0.0004235   -0.6895599  
O    2.3539962   -0.0010479   -0.0892025  
C    0.0000000    0.0000000    0.0000000  
H   -2.9384089    0.0009321    0.6389230  
H    0.0296320    0.0003996   -4.0327227  
H   -2.7280465    0.0021721   -3.5742123  
C   -7.1912937    0.0013269   -5.3195731  
C   -5.9549269    0.0006670   -5.8700051  
C   -6.1839695   -0.0000225   -7.3066813  
C   -7.6557719    0.0002309   -7.4494490  
N   -8.2516272    0.0011020   -6.2880088  
C   -8.2953531   -0.0002438   -8.7363147  
C   -7.5007261   -0.0005511   -9.8308026  
O   -7.9618556   -0.0010124  -11.0931026  
C   -6.0121800   -0.0004417   -9.7194977  
O   -5.3512996   -0.0008623  -10.7579860  
C   -5.3800322    0.0000042   -8.3882149  
H   -5.0048370    0.0007402   -5.3636404  
H   -9.3729972   -0.0002506   -8.8110938  
H   -7.1619679   -0.0011120  -11.6492791  
H   -4.2989223    0.0001855   -8.3503792  
C    2.3971438    2.0127888    3.1728260  
C    1.9431056    1.6308205    1.9564670  
C    0.8496017    0.7127664    2.2356185  
C    0.7794028    0.6545384    3.7115134  
N    1.6840587    1.4146091    4.2663826  
C   -0.1885723   -0.1578550    4.3957118  
C   -1.0476298   -0.8789867    3.6398520  
O   -2.0015663   -1.6796266    4.1448486  
C   -1.0022026   -0.8410666    2.1483229  
O   -1.8147390   -1.5232959    1.5241687  
C    0.0000000    0.0000000    1.4700000  
H    2.3054237    1.9346118    0.9892483  
H   -0.2170646   -0.1815267    5.4753125  
H   -2.4487139   -2.0549881    3.3649027  
H    3.2048689    2.6911772    3.3971983  
