58

C    3.2798085    0.0005856   -1.4499646  
C    2.5571146    0.0005565   -2.5996553  
C    1.1637436    0.0001548   -2.2210360  
C    1.1336964   -0.0000200   -0.7459468  
N    2.4483512   -0.0001429   -0.3402719  
C    0.0000000    0.0000000    0.0000000  
C   -1.2757371   -0.0000187   -0.6964415  
O   -2.3524597   -0.0000640   -0.1142312  
C   -1.2676493   -0.0000873   -2.2584081  
O   -2.3355761   -0.0004101   -2.8557295  
C    0.0181561    0.0001759   -2.9516296  
H    2.9547354    0.0006074   -3.5989104  
H    2.7563628    0.0012823    0.6148064  
C    4.7390846    0.0009612   -1.2727278  
C    5.7159792    0.0017141   -2.2159942  
C    6.9782062    0.0017425   -1.5148385  
C    6.6542741    0.0009094   -0.0754434  
N    5.2807307    0.0008646    0.0037357  
C    7.5764448    0.0002870    0.9201990  
C    8.9818048    0.0006748    0.5493907  
O    9.8878546    0.0002342    1.3724189  
C    9.3478552    0.0018086   -0.9690991  
O   10.5277196    0.0024502   -1.2934141  
C    8.2653761    0.0021244   -1.9499610  
H    5.5691192    0.0023771   -3.2813791  
H    7.3176380   -0.0004498    1.9699266  
H    8.5272595    0.0027054   -2.9993132  
H    4.7530487   -0.0011861    0.8573135  
C    2.4064703   -2.0119085   -6.1315532  
C    1.9558551   -1.6301623   -4.9138521  
C    0.8614673   -0.7121807   -5.1897589  
C    0.7870639   -0.6537471   -6.6654397  
N    1.6902156   -1.4136445   -7.2229906  
C   -0.1829371    0.1586453   -7.3467641  
C   -1.0399148    0.8795795   -6.5883597  
O   -1.9953663    1.6801939   -7.0905244  
C   -0.9902406    0.8414490   -5.0969710  
O   -1.8010680    1.5235046   -4.4704093  
C    0.0139740    0.0003878   -4.4216236  
H    2.3209547   -1.9340557   -3.9477121  
H   -0.2145031    0.1824697   -8.4262766  
H   -2.4403317    2.0553968   -6.3092554  
H    3.2136233   -2.6901813   -6.3583206  
C    2.3971438    2.0127888    3.1728260  
C    1.9431056    1.6308205    1.9564670  
C    0.8496017    0.7127664    2.2356185  
C    0.7794028    0.6545384    3.7115134  
N    1.6840587    1.4146091    4.2663826  
C   -0.1885723   -0.1578550    4.3957118  
C   -1.0476298   -0.8789867    3.6398520  
O   -2.0015663   -1.6796266    4.1448486  
C   -1.0022026   -0.8410666    2.1483229  
O   -1.8147390   -1.5232959    1.5241687  
C    0.0000000    0.0000000    1.4700000  
H    2.3054237    1.9346118    0.9892483  
H   -0.2170646   -0.1815267    5.4753125  
H   -2.4487139   -2.0549881    3.3649027  
H    3.2048689    2.6911772    3.3971983  
