60

C    3.3041270    0.0001177   -1.5420437  
C    2.5845371   -0.0004779   -0.3695859  
C    1.2040006   -0.0000008   -0.7283592  
C    1.1422371    0.0006037   -2.1454379  
N    2.4348635    0.0026110   -2.6077470  
C   -0.0655185    0.0008797   -2.8497920  
C   -1.2321771    0.0002323   -2.1101395  
O   -2.4392818    0.0001142   -2.7472518  
C   -1.1911212   -0.0000008   -0.6955259  
O   -2.4371526   -0.0002322   -0.1032861  
C    0.0000000    0.0000000    0.0000000  
H    3.0031537   -0.0000662    0.6222578  
H   -0.1193553    0.0014843   -3.9297472  
H   -3.1132994   -0.0000649   -2.0551782  
H   -2.3200280   -0.0004071    0.8516416  
H    4.3686620    0.0004072   -1.7024301  
C    5.6502436   -2.1159091   -4.7187994  
C    5.4250922   -1.6663850   -5.9802708  
C    4.2912961   -0.7748304   -5.9133920  
C    3.8713712   -0.7415296   -4.4994104  
N    4.7351837   -1.5757172   -3.8279580  
C    2.8310658   -0.0116218   -4.0232757  
C    2.0743455    0.7948335   -4.9664298  
O    1.1203081    1.4867880   -4.6358049  
C    2.5012797    0.7745019   -6.4688008  
O    1.8714969    1.4492152   -7.2721668  
C    3.6401540   -0.0516383   -6.8616246  
H    3.9294730   -0.0600286   -7.9037132  
H    6.4075315   -2.7965348   -4.3650292  
H    4.7066626   -1.7617127   -2.8422406  
C    6.6902990   -3.2394005   -7.5178007  
C    6.1956057   -2.0260019   -7.1793894  
C    6.5920274   -1.1431068   -8.2655961  
C    7.3390892   -2.0130453   -9.1992396  
N    7.3999198   -3.2430044   -8.7662389  
C    7.9062927   -1.5093353  -10.4197489  
C    7.7346401   -0.1963299  -10.6952238  
O    8.2097932    0.4076259  -11.7977242  
C    6.9853072    0.7072449   -9.7731529  
O    6.8680260    1.8915797  -10.0875051  
C    6.4129811    0.1666570   -8.5273061  
H    8.4475699   -2.1676755  -11.0834633  
H    7.9290050    1.3365905  -11.7120771  
H    5.8771644    0.8538417   -7.8862865  
H    6.6105462   -4.1652397   -6.9705939  
C    2.3971438    2.0127888    3.1728260  
C    1.9431056    1.6308205    1.9564670  
C    0.8496017    0.7127664    2.2356185  
C    0.7794028    0.6545384    3.7115134  
N    1.6840587    1.4146091    4.2663826  
C   -0.1885723   -0.1578550    4.3957118  
C   -1.0476298   -0.8789867    3.6398520  
O   -2.0015663   -1.6796266    4.1448486  
C   -1.0022026   -0.8410666    2.1483229  
O   -1.8147390   -1.5232959    1.5241687  
C    0.0000000    0.0000000    1.4700000  
H    2.3054237    1.9346118    0.9892483  
H   -0.2170646   -0.1815267    5.4753125  
H   -2.4487139   -2.0549881    3.3649027  
H    3.2048689    2.6911772    3.3971983  
