58

C    2.0060354   -2.0933383   -5.2079945  
C    1.0681402   -1.6309437   -4.3416125  
C    0.2140994   -0.7346502   -5.0846522  
C    0.7350363   -0.7126398   -6.4648444  
N    1.8215798   -1.5565851   -6.4731476  
C    0.2009228    0.0171136   -7.4767173  
C   -0.9646764    0.8356538   -7.1870526  
O   -1.5183200    1.5285628   -8.0306497  
C   -1.5330618    0.8277887   -5.7321706  
O   -2.5138748    1.5132038   -5.4762938  
C   -0.8712826    0.0001710   -4.7267111  
H    0.9842756   -1.8882189   -3.3007524  
H    0.5983678    0.0189967   -8.4821751  
H    2.3914344   -1.7539297   -7.2752499  
C    3.4083104   -3.6282170   -3.7804883  
C    3.1114194   -3.0309915   -4.9633881  
C    4.0851454   -3.4929095   -5.9242860  
C    4.9800567   -4.4148322   -5.1990399  
N    4.5160854   -4.4529766   -3.9043715  
C    6.0329485   -5.0631973   -5.7582772  
C    6.3029108   -4.8378201   -7.1685472  
O    7.2277242   -5.3750543   -7.7638623  
C    5.3681813   -3.8652672   -7.9560923  
O    5.5858179   -3.6674600   -9.1438489  
C    4.2648770   -3.2251426   -7.2441860  
H    6.6769725   -5.7354308   -5.2085090  
H    3.6221899   -2.5532981   -7.7967272  
H    2.9111693   -3.5350538   -2.8286161  
H    4.9188147   -4.9977692   -3.1640628  
C    1.0965514    0.0001359   -0.8010305  
C    0.0000000    0.0000000    0.0000000  
C   -1.1546563    0.0001470   -0.8669513  
C   -0.6372014    0.0003519   -2.2486282  
N    0.7342871    0.0007337   -2.1395014  
C   -1.4147739    0.0001352   -3.3608717  
C   -2.8576049   -0.0001048   -3.1854462  
O   -3.6427779   -0.0002494   -4.1244907  
C   -3.4275840   -0.0000725   -1.7311666  
O   -4.6406831    0.0000333   -1.5710060  
C   -2.4891867   -0.0001091   -0.6116744  
H   -2.8919122   -0.0002918    0.3920866  
H    2.1388272    0.0000663   -0.5261648  
H    1.3735872   -0.0006099   -2.9130262  
C    2.3971438    2.0127888    3.1728260  
C    1.9431056    1.6308205    1.9564670  
C    0.8496017    0.7127664    2.2356185  
C    0.7794028    0.6545384    3.7115134  
N    1.6840587    1.4146091    4.2663826  
C   -0.1885723   -0.1578550    4.3957118  
C   -1.0476298   -0.8789867    3.6398520  
O   -2.0015663   -1.6796266    4.1448486  
C   -1.0022026   -0.8410666    2.1483229  
O   -1.8147390   -1.5232959    1.5241687  
C    0.0000000    0.0000000    1.4700000  
H    2.3054237    1.9346118    0.9892483  
H   -0.2170646   -0.1815267    5.4753125  
H   -2.4487139   -2.0549881    3.3649027  
H    3.2048689    2.6911772    3.3971983  
