60

C    3.3003544    0.0005276   -1.4738986  
C    2.5232813    0.0003499   -2.6090753  
C    1.1623200   -0.0001317   -2.1820106  
C    1.1711882    0.0000584   -0.7636145  
N    2.4852301   -0.0014919   -0.3662360  
C    0.0000000    0.0000000    0.0000000  
C   -1.2020382    0.0000521   -0.6806480  
O   -2.3759251    0.0003495    0.0157747  
C   -1.2314658   -0.0005110   -2.0955508  
O   -2.5054388   -0.0008034   -2.6250183  
C   -0.0764517   -0.0007269   -2.8495194  
H    2.8919952   -0.0005616   -3.6205303  
H    2.8036263    0.0088183    0.5858660  
H   -3.0835640    0.0000347   -0.6418822  
H   -2.4360050   -0.0011524   -3.5845918  
H    4.3715549    0.0004896   -1.3667134  
C    2.2697432   -2.0933927   -5.9499310  
C    1.7761647   -1.6308843   -4.7724157  
C    0.6896458   -0.7359134   -5.0938796  
C    0.5899535   -0.7148026   -6.5657511  
N    1.5756960   -1.5579531   -7.0243345  
C   -0.3170960    0.0136146   -7.2645886  
C   -1.2578063    0.8315633   -6.5172208  
O   -2.1126589    1.5232786   -7.0548621  
C   -1.1702522    0.8246325   -4.9577039  
O   -1.9567836    1.5095615   -4.3177811  
C   -0.1496416   -0.0015609   -4.3176961  
H    2.1326582   -1.8872532   -3.7906824  
H   -0.3733819    0.0148557   -8.3442835  
H    3.0822590   -2.7801821   -6.1232167  
C    2.1684736   -3.0590412   -8.9622081  
C    1.8470515   -1.8475097   -8.4397581  
C    1.8246161   -0.9086397   -9.5365056  
C    2.1617037   -1.6780268  -10.7494381  
N    2.3588358   -2.9744415  -10.3330998  
C    2.2438329   -1.1499176  -11.9968596  
C    1.9830281    0.2711341  -12.1553776  
O    2.0320532    0.8406779  -13.2377440  
C    1.6244613    1.1053438  -10.8844211  
O    1.4031431    2.3026860  -11.0054583  
C    1.5661840    0.4240622   -9.5935647  
H    2.4925130   -1.7319214  -12.8734093  
H    1.3170240    1.0087593   -8.7184800  
H    2.2825069   -4.0065270   -8.4610524  
H    2.6014297   -3.7414291  -10.9330381  
C    2.5528530    2.1414826    2.8079335  
C    2.0663498    1.7338582    4.0032312  
C    0.9804344    0.8229586    3.6752840  
C    0.9495562    0.7966882    2.1971295  
N    1.8690446    1.5676019    1.6831036  
C    0.0000000    0.0000000    1.4700000  
C   -0.8785127   -0.7372425    2.1869543  
O   -1.8187535   -1.5261249    1.6395491  
C   -0.8723269   -0.7321790    3.6796354  
O   -1.7010379   -1.4274584    4.2670412  
C    0.1115397    0.0933559    4.4024240  
H    2.4028853    2.0163452    4.9860947  
H   -2.2861435   -1.9184361    2.3990168  
H    0.0832434    0.0693689    5.4835595  
H    3.3664920    2.8238276    2.6198634  
