58

C    3.4366575   -0.6833885   -3.0946346  
C    2.4521480    0.0014830   -3.7217483  
C    3.1253964    0.7466081   -4.7743755  
C    4.5519817    0.3836670   -4.6339715  
N    4.7405495   -0.4543479   -3.6510360  
C    5.5626517    0.9200496   -5.5034110  
C    5.1661367    1.7796238   -6.4694554  
O    6.0015170    2.3558694   -7.3504321  
C    3.7338253    2.1651522   -6.6368310  
O    3.4449661    2.9527886   -7.5376147  
C    2.7159669    1.6013966   -5.7323603  
H    6.5977251    0.6376031   -5.3778750  
H    5.4283408    2.9120095   -7.9084010  
H    1.6894036    1.9056758   -5.8866681  
H    3.3478784   -1.3551407   -2.2556826  
C    0.0000000    0.0000000    0.0000000  
C    1.0662921   -0.0000106   -0.8334269  
C    0.4961870    0.0000059   -2.1718889  
C   -0.9663856   -0.0000854   -1.9540246  
N   -1.2632773   -0.0000087   -0.6828657  
C   -1.8985362   -0.0000522   -3.0477258  
C   -1.3925773    0.0004558   -4.3020541  
O   -2.1456384    0.0005402   -5.4151311  
C    0.0786236    0.0009315   -4.5544999  
O    0.4683762    0.0012578   -5.7221098  
C    1.0143167    0.0008435   -3.4159031  
H    2.1107198    0.0000631   -0.5721865  
H   -1.5042271    0.0009682   -6.1484419  
C   -4.0230210    0.6852474   -1.8410563  
C   -3.3460094   -0.0004268   -2.7913647  
C   -4.3652411   -0.7461035   -3.5136062  
C   -5.6347338   -0.3825701   -2.8481619  
N   -5.4404329    0.4562396   -1.8670223  
C   -6.8979172   -0.9192526   -3.2741034  
C   -6.8931418   -1.7796806   -4.3176434  
O   -7.9981923   -2.3562945   -4.8200573  
C   -5.6284695   -2.1658232   -5.0102177  
O   -5.6989692   -2.9542275   -5.9529104  
C   -4.3454707   -1.6017437   -4.5545287  
H   -7.8101238   -0.6363586   -2.7693660  
H   -7.6764571   -2.9130454   -5.5519503  
H   -3.4519528   -1.9064890   -5.0827203  
H   -3.6257278    1.3575925   -1.0973603  
C    1.0672568    0.0000697    2.3021913  
C    0.0000000    0.0000000    1.4700000  
C   -1.1601224    0.0000736    2.3478473  
C   -0.5938729    0.0000769    3.7138435  
N    0.7113367    0.0001554    3.6934124  
C   -1.4286986    0.0001879    4.8835240  
C   -2.7683114    0.0006799    4.6970523  
O   -3.6653903    0.0008304    5.6976972  
C   -3.3702025    0.0010610    3.3310774  
O   -4.5974910    0.0013779    3.2362962  
C   -2.4926826    0.0008943    2.1470656  
H   -0.9878360   -0.0000190    5.8697035  
H   -4.5324246    0.0012261    5.2533954  
H   -2.9677772    0.0012974    1.1752040  
H    2.1134392    0.0000545    2.0405121  
