64

C    1.1188644    0.0008218   -0.8003806  
C    0.0000000    0.0000000    0.0000000  
C   -1.1323862    0.0008904   -0.8673524  
C   -0.6382659    0.0019684   -2.1969279  
N    0.7324023    0.0038479   -2.1202238  
C   -1.4770905    0.0027325   -3.3154809  
C   -2.8395470    0.0020959   -3.0876862  
O   -3.7039190    0.0024444   -4.1440355  
C   -3.3517864    0.0013947   -1.7684336  
O   -4.7300490    0.0012388   -1.7073134  
C   -2.5248545    0.0009136   -0.6644822  
H   -1.1067562    0.0036994   -4.3313813  
H   -4.5940024    0.0021851   -3.7685137  
H   -4.9934600    0.0007285   -0.7819922  
H   -2.9462579    0.0005615    0.3339652  
H    2.1619896    0.0009344   -0.5342063  
C    4.5426431   -2.1280495   -2.8244665  
C    4.7840755   -1.6433690   -4.0890858  
C    3.7027657   -0.7718641   -4.4144291  
C    2.8248675   -0.7640009   -3.3003562  
N    3.3636316   -1.5993789   -2.3535224  
C    1.6478441   -0.0100105   -3.2702994  
C    1.3518132    0.7501211   -4.3850829  
O    0.2151967    1.5054730   -4.4087629  
C    2.2150350    0.7551134   -5.5065284  
O    1.7815991    1.5622767   -6.5380153  
C    3.3762265    0.0113170   -5.5369816  
H    5.6343323   -1.8887260   -4.7021579  
H    2.9665967   -1.7854951   -1.4503582  
H    0.2007708    1.9502737   -5.2662066  
H    2.4205842    1.5086851   -7.2552535  
H    4.0176576    0.0350468   -6.4101832  
C    6.5096297   -3.6499311   -2.3825664  
C    6.9529855   -4.4713424   -1.3720290  
C    5.9977145   -4.3853862   -0.3162505  
C    4.9847726   -3.4890622   -0.7434250  
N    5.3275166   -3.0594331   -2.0014244  
C    3.8784964   -3.1653514    0.0478731  
C    3.7930698   -3.7574919    1.2929634  
O    2.7335058   -3.4768278    2.1063306  
C    4.7938884   -4.6541054    1.7371073  
O    4.5659121   -5.1602835    3.0001016  
C    5.8856712   -4.9737049    0.9571119  
H    7.8546293   -5.0592208   -1.3927871  
H    3.1031413   -2.4828532   -0.2718493  
H    2.8676468   -3.9873461    2.9154306  
H    5.2872880   -5.7563001    3.2236744  
H    6.6363802   -5.6637171    1.3242597  
H    6.9438373   -3.4374486   -3.3444782  
C    0.8175213    0.6860729    2.3021913  
C    0.0000000    0.0000000    1.4700000  
C   -0.8887526   -0.7456559    2.3478473  
C   -0.4549825   -0.3816753    3.7138435  
N    0.5448156    0.4573574    3.6934124  
C   -1.0945674   -0.9182058    4.8835240  
C   -2.1210866   -1.7789155    4.6970523  
O   -2.8083856   -2.3554314    5.6976972  
C   -2.5824069   -2.1655116    3.3310774  
O   -3.5227682   -2.9541547    3.2362962  
C   -1.9100805   -1.6015804    2.1470656  
H   -0.7567140   -0.6349833    5.8697035  
H   -3.4728268   -2.9124471    5.2533954  
H   -2.2742832   -1.9066565    1.1752040  
H    1.6189533    1.3585343    2.0405121  
