62

C    2.3136488   -2.1180442   -5.9171371  
C    1.6624056   -1.6181590   -7.0209776  
C    0.6419639   -0.7441442   -6.5420232  
C    0.7194929   -0.7504911   -5.1257346  
N    1.7437761   -1.5963709   -4.7793979  
C   -0.1387079    0.0017022   -4.3179686  
C   -1.0923524    0.7746132   -4.9514889  
O   -1.9557352    1.5288507   -4.2107385  
C   -1.1856784    0.7938845   -6.3634861  
O   -2.1870604    1.6126759   -6.8432319  
C   -0.3395498    0.0518703   -7.1609868  
H    2.0414324   -1.7936218   -3.8410620  
H   -2.5301600    1.9837418   -4.8403212  
H   -2.1819304    1.5683233   -7.8042789  
H   -0.4351241    0.0866807   -8.2399360  
H    3.1386337   -2.8065406   -5.8513306  
C    3.3041272    0.0001178   -1.5420427  
C    2.5845372   -0.0004778   -0.3695854  
C    1.2040006   -0.0000006   -0.7283593  
C    1.1422375    0.0006039   -2.1454375  
N    2.4348641    0.0026112   -2.6077465  
C   -0.0655179    0.0008801   -2.8497914  
C   -1.2321766    0.0002327   -2.1101402  
O   -2.4392815    0.0001149   -2.7472519  
C   -1.1911210   -0.0000006   -0.6955267  
O   -2.4371528   -0.0002319   -0.1032860  
C    0.0000000    0.0000000    0.0000000  
H    3.0031533   -0.0000659    0.6222585  
H    2.7054632   -0.0071094   -3.5745261  
H   -3.1132986   -0.0000647   -2.0551786  
H   -2.3200282   -0.0004071    0.8516411  
H    4.3686624    0.0004073   -1.7024288  
C    2.8165281   -5.3062752   -9.2413928  
C    2.4662394   -4.4716303   -8.2352886  
C    2.3104530   -3.1695342   -8.8651904  
C    2.6130975   -3.4075696  -10.2928903  
N    2.9103703   -4.6582822  -10.5194671  
C    2.5688852   -2.3514156  -11.2663744  
C    2.2370240   -1.1138030  -10.8333400  
O    2.1571183   -0.0356646  -11.6316339  
C    1.9258207   -0.8418094   -9.3989992  
O    1.6315206    0.3089058   -9.0757926  
C    1.9780878   -1.9418905   -8.4197063  
H    2.3302629   -4.7101242   -7.1942765  
H    2.7949482   -2.5538328  -12.3031154  
H    1.9013815    0.6936489  -11.0384623  
H    3.0238983   -6.3631005   -9.1857966  
C    2.3971438    2.0127888    3.1728260  
C    1.9431056    1.6308205    1.9564670  
C    0.8496017    0.7127664    2.2356185  
C    0.7794028    0.6545384    3.7115134  
N    1.6840587    1.4146091    4.2663826  
C   -0.1885723   -0.1578550    4.3957118  
C   -1.0476298   -0.8789867    3.6398520  
O   -2.0015663   -1.6796266    4.1448486  
C   -1.0022026   -0.8410666    2.1483229  
O   -1.8147390   -1.5232959    1.5241687  
C    0.0000000    0.0000000    1.4700000  
H    2.3054237    1.9346118    0.9892483  
H   -0.2170646   -0.1815267    5.4753125  
H   -2.4487139   -2.0549881    3.3649027  
H    3.2048689    2.6911772    3.3971983  
