60

C    0.0000000    0.0000000    0.0000000  
C    1.0541694   -0.0001722   -0.8560390  
C    0.5103145   -0.0000453   -2.1935954  
C   -0.9576361    0.0002459   -2.0455733  
N   -1.2018454   -0.0001391   -0.6915972  
C   -1.8348300    0.0008318   -3.0810613  
C   -1.2972833    0.0009738   -4.4314609  
O   -2.0050656    0.0014267   -5.4301325  
C    0.2542637    0.0004186   -4.6117574  
O    0.7184688    0.0002259   -5.7439120  
C    1.0974565    0.0000875   -3.4189127  
H    2.0940755   -0.0005483   -0.5817978  
H   -2.1128189    0.0014912   -0.2706798  
C   -4.4297970    2.1087668   -0.2339415  
C   -5.6380112    1.6447701   -0.6450383  
C   -5.3911858    0.7496342   -1.7507709  
C   -3.9296533    0.7300037   -1.9515867  
N   -3.4052338    1.5747186   -1.0006238  
C   -3.2941062    0.0012875   -2.9038250  
C   -4.1035790   -0.8182216   -3.7902190  
O   -3.6253046   -1.5102280   -4.6794218  
C   -5.6534073   -0.8124881   -3.5957863  
O   -6.3452671   -1.4982645   -4.3362606  
C   -6.2225088    0.0137341   -2.5340276  
H   -6.5931605    1.9005368   -0.2220880  
H   -7.2964256    0.0119729   -2.4058689  
H   -4.2016942    2.7960862    0.5644640  
H   -2.4284968    1.7712467   -0.8805879  
C    3.4828017   -0.6865230   -2.8918296  
C    2.5562225   -0.0001551   -3.6002997  
C    3.3178356    0.7455275   -4.5904525  
C    4.7268486    0.3812378   -4.3286135  
N    4.8297840   -0.4579845   -3.3340786  
C    5.8087710    0.9176987   -5.1075486  
C    5.4972212    1.7786372   -6.1030667  
O    6.4055194    2.3551207   -6.9084870  
C    4.0848337    2.1655479   -6.3922442  
O    3.8748915    2.9543881   -7.3135887  
C    2.9927249    1.6016821   -5.5790539  
H    6.8290494    0.6342483   -4.8940128  
H    5.8827306    2.9123381   -7.5129315  
H    1.9834074    1.9069889   -5.8205009  
H    3.3218869   -1.3590960   -2.0643481  
C    0.0000000    0.0000000    1.4700000  
C    1.0521667    0.0011902    2.3562342  
C    0.4917218    0.0011957    3.6679131  
C   -0.9187428   -0.0003148    3.5178682  
N   -1.1833171    0.0009411    2.1707914  
C   -1.7951701   -0.0010350    4.6072090  
C   -1.2375837   -0.0005224    5.8710424  
O   -2.0474215   -0.0015360    6.9697579  
C    0.1673580    0.0013566    6.0411963  
O    0.5673524    0.0020687    7.3615553  
C    1.0325770    0.0023412    4.9669890  
H    2.0953057    0.0030649    2.0900562  
H   -2.0989778   -0.0102372    1.7591824  
H   -2.8710934   -0.0020419    4.4995513  
H   -1.4634884   -0.0006497    7.7393593  
H    1.5290710    0.0033153    7.3880045  
H    2.1042148    0.0039609    5.1284455  
