62

C   -3.3003052   -0.0181119   -1.4738981  
C   -2.5232446   -0.0137938   -2.6090742  
C   -1.1623048   -0.0060610   -2.1820099  
C   -1.1711718   -0.0062984   -0.7636137  
N   -2.4852033   -0.0117494   -0.3662354  
C    0.0000000    0.0000000    0.0000000  
C    1.2020214    0.0063524   -0.6806483  
O    2.3758923    0.0123094    0.0157739  
C    1.2314447    0.0070724   -2.0955512  
O    2.5053979    0.0141525   -2.6250185  
C    0.0764461    0.0011344   -2.8495195  
H   -2.8919579   -0.0148467   -3.6205295  
H   -2.8035398   -0.0237557    0.5858669  
H    3.0835204    0.0163944   -0.6418824  
H    2.4359635    0.0141316   -3.5845927  
H    0.1303997    0.0020368   -3.9319086  
C   -5.6629584   -0.0137331   -2.3673672  
C   -6.9418435   -0.0093497   -1.8605132  
C   -6.8262921   -0.0174841   -0.4388305  
C   -5.4410659   -0.0264479   -0.1338823  
N   -4.7629806   -0.0258531   -1.3275394  
C   -4.9553363   -0.0356572    1.1771366  
C   -5.8849175   -0.0355135    2.1989277  
O   -5.4653102   -0.0439417    3.4977239  
C   -7.2712853   -0.0270192    1.9148001  
O   -8.0693385   -0.0284574    3.0401683  
C   -7.7511865   -0.0182049    0.6216858  
H   -3.9008221   -0.0426599    1.4162029  
H   -6.2631504   -0.0425382    4.0424377  
H   -8.9897941   -0.0223428    2.7602972  
H   -8.8187010   -0.0120036    0.4349971  
H   -5.3215670   -0.0106188   -3.3883476  
C   -8.0446029   -2.0945633   -5.5644496  
C   -9.3087171   -1.6234204   -5.7197380  
C   -9.5647116   -0.7320957   -4.6130118  
C   -8.3373055   -0.7224898   -3.7943712  
N   -7.4547100   -1.5687796   -4.4250124  
C   -8.1774138    0.0001577   -2.6568652  
C   -9.2884204    0.8232471   -2.2088437  
O   -9.2427019    1.5103453   -1.1968619  
C  -10.5979820    0.8281071   -3.0602119  
O  -11.5401626    1.5169772   -2.6927670  
C  -10.6507862    0.0077323   -4.2677092  
H   -9.9847706   -1.8720591   -6.5183267  
H  -11.5610537    0.0168212   -4.8517079  
H   -7.4943925   -2.7818070   -6.1864258  
H   -6.5245366   -1.7715046   -4.1076354  
C    2.5528530    2.1414826    2.8079335  
C    2.0663498    1.7338582    4.0032312  
C    0.9804344    0.8229586    3.6752840  
C    0.9495562    0.7966882    2.1971295  
N    1.8690446    1.5676019    1.6831036  
C    0.0000000    0.0000000    1.4700000  
C   -0.8785127   -0.7372425    2.1869543  
O   -1.8187535   -1.5261249    1.6395491  
C   -0.8723269   -0.7321790    3.6796354  
O   -1.7010379   -1.4274584    4.2670412  
C    0.1115397    0.0933559    4.4024240  
H    2.4028853    2.0163452    4.9860947  
H   -2.2861435   -1.9184361    2.3990168  
H    0.0832434    0.0693689    5.4835595  
H    3.3664920    2.8238276    2.6198634  
