60

C    0.0000000    0.0000000    0.0000000  
C    1.0662919   -0.0000101   -0.8334274  
C    0.4961866    0.0000066   -2.1718887  
C   -0.9663861   -0.0000848   -1.9540244  
N   -1.2632774   -0.0000083   -0.6828655  
C   -1.8985365   -0.0000514   -3.0477254  
C   -1.3925782    0.0004568   -4.3020539  
O   -2.1456391    0.0005413   -5.4151308  
C    0.0786225    0.0009327   -4.5544999  
O    0.4683751    0.0012594   -5.7221099  
C    1.0143161    0.0008446   -3.4159033  
H    2.1107197    0.0000634   -0.5721869  
H   -1.5042286    0.0009697   -6.1484420  
C    4.6180729   -2.0061846   -1.7279419  
C    3.3335591   -1.6255747   -1.9196175  
C    3.3783508   -0.7093970   -3.0488257  
C    4.8072956   -0.6506551   -3.4246589  
N    5.5388544   -1.4088314   -2.6539582  
C    5.2744730    0.1602677   -4.5151799  
C    4.3558404    0.8795011   -5.1993965  
O    4.6506679    1.6786180   -6.2388815  
C    2.9064336    0.8410150   -4.8445744  
O    2.1263347    1.5214885   -5.5106242  
C    2.4521478    0.0014842   -3.7217489  
H    2.4631338   -1.9291251   -1.3634758  
H    6.3245009    0.1843571   -4.7677083  
H    3.7944552    2.0528232   -6.5146054  
H    5.0061343   -2.6829996   -0.9834262  
C   -4.6051151    2.0113808   -0.1334475  
C   -3.4864974    1.6298265   -0.7927584  
C   -3.9518794    0.7119511   -1.8210695  
C   -5.4173873    0.6533629   -1.6328191  
N   -5.8061460    1.4130854   -0.6450550  
C   -6.2597398   -0.1589838   -2.4668584  
C   -5.6651265   -0.8797265   -3.4447643  
O   -6.3285778   -1.6802772   -4.2962290  
C   -4.1885399   -0.8414366   -3.6601389  
O   -3.7155092   -1.5233212   -4.5692569  
C   -3.3460099   -0.0004261   -2.7913641  
H   -2.4709780    1.9337815   -0.6045893  
H   -7.3277603   -0.1829242   -2.3066428  
H   -5.6384853   -2.0553379   -4.8726443  
H   -4.6853282    2.6895275    0.7012118  
C    1.1243417   -0.0099156    2.2619005  
C    0.7474090   -0.0234034    3.5848544  
C   -0.6787367   -0.0234952    3.6114698  
C   -1.1201739   -0.0099357    2.2635546  
N    0.0000000    0.0000000    1.4700000  
C   -2.4730812   -0.0065396    1.9108239  
C   -3.3971947   -0.0173298    2.9375057  
O   -4.7313508   -0.0149487    2.6493466  
C   -2.9763630   -0.0305536    4.2886322  
O   -4.0166453   -0.0397858    5.1947621  
C   -1.6418541   -0.0336380    4.6373480  
H    1.4178735   -0.0310004    4.4271209  
H   -2.8160170    0.0039190    0.8854031  
H   -5.1938803   -0.0234410    3.4974381  
H   -3.6464643   -0.0484781    6.0827341  
H   -1.3497443   -0.0436789    5.6809233  
H    2.1062470   -0.0051382    1.8205408  
