58

C    3.2573668   -0.0002919   -1.5109384  
C    2.5379469   -0.0001710   -0.3591966  
C    1.1435042    0.0000332   -0.7338501  
C    1.1092602   -0.0000081   -2.2088476  
N    2.4227556    0.0001910   -2.6182611  
C   -0.0265540   -0.0002522   -2.9515660  
C   -1.3003042   -0.0002638   -2.2514972  
O   -2.3786793   -0.0004130   -2.8306421  
C   -1.2877728    0.0000312   -0.6895602  
O   -2.3539960    0.0003307   -0.0892028  
C    0.0000000    0.0000000    0.0000000  
H    2.9384092   -0.0000369    0.6389232  
H   -0.0296299   -0.0004083   -4.0327227  
H    2.7280486   -0.0013405   -3.5742116  
C    6.5597228   -0.0008211    1.3835016  
C    7.6114518   -0.0009114    0.5244667  
C    7.0637934   -0.0009870   -0.8115370  
C    5.5962696   -0.0009038   -0.6593386  
N    5.3559139   -0.0012037    0.6953270  
C    4.7161331   -0.0005435   -1.6923264  
C    5.2498352   -0.0004420   -3.0442499  
O    4.5392144   -0.0001858   -4.0409033  
C    6.8008630   -0.0007796   -3.2289603  
O    7.2618449   -0.0010042   -4.3624313  
C    7.6474464   -0.0008760   -2.0385196  
H    8.6521348   -0.0011060    0.7957479  
H    8.7203346   -0.0009047   -2.1750269  
H    4.4461418    0.0003271    1.1188348  
C    7.6335252   -0.0003832    3.6826473  
C    6.5639050   -0.0006888    2.8534956  
C    5.4062848   -0.0007111    3.7346398  
C    5.9764182   -0.0004995    5.0990196  
N    7.2815644   -0.0002260    5.0748753  
C    5.1449238   -0.0004090    6.2710706  
C    3.8047857   -0.0001359    6.0884111  
O    2.9105574   -0.0000306    7.0916040  
C    3.1990108    0.0000315    4.7241537  
O    1.9714578    0.0001548    4.6328648  
C    4.0731583   -0.0001094    3.5376504  
H    5.5885904   -0.0004607    7.2559917  
H    2.0422627    0.0001944    6.6497709  
H    3.5953009    0.0001345    2.5671442  
H    8.6789586   -0.0002642    3.4179927  
C    2.3971438    2.0127888    3.1728260  
C    1.9431056    1.6308205    1.9564670  
C    0.8496017    0.7127664    2.2356185  
C    0.7794028    0.6545384    3.7115134  
N    1.6840587    1.4146091    4.2663826  
C   -0.1885723   -0.1578550    4.3957118  
C   -1.0476298   -0.8789867    3.6398520  
O   -2.0015663   -1.6796266    4.1448486  
C   -1.0022026   -0.8410666    2.1483229  
O   -1.8147390   -1.5232959    1.5241687  
C    0.0000000    0.0000000    1.4700000  
H    2.3054237    1.9346118    0.9892483  
H   -0.2170646   -0.1815267    5.4753125  
H   -2.4487139   -2.0549881    3.3649027  
H    3.2048689    2.6911772    3.3971983  
