64

C    1.1243407    0.0100058   -0.7919007  
C    0.7474066    0.0234635   -2.1148546  
C   -0.6787393    0.0234411   -2.1414696  
C   -1.1201748    0.0098460   -0.7935545  
N    0.0000000    0.0000000    0.0000000  
C   -2.4730817    0.0063415   -0.4408239  
C   -3.3971966    0.0170578   -1.4675052  
O   -4.7313521    0.0145698   -1.1793460  
C   -2.9763662    0.0303156   -2.8186315  
O   -4.0166492    0.0394646   -3.7247614  
C   -1.6418577    0.0335069   -3.1673477  
H   -2.8160163   -0.0041447    0.5845971  
H   -5.1938830    0.0230251   -2.0274365  
H   -3.6464689    0.0481864   -4.6127337  
H   -1.3497486    0.0435711   -4.2109230  
H    2.1062462    0.0053069   -0.3505412  
C    4.5589863   -2.0910929   -2.8627792  
C    4.8001599   -1.5802651   -4.1171146  
C    3.7183222   -0.7028983   -4.4244490  
C    2.8403834   -0.7185727   -3.3104901  
N    3.3796334   -1.5729828   -2.3810763  
C    1.6628937    0.0339103   -3.2649304  
C    1.3664289    0.8167065   -4.3638009  
O    0.2293465    1.5716845   -4.3719359  
C    2.2296833    0.8453769   -5.4848657  
O    1.7957817    1.6733904   -6.4994925  
C    3.3913348    0.1030837   -5.5306119  
H    5.6505872   -1.8123915   -4.7350817  
H    2.9826847   -1.7779454   -1.4819637  
H    0.2146736    2.0340791   -5.2200169  
H    2.4348223    1.6350081   -7.2176552  
H    5.1341877   -2.7851290   -2.2742084  
C    5.6991522   -3.0338968   -7.7267431  
C    4.8903975   -2.3708896   -6.8329845  
C    4.8837931   -0.9972106   -7.2171227  
C    5.7132042   -0.8811736   -8.3619111  
N    6.1937902   -2.1359237   -8.6434361  
C    5.9384354    0.3357434   -9.0124280  
C    5.3147825    1.4558763   -8.4980964  
O    5.5000061    2.6694710   -9.0946642  
C    4.4838342    1.3603920   -7.3565075  
O    3.9351500    2.5644997   -6.9661046  
C    4.2614041    0.1602479   -6.7140867  
H    4.3701748   -2.8216718   -6.0052421  
H    6.8013215   -2.3664746   -9.4087684  
H    6.5695677    0.4308640   -9.8852543  
H    4.9831527    3.3063462   -8.5842558  
H    3.3884141    2.4119834   -6.1893019  
H    5.9634394   -4.0760380   -7.7819977  
C    2.5528530    2.1414826    2.8079335  
C    2.0663498    1.7338582    4.0032312  
C    0.9804344    0.8229586    3.6752840  
C    0.9495562    0.7966882    2.1971295  
N    1.8690446    1.5676019    1.6831036  
C    0.0000000    0.0000000    1.4700000  
C   -0.8785127   -0.7372425    2.1869543  
O   -1.8187535   -1.5261249    1.6395491  
C   -0.8723269   -0.7321790    3.6796354  
O   -1.7010379   -1.4274584    4.2670412  
C    0.1115397    0.0933559    4.4024240  
H    2.4028853    2.0163452    4.9860947  
H   -2.2861435   -1.9184361    2.3990168  
H    0.0832434    0.0693689    5.4835595  
H    3.3664920    2.8238276    2.6198634  
