62

C    3.3003549    0.0005277   -1.4738979  
C    2.5232818    0.0003498   -2.6090742  
C    1.1623206   -0.0001318   -2.1820097  
C    1.1711888    0.0000584   -0.7636136  
N    2.4852303   -0.0014919   -0.3662352  
C    0.0000000    0.0000000    0.0000000  
C   -1.2020383    0.0000520   -0.6806483  
O   -2.3759247    0.0003494    0.0157743  
C   -1.2314650   -0.0005110   -2.0955506  
O   -2.5054387   -0.0008035   -2.6250181  
C   -0.0764514   -0.0007271   -2.8495192  
H    2.8036265    0.0088182    0.5858672  
H   -3.0835638    0.0000350   -0.6418812  
H   -2.4360039   -0.0011527   -3.5845922  
H   -0.1304089   -0.0013419   -3.9319085  
H    4.3715552    0.0004895   -1.3667127  
C    5.9339396   -2.1239631   -4.5697795  
C    5.0139152   -1.6613192   -3.6576490  
C    4.1430867   -0.7747004   -4.3577672  
C    4.5843189   -0.7357738   -5.7052559  
N    5.6745648   -1.5647288   -5.7991413  
C    3.9561309    0.0394408   -6.6846489  
C    2.8624156    0.7887789   -6.2967603  
O    2.2114282    1.5633306   -7.2128926  
C    2.4073422    0.7634327   -4.9569532  
O    1.3072166    1.5639368   -4.7283482  
C    3.0267440   -0.0008949   -3.9901693  
H    4.9758715   -1.9289914   -2.6155851  
H    4.2876080    0.0735629   -7.7133177  
H    1.4889949    1.9966213   -6.7400143  
H    1.0643865    1.4893958   -3.8004040  
H    6.7555157   -2.8075032   -4.4403779  
C    7.3597384   -5.2899770   -7.3058643  
C    7.9346778   -4.8941787   -8.4653327  
C    7.6666785   -3.4666910   -8.5487309  
C    6.8984054   -3.1594871   -7.3231839  
N    6.7154441   -4.2243518   -6.5906692  
C    6.4360484   -1.8312721   -7.0279611  
C    6.7282587   -0.8542879   -7.9164707  
O    6.3598482    0.4296102   -7.7684158  
C    7.5021263   -1.1326407   -9.1621865  
O    7.7316140   -0.1950498   -9.9260452  
C    7.9652950   -2.5033430   -9.4424983  
H    8.4741082   -5.4965026   -9.1761746  
H    6.7111861    0.8809055   -8.5571157  
H    8.5229367   -2.6635372  -10.3555175  
H    7.3359286   -6.2807655   -6.8807241  
C    2.3971438    2.0127888    3.1728260  
C    1.9431056    1.6308205    1.9564670  
C    0.8496017    0.7127664    2.2356185  
C    0.7794028    0.6545384    3.7115134  
N    1.6840587    1.4146091    4.2663826  
C   -0.1885723   -0.1578550    4.3957118  
C   -1.0476298   -0.8789867    3.6398520  
O   -2.0015663   -1.6796266    4.1448486  
C   -1.0022026   -0.8410666    2.1483229  
O   -1.8147390   -1.5232959    1.5241687  
C    0.0000000    0.0000000    1.4700000  
H    2.3054237    1.9346118    0.9892483  
H   -0.2170646   -0.1815267    5.4753125  
H   -2.4487139   -2.0549881    3.3649027  
H    3.2048689    2.6911772    3.3971983  
