58

C    3.2573665   -0.0002918   -1.5109388  
C    2.5379466   -0.0001710   -0.3591966  
C    1.1435040    0.0000335   -0.7338503  
C    1.1092603   -0.0000076   -2.2088478  
N    2.4227558    0.0001914   -2.6182613  
C   -0.0265538   -0.0002516   -2.9515662  
C   -1.3003041   -0.0002634   -2.2514980  
O   -2.3786785   -0.0004126   -2.8306424  
C   -1.2877729    0.0000315   -0.6895604  
O   -2.3539958    0.0003310   -0.0892033  
C    0.0000000    0.0000000    0.0000000  
H    2.9384089   -0.0000368    0.6389231  
H    4.3270390   -0.0004762   -1.6439448  
H    2.7280488   -0.0013401   -3.5742116  
C    2.4624159   -2.0918857   -5.9392958  
C    1.9141434   -1.6298141   -4.7860562  
C    0.8439976   -0.7345865   -5.1577959  
C    0.8135178   -0.7128492   -6.6327158  
N    1.8196243   -1.5559191   -7.0448722  
C   -0.0596554    0.0159622   -7.3730584  
C   -1.0343397    0.8337045   -6.6703323  
O   -1.8629443    1.5257407   -7.2472220  
C   -1.0200979    0.8261120   -5.1084280  
O   -1.8357413    1.5108621   -4.5058467  
C   -0.0307360   -0.0004637   -4.4215603  
H    2.2241300   -1.8866333   -3.7887769  
H   -0.0651900    0.0176607   -8.4542043  
H    2.0500099   -1.7532061   -8.0014533  
C    4.3169230   -3.6433559   -5.1693180  
C    3.5802702   -3.0285210   -6.1237291  
C    4.1348790   -3.4960206   -7.3848214  
C    5.2287475   -4.4112430   -6.9944320  
N    5.3401784   -4.5016695   -5.6969745  
C    6.0369120   -5.0904840   -7.9694131  
C    5.7644280   -4.8659378   -9.2750418  
O    6.4379664   -5.4325741  -10.2905758  
C    4.6668600   -3.9482003   -9.7007937  
O    4.4751457   -3.7908396  -10.9064888  
C    3.8519885   -3.2631672   -8.6816570  
H    6.8298833   -5.7536067   -7.6557661  
H    6.0154685   -5.0811060  -11.0950131  
H    3.0664475   -2.6066062   -9.0310616  
H    4.2197508   -3.5594781   -4.0985728  
C    2.5528530    2.1414826    2.8079335  
C    2.0663498    1.7338582    4.0032312  
C    0.9804344    0.8229586    3.6752840  
C    0.9495562    0.7966882    2.1971295  
N    1.8690446    1.5676019    1.6831036  
C    0.0000000    0.0000000    1.4700000  
C   -0.8785127   -0.7372425    2.1869543  
O   -1.8187535   -1.5261249    1.6395491  
C   -0.8723269   -0.7321790    3.6796354  
O   -1.7010379   -1.4274584    4.2670412  
C    0.1115397    0.0933559    4.4024240  
H    2.4028853    2.0163452    4.9860947  
H   -2.2861435   -1.9184361    2.3990168  
H    0.0832434    0.0693689    5.4835595  
H    3.3664920    2.8238276    2.6198634  
