58

C    2.4782024   -2.1081877   -5.8783640  
C    1.9212517   -1.6438942   -7.0265418  
C    0.8545985   -0.7486152   -6.6450159  
C    0.8356632   -0.7292244   -5.1698698  
N    1.8439055   -1.5742005   -4.7669395  
C   -0.0307352   -0.0004646   -4.4215603  
C   -1.0100800    0.8193481   -5.1153371  
O   -1.8333384    1.5114170   -4.5308826  
C   -1.0083720    0.8138721   -6.6773144  
O   -1.8284254    1.4999046   -7.2724045  
C   -0.0251095   -0.0124249   -7.3732162  
H   -0.0304433   -0.0104842   -8.4547392  
H    3.2985200   -2.7956865   -5.7506349  
H    2.0835083   -1.7709324   -3.8125107  
C    2.7119807   -3.2582995   -8.8172980  
C    3.0381726   -3.2526968  -10.1354948  
C    2.8635316   -1.8990522  -10.6066452  
C    2.4056010   -1.1108349   -9.4465580  
N    2.3337835   -1.9933446   -8.3935105  
C    2.1283118    0.2171955   -9.4804803  
C    2.2915801    0.9168804  -10.7439351  
O    2.0672386    2.1128296  -10.8768873  
C    2.7752680    0.1019057  -11.9855740  
O    2.9160829    0.6801400  -13.0547223  
C    3.0427392   -1.3251779  -11.8251241  
H    3.3637747   -4.1001517  -10.7120523  
H    1.7936972    0.7766430   -8.6179476  
H    3.3774908   -1.8822291  -12.6896231  
H    2.7158533   -4.0801398   -8.1198370  
C    3.2573670   -0.0002920   -1.5109380  
C    2.5379468   -0.0001709   -0.3591961  
C    1.1435043    0.0000332   -0.7338500  
C    1.1092609   -0.0000082   -2.2088477  
N    2.4227562    0.0001909   -2.6182613  
C   -0.0265532   -0.0002522   -2.9515663  
C   -1.3003035   -0.0002639   -2.2514981  
O   -2.3786784   -0.0004131   -2.8306429  
C   -1.2877725    0.0000312   -0.6895608  
O   -2.3539958    0.0003307   -0.0892036  
C    0.0000000    0.0000000    0.0000000  
H    2.9384091   -0.0000369    0.6389239  
H    4.3270394   -0.0004765   -1.6439446  
H    2.7280494   -0.0013406   -3.5742113  
C    0.0000000    0.0000000    1.4700000  
C    1.0662921    0.0000102    2.3034270  
C    0.4961870   -0.0000064    3.6418889  
C   -0.9663858    0.0000850    3.4240247  
N   -1.2632773    0.0000084    2.1528658  
C   -1.8985362    0.0000517    4.5177257  
C   -1.3925775   -0.0004564    5.7720543  
O   -2.1456383   -0.0005410    6.8851312  
C    0.0786232   -0.0009323    6.0245000  
O    0.4683759   -0.0012588    7.1921102  
C    1.0143166   -0.0008442    4.8859032  
H    2.1107198   -0.0000632    2.0421868  
H   -2.9622183    0.0003270    4.3293377  
H   -1.5042274   -0.0009692    7.6184419  
H    2.0724152   -0.0013148    5.1109744  
