58

C   -0.4802711    0.9857811   -0.8010307  
C    0.0000000    0.0000000    0.0000000  
C    0.5054593   -1.0381436   -0.8669512  
C    0.2786963   -0.5730227   -2.2486276  
N   -0.3221835    0.6598297   -2.1395012  
C    0.6193683   -1.2719945   -3.3608712  
C    1.2513596   -2.5690484   -3.1854454  
O    1.5952949   -3.2748851   -4.1244896  
C    1.5009086   -3.0814944   -1.7311656  
O    2.0319954   -4.1721624   -1.5710047  
C    1.0900432   -2.2378240   -0.6116736  
H    1.2665498   -2.5998089    0.3920871  
H   -0.9365921    1.9228562   -0.5261649  
H   -0.6009070    1.2351724   -2.9130264  
C    0.9361268    2.6671826   -5.4216936  
C    0.9751154    1.7162018   -4.4595631  
C    0.5511846    0.4931802   -5.1236416  
C    0.2885409    0.8995831   -6.5209383  
N    0.5125333    2.1728274   -6.7016765  
C   -0.1572509   -0.0376402   -7.5149045  
C   -0.3323168   -1.3225335   -7.1305409  
O   -0.7442602   -2.3024424   -7.9528075  
C   -0.0752818   -1.7637263   -5.7278851  
O   -0.2556996   -2.9489323   -5.4486778  
C    0.3813567   -0.7833918   -4.7267105  
H    1.2568547    1.8305174   -3.4267849  
H   -0.3416963    0.2870255   -8.5285527  
H   -0.7728079   -3.0997147   -7.3936160  
C    2.2804287    4.9483078   -1.9609396  
C    2.4156334    6.1928753   -2.4750894  
C    2.0396020    6.0634693   -3.8745019  
C    1.6967195    4.6343468   -4.0376744  
N    1.8359088    3.9756379   -2.9193191  
C    1.2682622    4.0938498   -5.2983778  
C    1.1857101    4.9425464   -6.3482511  
O    0.8004433    4.5748571   -7.5821125  
C    1.5245816    6.3901796   -6.2152731  
O    1.4267689    7.1044397   -7.2130135  
C    1.9616553    6.9204807   -4.9115580  
H    2.7314410    7.0881863   -1.9673896  
H    0.8418672    5.3932903   -8.1089935  
H    2.1978446    7.9747285   -4.8567227  
H    2.4640256    4.6243033   -0.9488691  
C    2.5528530    2.1414826    2.8079335  
C    2.0663498    1.7338582    4.0032312  
C    0.9804344    0.8229586    3.6752840  
C    0.9495562    0.7966882    2.1971295  
N    1.8690446    1.5676019    1.6831036  
C    0.0000000    0.0000000    1.4700000  
C   -0.8785127   -0.7372425    2.1869543  
O   -1.8187535   -1.5261249    1.6395491  
C   -0.8723269   -0.7321790    3.6796354  
O   -1.7010379   -1.4274584    4.2670412  
C    0.1115397    0.0933559    4.4024240  
H    2.4028853    2.0163452    4.9860947  
H   -2.2861435   -1.9184361    2.3990168  
H    0.0832434    0.0693689    5.4835595  
H    3.3664920    2.8238276    2.6198634  
