58

C    3.2798084    0.0005857   -1.4499650  
C    2.5571145    0.0005565   -2.5996555  
C    1.1637431    0.0001547   -2.2210362  
C    1.1336964   -0.0000201   -0.7459470  
N    2.4483511   -0.0001428   -0.3402722  
C    0.0000000    0.0000000    0.0000000  
C   -1.2757364   -0.0000188   -0.6964414  
O   -2.3524599   -0.0000641   -0.1142312  
C   -1.2676496   -0.0000874   -2.2584080  
O   -2.3355771   -0.0004102   -2.8557293  
C    0.0181558    0.0001758   -2.9516296  
H    2.9547349    0.0006075   -3.5989105  
H    0.0150787    0.0003317   -4.0331627  
H    2.7563626    0.0012824    0.6148060  
C    6.5739154    0.0018722   -4.3537893  
C    7.6280843    0.0019471   -3.4977501  
C    7.0842295    0.0017738   -2.1601936  
C    5.6162782    0.0015612   -2.3082161  
N    5.3720695    0.0020316   -3.6621922  
C    4.7390846    0.0009614   -1.2727282  
C    5.2766310    0.0007201    0.0776712  
O    4.5688487    0.0002470    1.0763428  
C    6.8281781    0.0011908    0.2579680  
O    7.2923833    0.0012996    1.3901228  
C    7.6713711    0.0015461   -0.9348765  
H    8.6679906    0.0022879   -3.7719914  
H    6.5739152    0.0019307   -5.4316990  
H    4.4610961    0.0004681   -4.0831100  
C   11.1154597    2.0152629   -2.9217431  
C    9.8524243    1.6330509   -2.6213509  
C    9.9946403    0.7147642   -1.5019653  
C   11.4506024    0.6566823   -1.2502013  
N   12.1127528    1.4170322   -2.0793053  
C   12.0102441   -0.1558687   -0.2053816  
C   11.1542601   -0.8772910    0.5536807  
O   11.5377998   -1.6781049    1.5624596  
C    9.6797291   -0.8395247    0.3245652  
O    8.9601788   -1.5220187    1.0537221  
C    9.1301375    0.0017085   -0.7534890  
H    8.9372625    1.9368226   -3.1001794  
H   13.0780825   -0.1794280   -0.0438972  
H   10.7086914   -2.0536603    1.9098656  
H   11.4376898    2.6938707   -3.6954565  
C    0.0000000    0.0000000    1.4700000  
C    1.0662921    0.0000102    2.3034270  
C    0.4961870   -0.0000064    3.6418889  
C   -0.9663858    0.0000850    3.4240247  
N   -1.2632773    0.0000084    2.1528658  
C   -1.8985362    0.0000517    4.5177257  
C   -1.3925775   -0.0004564    5.7720543  
O   -2.1456383   -0.0005410    6.8851312  
C    0.0786232   -0.0009323    6.0245000  
O    0.4683759   -0.0012588    7.1921102  
C    1.0143166   -0.0008442    4.8859032  
H    2.1107198   -0.0000632    2.0421868  
H   -2.9622183    0.0003270    4.3293377  
H   -1.5042274   -0.0009692    7.6184419  
H    2.0724152   -0.0013148    5.1109744  
