58

C    4.5939381   -2.1037474   -2.7696731  
C    4.8996526   -1.6376004   -4.0079464  
C    3.8355762   -0.7416512   -4.3950539  
C    2.8780294   -0.7238870   -3.2727447  
N    3.3957275   -1.5703487   -2.3196544  
C    1.7334695    0.0049281   -3.2500363  
C    1.4239149    0.8265213   -4.4083527  
O    0.4172712    1.5187838   -4.4841266  
C    2.4237222    0.8227861   -5.6084260  
O    2.1735665    1.5103256   -6.5892282  
C    3.6246410   -0.0037448   -5.5162756  
H    5.7710262   -1.8924544   -4.5844616  
H    4.3119032   -0.0005917   -6.3513713  
H    2.9698476   -1.7683917   -1.4328326  
C    5.3427993   -3.0426677   -1.9220083  
C    6.5208676   -3.6697982   -2.1728826  
C    6.8194472   -4.4826947   -1.0175105  
C    5.7107973   -4.2762861   -0.0661525  
N    4.8493662   -3.3925312   -0.6742668  
C    5.6206732   -4.8711440    1.1502872  
C    6.6868449   -5.7748265    1.5492508  
O    6.6972577   -6.3590025    2.6248573  
C    7.8708989   -6.0080298    0.5575663  
O    8.7744403   -6.7664586    0.8826207  
C    7.8568056   -5.3102636   -0.7257011  
H    7.1132013   -3.5737491   -3.0653677  
H    4.7987641   -4.7061902    1.8330501  
H    8.6802159   -5.4773177   -1.4067395  
H    3.9930161   -3.0553726   -0.2742223  
C    1.1319246    0.0015678   -0.8009268  
C    0.7969914    0.0034958   -2.1169401  
C   -0.6453340    0.0035696   -2.1842669  
C   -1.1266832    0.0015410   -0.7896025  
N    0.0000000    0.0000000    0.0000000  
C   -2.4346129    0.0013913   -0.4276292  
C   -3.4350111    0.0031335   -1.4820181  
O   -4.6384614    0.0030875   -1.2583914  
C   -2.9478961    0.0050442   -2.9661074  
O   -3.7809382    0.0062135   -3.8623773  
C   -1.5113825    0.0053055   -3.2312122  
H   -2.7664565    0.0000174    0.6013448  
H   -1.1823533    0.0068381   -4.2614848  
H    2.1104316    0.0009435   -0.3488059  
C    2.5528530    2.1414826    2.8079335  
C    2.0663498    1.7338582    4.0032312  
C    0.9804344    0.8229586    3.6752840  
C    0.9495562    0.7966882    2.1971295  
N    1.8690446    1.5676019    1.6831036  
C    0.0000000    0.0000000    1.4700000  
C   -0.8785127   -0.7372425    2.1869543  
O   -1.8187535   -1.5261249    1.6395491  
C   -0.8723269   -0.7321790    3.6796354  
O   -1.7010379   -1.4274584    4.2670412  
C    0.1115397    0.0933559    4.4024240  
H    2.4028853    2.0163452    4.9860947  
H   -2.2861435   -1.9184361    2.3990168  
H    0.0832434    0.0693689    5.4835595  
H    3.3664920    2.8238276    2.6198634  
