60

C    0.3821150    3.2819571   -1.5420439  
C    0.2994622    2.5671295   -0.3695860  
C    0.1392835    1.1959169   -0.7283591  
C    0.1315378    1.1346380   -2.1454375  
N    0.2790790    2.4188181   -2.6077471  
C   -0.0084536   -0.0649774   -2.8497918  
C   -0.1427734   -1.2238780   -2.1101399  
O   -0.2822983   -2.4228917   -2.7472514  
C   -0.1377922   -1.1831242   -0.6955258  
O   -0.2817073   -2.4208175   -0.1032850  
C    0.0000000    0.0000000    0.0000000  
H    0.3474803    2.9829831    0.6222579  
H   -0.0152821   -0.1183828   -3.9297468  
H   -0.3600924   -3.0924044   -2.0551776  
H   -0.2679838   -2.3044988    0.8516418  
H    0.5049762    4.3393785   -1.7024304  
C    2.6568012    5.3371762   -4.9939710  
C    2.1806098    4.6204336   -3.9494130  
C    1.1665189    3.7494312   -4.5234113  
C    1.1616017    4.0821274   -5.9642001  
N    2.0331786    5.0121391   -6.2460176  
C    0.2820259    3.4276083   -6.8931986  
C   -0.5543358    2.4833641   -6.4051043  
O   -1.4280894    1.7932114   -7.1576238  
C   -0.5728012    2.1250284   -4.9561682  
O   -1.3603168    1.2561348   -4.5819176  
C    0.3390501    2.8107133   -4.0232756  
H    2.4805382    4.6758744   -2.9169185  
H    0.2995978    3.6907636   -7.9407439  
H   -1.8791982    1.1986814   -6.5313746  
C    3.7021616    6.3705973   -4.9811897  
C    4.4262016    6.8429213   -3.9339311  
C    5.3178738    7.8500582   -4.4587450  
C    5.0520382    7.9263342   -5.9079874  
N    4.0627740    7.0041760   -6.1607134  
C    5.6921650    8.7623402   -6.7641624  
C    6.7111015    9.6458184   -6.2221557  
O    7.3436472   10.4350604   -6.9115626  
C    7.0092042    9.5817885   -4.6902157  
O    7.8651606   10.3206045   -4.2225072  
C    6.2532846    8.6395099   -3.8689069  
H    4.3450492    6.5222572   -2.9106018  
H    5.4819801    8.8026359   -7.8239300  
H    6.4655653    8.6015038   -2.8090875  
H    3.6627924    6.8211953   -7.0627006  
C    0.0000000    0.0000000    1.4700000  
C    1.0662921    0.0000102    2.3034270  
C    0.4961870   -0.0000064    3.6418889  
C   -0.9663858    0.0000850    3.4240247  
N   -1.2632773    0.0000084    2.1528658  
C   -1.8985362    0.0000517    4.5177257  
C   -1.3925775   -0.0004564    5.7720543  
O   -2.1456383   -0.0005410    6.8851312  
C    0.0786232   -0.0009323    6.0245000  
O    0.4683759   -0.0012588    7.1921102  
C    1.0143166   -0.0008442    4.8859032  
H    2.1107198   -0.0000632    2.0421868  
H   -2.9622183    0.0003270    4.3293377  
H   -1.5042274   -0.0009692    7.6184419  
H    2.0724152   -0.0013148    5.1109744  
