58

C   -3.2573665   -0.0002836   -1.5109386  
C   -2.5379465   -0.0002775   -0.3591966  
C   -1.1435037   -0.0002352   -0.7338501  
C   -1.1092601   -0.0001878   -2.2088478  
N   -2.4227552   -0.0006191   -2.6182611  
C    0.0265540    0.0002570   -2.9515662  
C    1.3003046    0.0004937   -2.2514972  
O    2.3786792    0.0008335   -2.8306420  
C    1.2877729    0.0001963   -0.6895602  
O    2.3539955    0.0000853   -0.0892027  
C    0.0000000    0.0000000    0.0000000  
H   -2.9384088   -0.0004824    0.6389232  
H    0.0296304    0.0004136   -4.0327228  
H   -2.7280484    0.0008586   -3.5742115  
C   -6.6174605   -0.0028031    1.3537068  
C   -5.3857490   -0.0023010    0.7819015  
C   -5.5854749   -0.0013085   -0.6481138  
C   -7.0449748   -0.0012439   -0.8641003  
N   -7.6133362   -0.0025734    0.3888377  
C   -7.6418659   -0.0000270   -2.0828801  
C   -6.7899758    0.0010821   -3.2605116  
O   -7.2316297    0.0021555   -4.4021077  
C   -5.2415211    0.0007827   -3.0553444  
O   -4.5141873    0.0014019   -4.0393394  
C   -4.7161327   -0.0002898   -1.6923267  
H   -4.4446709   -0.0027752    1.3024643  
H   -8.7143810    0.0001273   -2.2193395  
H   -8.5996523   -0.0013082    0.5738412  
C   -6.1465101   -0.0042121    3.8471636  
C   -6.9774636   -0.0038056    2.7789426  
C   -8.3172431   -0.0044301    3.3459436  
C   -8.1027695   -0.0053100    4.8090173  
N   -6.8323021   -0.0051058    5.1088545  
C   -9.1986278   -0.0060682    5.7386296  
C  -10.4517807   -0.0055638    5.2297660  
O  -11.5665996   -0.0061726    5.9802446  
C  -10.7008163   -0.0043026    3.7579841  
O  -11.8675189   -0.0040262    3.3655268  
C   -9.5600533   -0.0035866    2.8249328  
H   -9.0127054   -0.0069100    6.8027451  
H  -12.2984224   -0.0055481    5.3371361  
H   -9.7826718   -0.0025613    1.7663155  
H   -5.0681006   -0.0039593    3.8496627  
C    2.3971438    2.0127888    3.1728260  
C    1.9431056    1.6308205    1.9564670  
C    0.8496017    0.7127664    2.2356185  
C    0.7794028    0.6545384    3.7115134  
N    1.6840587    1.4146091    4.2663826  
C   -0.1885723   -0.1578550    4.3957118  
C   -1.0476298   -0.8789867    3.6398520  
O   -2.0015663   -1.6796266    4.1448486  
C   -1.0022026   -0.8410666    2.1483229  
O   -1.8147390   -1.5232959    1.5241687  
C    0.0000000    0.0000000    1.4700000  
H    2.3054237    1.9346118    0.9892483  
H   -0.2170646   -0.1815267    5.4753125  
H   -2.4487139   -2.0549881    3.3649027  
H    3.2048689    2.6911772    3.3971983  
