58

C    6.6317361    0.0027576   -4.3241621  
C    5.4016570    0.0020952   -3.7488541  
C    5.6054515    0.0015083   -2.3194126  
C    7.0655601    0.0019149   -2.1075800  
N    7.6303533    0.0022712   -3.3621311  
C    7.6659163    0.0019589   -0.8905033  
C    6.8173812    0.0013544    0.2895489  
O    7.2622824    0.0012815    1.4298835  
C    5.2683493    0.0006644    0.0887878  
O    4.5438183   -0.0001546    1.0748482  
C    4.7390840    0.0009613   -1.2727298  
H    4.4591015    0.0018433   -4.2667371  
H    8.7388160    0.0023904   -0.7570959  
H    8.6161382    0.0041519   -3.5499387  
C    4.1931104    0.0012528   -8.0051309  
C    4.6122390    0.0012606   -6.7134633  
C    6.0559024    0.0027225   -6.7393163  
C    6.4462831    0.0036012   -8.1621281  
N    5.2710121    0.0022470   -8.8774089  
C    7.7281376    0.0054400   -8.6077169  
C    8.7944675    0.0064072   -7.6200567  
O    9.9809847    0.0080020   -7.9208477  
C    8.4041023    0.0052503   -6.1076349  
O    9.2932245    0.0057428   -5.2669676  
C    6.9876823    0.0035562   -5.7504164  
H    3.9820094    0.0001641   -5.8420142  
H    7.9929134    0.0061867   -9.6559563  
H    3.1874770    0.0003878   -8.3931910  
H    5.2062765    0.0039777   -9.8788346  
C    3.2798077    0.0005856   -1.4499661  
C    2.5571132    0.0005565   -2.5996564  
C    1.1637425    0.0001547   -2.2210366  
C    1.1336959   -0.0000200   -0.7459475  
N    2.4483509   -0.0001429   -0.3402730  
C    0.0000000    0.0000000    0.0000000  
C   -1.2757370   -0.0000187   -0.6964411  
O   -2.3524597   -0.0000640   -0.1142306  
C   -1.2676502   -0.0000874   -2.2584078  
O   -2.3355774   -0.0004102   -2.8557287  
C    0.0181551    0.0001758   -2.9516297  
H    2.9547342    0.0006074   -3.5989118  
H    0.0150776    0.0003317   -4.0331632  
H    2.7563626    0.0012823    0.6148051  
C    2.3971438    2.0127888    3.1728260  
C    1.9431056    1.6308205    1.9564670  
C    0.8496017    0.7127664    2.2356185  
C    0.7794028    0.6545384    3.7115134  
N    1.6840587    1.4146091    4.2663826  
C   -0.1885723   -0.1578550    4.3957118  
C   -1.0476298   -0.8789867    3.6398520  
O   -2.0015663   -1.6796266    4.1448486  
C   -1.0022026   -0.8410666    2.1483229  
O   -1.8147390   -1.5232959    1.5241687  
C    0.0000000    0.0000000    1.4700000  
H    2.3054237    1.9346118    0.9892483  
H   -0.2170646   -0.1815267    5.4753125  
H   -2.4487139   -2.0549881    3.3649027  
H    3.2048689    2.6911772    3.3971983  
