60

C    3.3041274    0.0001176   -1.5420427  
C    2.5845368   -0.0004777   -0.3695848  
C    1.2040006   -0.0000008   -0.7283587  
C    1.1422377    0.0006035   -2.1454373  
N    2.4348642    0.0026109   -2.6077463  
C   -0.0655180    0.0008795   -2.8497918  
C   -1.2321768    0.0002321   -2.1101401  
O   -2.4392812    0.0001141   -2.7472520  
C   -1.1911212   -0.0000008   -0.6955262  
O   -2.4371527   -0.0002321   -0.1032859  
C    0.0000000    0.0000000    0.0000000  
H    3.0031534   -0.0000658    0.6222587  
H   -0.1193545    0.0014840   -3.9297470  
H   -3.1132985   -0.0000653   -2.0551791  
H   -2.3200283   -0.0004073    0.8516408  
H    4.3686625    0.0004072   -1.7024288  
C    3.8594214   -0.7175076   -4.5601987  
C    2.8310669   -0.0116223   -4.0232750  
C    2.2094032    0.7153299   -5.1048990  
C    2.9652793    0.3726183   -6.3247306  
N    3.9521602   -0.4993328   -5.9264121  
C    2.6888649    0.8568052   -7.5620112  
C    1.5725237    1.7770481   -7.7015487  
O    1.2438412    2.2678069   -8.7736608  
C    0.7583127    2.1540909   -6.4229929  
O   -0.1835058    2.9281698   -6.5280650  
C    1.1517641    1.5673730   -5.1443962  
H    0.5827559    1.8333879   -4.2639477  
H    4.5574579   -1.3785738   -4.0727301  
H    4.6334395   -0.9149355   -6.5348364  
C    3.9439748   -0.7687141   -9.0522289  
C    4.6170153   -0.7730790  -10.2316663  
C    4.5720786    0.5749706  -10.7470093  
C    3.8122650    1.3707674   -9.7640638  
N    3.4596575    0.4975375   -8.7610551  
C    3.5495179    2.6965476   -9.8864392  
C    4.0481680    3.3856362  -11.0650145  
O    3.8638674    4.5787856  -11.2668301  
C    4.8550920    2.5625047  -12.1191173  
O    5.2796637    3.1317914  -13.1155666  
C    5.0742998    1.1387783  -11.8766247  
H    5.0907250   -1.6236167  -10.6886115  
H    2.9903338    3.2616715   -9.1537328  
H    5.6341436    0.5760329  -12.6112121  
H    3.7608544   -1.5840495   -8.3713585  
C    0.0000000    0.0000000    1.4700000  
C    1.0662921    0.0000102    2.3034270  
C    0.4961870   -0.0000064    3.6418889  
C   -0.9663858    0.0000850    3.4240247  
N   -1.2632773    0.0000084    2.1528658  
C   -1.8985362    0.0000517    4.5177257  
C   -1.3925775   -0.0004564    5.7720543  
O   -2.1456383   -0.0005410    6.8851312  
C    0.0786232   -0.0009323    6.0245000  
O    0.4683759   -0.0012588    7.1921102  
C    1.0143166   -0.0008442    4.8859032  
H    2.1107198   -0.0000632    2.0421868  
H   -2.9622183    0.0003270    4.3293377  
H   -1.5042274   -0.0009692    7.6184419  
H    2.0724152   -0.0013148    5.1109744  
