58

C    1.0965514    0.0001358   -0.8010306  
C    0.0000000    0.0000000    0.0000000  
C   -1.1546563    0.0001469   -0.8669509  
C   -0.6372022    0.0003521   -2.2486280  
N    0.7342868    0.0007339   -2.1395012  
C   -1.4147750    0.0001354   -3.3608711  
C   -2.8576060   -0.0001044   -3.1854453  
O   -3.6427790   -0.0002492   -4.1244898  
C   -3.4275848   -0.0000724   -1.7311655  
O   -4.6406836    0.0000336   -1.5710048  
C   -2.4891872   -0.0001088   -0.6116739  
H   -1.0150456    0.0001618   -4.3654240  
H   -2.8919117   -0.0002917    0.3920867  
H    2.1388271    0.0000661   -0.5261648  
C    4.4892970   -2.1441339   -2.6751667  
C    4.8760700   -1.7381811   -3.9069086  
C    3.8307835   -0.8270017   -4.3469398  
C    2.8653297   -0.7987567   -3.2272588  
N    3.2460493   -1.5688475   -2.2444047  
C    1.6707635   -0.0012343   -3.2725975  
C    1.4508812    0.7349196   -4.3857298  
O    0.3779849    1.5243969   -4.5636594  
C    2.4065718    0.7278584   -5.5323626  
O    2.1425163    1.4222296   -6.5138631  
C    3.6247981   -0.0984999   -5.4617876  
H    0.5018301    1.9156225   -5.4472639  
H    4.2917519   -0.0759645   -6.3131955  
H    4.9961447   -2.8261076   -2.0110957  
C    6.9323711   -5.5953301   -4.3280615  
C    7.9538702   -5.2179948   -5.1393769  
C    7.7889604   -3.8065422   -5.3951948  
C    6.5789939   -3.3895123   -4.6611257  
N    6.1069354   -4.5202585   -4.0354555  
C    6.0849166   -2.1256196   -4.6481784  
C    6.7919099   -1.1081769   -5.4081165  
O    6.4264473    0.0589107   -5.4595349  
C    8.0754954   -1.5274827   -6.1932260  
O    8.6789329   -0.6796158   -6.8368452  
C    8.5103615   -2.9206178   -6.1306248  
H    8.7337751   -5.8556794   -5.5158317  
H    9.4001659   -3.2027413   -6.6768652  
H    6.7130139   -6.5683811   -3.9194738  
H    5.2899064   -4.5582027   -3.4540165  
C    0.0000000    0.0000000    1.4700000  
C    1.0662921    0.0000102    2.3034270  
C    0.4961870   -0.0000064    3.6418889  
C   -0.9663858    0.0000850    3.4240247  
N   -1.2632773    0.0000084    2.1528658  
C   -1.8985362    0.0000517    4.5177257  
C   -1.3925775   -0.0004564    5.7720543  
O   -2.1456383   -0.0005410    6.8851312  
C    0.0786232   -0.0009323    6.0245000  
O    0.4683759   -0.0012588    7.1921102  
C    1.0143166   -0.0008442    4.8859032  
H    2.1107198   -0.0000632    2.0421868  
H   -2.9622183    0.0003270    4.3293377  
H   -1.5042274   -0.0009692    7.6184419  
H    2.0724152   -0.0013148    5.1109744  
