60

C    1.1188649    0.0008232   -0.8003809  
C    0.0000000    0.0000000    0.0000000  
C   -1.1323859    0.0008897   -0.8673532  
C   -0.6382652    0.0019680   -2.1969285  
N    0.7324027    0.0038490   -2.1202241  
C   -1.4770899    0.0027316   -3.3154819  
C   -2.8395467    0.0020934   -3.0876869  
O   -3.7039184    0.0024412   -4.1440363  
C   -3.3517862    0.0013915   -1.7684344  
O   -4.7300486    0.0012343   -1.7073138  
C   -2.5248541    0.0009111   -0.6644828  
H   -1.1067551    0.0036988   -4.3313816  
H   -4.5940015    0.0021809   -3.7685148  
H   -4.9934595    0.0007235   -0.7819932  
H   -2.9462574    0.0005586    0.3339641  
H    2.1619898    0.0009369   -0.5342063  
C    2.8054217   -0.6982259   -3.4042816  
C    1.6478447   -0.0100084   -3.2702996  
C    1.4994882    0.7211756   -4.5192433  
C    2.6893854    0.3473425   -5.3135843  
N    3.4585391   -0.4845268   -4.6652122  
C    2.9176258    0.8683871   -6.6332452  
C    1.9987265    1.7236973   -7.1366367  
O    2.0843858    2.2859882   -8.3542296  
C    0.7872973    2.1199535   -6.3597321  
O   -0.0071232    2.9029339   -6.8803656  
C    0.5757371    1.5718717   -5.0081505  
H    1.2880807    2.8425596   -8.4268860  
H   -0.3143090    1.8835698   -4.4781577  
H    3.2692090   -1.3626327   -2.6926366  
C    4.1129053    0.4735287   -7.3923859  
C    5.1028728   -0.3665578   -7.0105516  
C    6.0242296   -0.3966066   -8.1360285  
C    5.4186694    0.5070658   -9.1376560  
N    4.2981544    1.0201461   -8.7073261  
C    6.0349785    0.7520016  -10.4125115  
C    7.2033347    0.1230730  -10.6746661  
O    7.8878771    0.2593475  -11.8230874  
C    7.8397346   -0.7945784   -9.6841750  
O    8.9034530   -1.3331981   -9.9901367  
C    7.1879307   -1.0295445   -8.3834573  
H    5.1963887   -0.8999050   -6.0800295  
H    5.5701217    1.4170956  -11.1255811  
H    8.6722182   -0.3079697  -11.7130290  
H    7.6810772   -1.7011145   -7.6935080  
C    0.0000000    0.0000000    1.4700000  
C    1.0662921    0.0000102    2.3034270  
C    0.4961870   -0.0000064    3.6418889  
C   -0.9663858    0.0000850    3.4240247  
N   -1.2632773    0.0000084    2.1528658  
C   -1.8985362    0.0000517    4.5177257  
C   -1.3925775   -0.0004564    5.7720543  
O   -2.1456383   -0.0005410    6.8851312  
C    0.0786232   -0.0009323    6.0245000  
O    0.4683759   -0.0012588    7.1921102  
C    1.0143166   -0.0008442    4.8859032  
H    2.1107198   -0.0000632    2.0421868  
H   -2.9622183    0.0003270    4.3293377  
H   -1.5042274   -0.0009692    7.6184419  
H    2.0724152   -0.0013148    5.1109744  
