60

C    1.1243405    0.0100270   -0.7919011  
C    0.7474059    0.0234779   -2.1148551  
C   -0.6787398    0.0234286   -2.1414701  
C   -1.1201753    0.0098251   -0.7935549  
N    0.0000000    0.0000000    0.0000000  
C   -2.4730820    0.0062951   -0.4408238  
C   -3.3971968    0.0169942   -1.4675055  
O   -4.7313528    0.0144810   -1.1793456  
C   -2.9763670    0.0302601   -2.8186319  
O   -4.0166500    0.0393890   -3.7247613  
C   -1.6418584    0.0334762   -3.1673481  
H    1.4178693    0.0311414   -2.9571219  
H   -2.8160168   -0.0041972    0.5845969  
H   -5.1938835    0.0229277   -2.0274373  
H   -3.6464704    0.0481183   -4.6127336  
H    2.1062462    0.0053469   -0.3505421  
C   -0.2201715   -0.6516354   -5.1344353  
C   -1.2456361    0.0471353   -4.5828766  
C   -1.8642321    0.7990473   -5.6490858  
C   -1.1097058    0.4787363   -6.8758216  
N   -0.1264542   -0.4053972   -6.4958036  
C   -1.3840484    0.9897602   -8.1027263  
C   -2.4965753    1.9173118   -8.2230091  
O   -2.8231685    2.4316773   -9.2846429  
C   -3.3092978    2.2709620   -6.9368442  
O   -4.2479088    3.0509437   -7.0257222  
C   -2.9183445    1.6560857   -5.6707739  
H   -0.8181874    0.7416387   -8.9899390  
H   -3.4863015    1.9060251   -4.7849528  
H    0.4751036   -1.3255995   -4.6608804  
C    1.3087617   -2.2841267   -7.3736051  
C    0.8690474   -0.9995833   -7.3995840  
C    1.5645669   -0.3382665   -8.4783560  
C    2.4518693   -1.3500906   -9.0830844  
N    2.2496057   -2.5075755   -8.3673976  
C    3.2778690   -1.1184183  -10.1346338  
C    3.2942261    0.2166320  -10.7090108  
O    4.0036989    0.5249914  -11.6576219  
C    2.3628558    1.3038866  -10.0843247  
O    2.3682540    2.4315676  -10.5592650  
C    1.5166776    0.9341635   -8.9524505  
H    3.9206904   -1.8747016  -10.5632664  
H    0.8745593    1.6927111   -8.5258202  
H    1.0248070   -3.0862815   -6.7119352  
H    2.7125012   -3.3807464   -8.5416008  
C    2.3971438    2.0127888    3.1728260  
C    1.9431056    1.6308205    1.9564670  
C    0.8496017    0.7127664    2.2356185  
C    0.7794028    0.6545384    3.7115134  
N    1.6840587    1.4146091    4.2663826  
C   -0.1885723   -0.1578550    4.3957118  
C   -1.0476298   -0.8789867    3.6398520  
O   -2.0015663   -1.6796266    4.1448486  
C   -1.0022026   -0.8410666    2.1483229  
O   -1.8147390   -1.5232959    1.5241687  
C    0.0000000    0.0000000    1.4700000  
H    2.3054237    1.9346118    0.9892483  
H   -0.2170646   -0.1815267    5.4753125  
H   -2.4487139   -2.0549881    3.3649027  
H    3.2048689    2.6911772    3.3971983  
