60

C    0.0000000    0.0000000    0.0000000  
C    1.0541691   -0.0001722   -0.8560385  
C    0.5103148   -0.0000454   -2.1935953  
C   -0.9576360    0.0002459   -2.0455733  
N   -1.2018453   -0.0001391   -0.6915972  
C   -1.8348299    0.0008316   -3.0810614  
C   -1.2972830    0.0009736   -4.4314610  
O   -2.0050651    0.0014265   -5.4301325  
C    0.2542642    0.0004184   -4.6117570  
O    0.7184692    0.0002257   -5.7439117  
C    1.0974567    0.0000874   -3.4189124  
H    2.0940754   -0.0005483   -0.5817975  
H   -2.1128192    0.0014911   -0.2706798  
C    3.4829134   -0.6854437   -2.8909313  
C    2.5562225   -0.0001552   -3.6002994  
C    3.3177146    0.7443541   -4.5914285  
C    4.7267869    0.3806372   -4.3291127  
N    4.8298583   -0.4572650   -3.3334794  
C    5.8086210    0.9162538   -5.1087503  
C    5.4969309    1.7758371   -6.1053949  
O    6.4051351    2.3514131   -6.9115696  
C    4.0844808    2.1621383   -6.3950779  
O    3.8744096    2.9497371   -7.3174551  
C    2.9924636    1.5991605   -5.5811501  
H    6.8289464    0.6332495   -4.8948439  
H    5.8822561    2.9077530   -7.5167430  
H    1.9830966    1.9039863   -5.8229961  
H    3.3221085   -1.3569585   -2.0625695  
C   -4.3137499    2.1424309   -0.2077349  
C   -5.5591248    1.7353206   -0.5466777  
C   -5.3648102    0.8246398   -1.6644442  
C   -3.9011708    0.7979204   -1.8733234  
N   -3.2797688    1.5684035   -1.0223211  
C   -3.2941060    0.0012872   -2.9038252  
C   -4.1120043   -0.7354738   -3.6896751  
O   -3.6822271   -1.5242483   -4.6892585  
C   -5.5930485   -0.7299496   -3.5035625  
O   -6.2763248   -1.4248023   -4.2555829  
C   -6.1916576    0.0955189   -2.4395164  
H   -6.4941456    2.0180129   -0.0940223  
H   -4.4926418   -1.9161861   -5.0617710  
H   -7.2683263    0.0718753   -2.3372610  
H   -4.0287184    2.8244774    0.5774675  
C    3.3003543   -0.0005276    2.9438989  
C    2.5232812   -0.0003497    4.0790748  
C    1.1623199    0.0001319    3.6520102  
C    1.1711883   -0.0000583    2.2336141  
N    2.4852299    0.0014920    1.8362361  
C    0.0000000    0.0000000    1.4700000  
C   -1.2020384   -0.0000520    2.1506477  
O   -2.3759250   -0.0003494    1.4542253  
C   -1.2314658    0.0005113    3.5655508  
O   -2.5054393    0.0008037    4.0950179  
C   -0.0764518    0.0007272    4.3195194  
H    2.8919952    0.0005619    5.0905303  
H    2.8036267   -0.0088181    0.8841339  
H   -3.0835639   -0.0000348    2.1118817  
H   -2.4360050    0.0011527    5.0545920  
H   -0.1304098    0.0013421    5.4019087  
H    4.3715549   -0.0004895    2.8367138  
