58

C    0.0000000    0.0000000    0.0000000  
C    1.0541692   -0.0001722   -0.8560386  
C    0.5103150   -0.0000454   -2.1935954  
C   -0.9576356    0.0002459   -2.0455736  
N   -1.2018452   -0.0001391   -0.6915975  
C   -1.8348293    0.0008316   -3.0810615  
C   -1.2972824    0.0009735   -4.4314612  
O   -2.0050651    0.0014266   -5.4301329  
C    0.2542647    0.0004185   -4.6117573  
O    0.7184698    0.0002256   -5.7439119  
C    1.0974569    0.0000873   -3.4189125  
H    2.0940756   -0.0005481   -0.5817975  
H   -2.9081034    0.0011666   -2.9507075  
H   -2.1128192    0.0014910   -0.2706800  
C    4.1988046   -2.1397334   -1.2302354  
C    5.3249615   -1.7327110   -1.8608563  
C    4.8655822   -0.8226612   -2.8987769  
C    3.3949154   -0.7961728   -2.7470484  
N    2.9982287   -1.5662363   -1.7705080  
C    2.5562231   -0.0001550   -3.6002995  
C    3.1593416    0.7362381   -4.5611886  
O    2.5001490    1.5244282   -5.4273658  
C    4.6413781    0.7309336   -4.7392315  
O    5.1220808    1.4254263   -5.6346787  
C    5.4799945   -0.0939017   -3.8513723  
H    6.3418228   -2.0150800   -1.6479317  
H    3.1961642    1.9162245   -5.9852281  
H    6.5493784   -0.0701165   -4.0128765  
C    7.2240050   -4.3541797    1.0561873  
C    6.4139502   -4.9996798    1.9343763  
C    5.0598035   -4.6035634    1.6274329  
C    5.1479756   -3.6676890    0.4902630  
N    6.4866975   -3.5588299    0.1921641  
C    4.0811986   -3.0688825   -0.0972081  
C    2.7578949   -3.3657902    0.4255235  
O    1.7346332   -2.8768263   -0.0350747  
C    2.6409725   -4.3539248    1.6295686  
O    1.5321054   -4.6112876    2.0783881  
C    3.8630826   -4.9367058    2.1778985  
H    6.7290827   -5.6759800    2.7089233  
H    3.7734857   -5.6200892    3.0113753  
H    8.2975918   -4.3924240    0.9676459  
H    6.8690380   -2.9908359   -0.5414883  
C    3.3321173   -0.0004715    2.8079335  
C    2.6974184   -0.0000116    4.0032312  
C    1.2800439    0.0002118    3.6752840  
C    1.2395035   -0.0000644    2.1971295  
N    2.4394063   -0.0005460    1.6831036  
C    0.0000000    0.0000000    1.4700000  
C   -1.1468701   -0.0000635    2.1869543  
O   -2.3742202   -0.0000073    1.6395491  
C   -1.1388768   -0.0001607    3.6796354  
O   -2.2206231   -0.0000905    4.2670412  
C    0.1454524   -0.0001816    4.4024240  
H    3.1367986    0.0000651    4.9860947  
H   -2.9844344   -0.0001026    2.3990168  
H    0.1083576   -0.0003682    5.4835595  
H    4.3940039   -0.0007619    2.6198634  
