58

C    1.7761547   -2.0808181   -5.3136690  
C    0.9000098   -1.6207336   -4.3837403  
C   -0.0050994   -0.7252880   -5.0647615  
C    0.4185758   -0.7012574   -6.4778124  
N    1.5032979   -1.5433423   -6.5624317  
C   -0.1857989    0.0284143   -7.4494170  
C   -1.3297803    0.8447283   -7.0786439  
O   -1.9418774    1.5373847   -7.8810563  
C   -1.7956195    0.8347013   -5.5877720  
O   -2.7573928    1.5182333   -5.2636785  
C   -1.0641730    0.0073880   -4.6315339  
H    0.8891419   -1.8790053   -3.3398096  
H    0.1407711    0.0317999   -8.4800722  
H    2.5983401   -2.7671373   -5.1917398  
C    1.1319248    0.0015674   -0.8009270  
C    0.7969918    0.0034954   -2.1169401  
C   -0.6453335    0.0035694   -2.1842671  
C   -1.1266831    0.0015409   -0.7896029  
N    0.0000000    0.0000000    0.0000000  
C   -2.4346128    0.0013914   -0.4276298  
C   -3.4350108    0.0031337   -1.4820186  
O   -4.6384609    0.0030880   -1.2583922  
C   -2.9478957    0.0050442   -2.9661078  
O   -3.7809374    0.0062134   -3.8623778  
C   -1.5113818    0.0053053   -3.2312125  
H    1.4821241    0.0045430   -2.9459190  
H   -2.7664563    0.0000176    0.6013443  
H    2.1104316    0.0009432   -0.3488052  
C    2.2548071   -1.8300346   -7.7928553  
C    3.3245287   -2.6449117   -7.9453333  
C    3.6646645   -2.5571633   -9.3571080  
C    2.6703651   -1.6199832   -9.9224803  
N    1.8413412   -1.1903820   -9.0102563  
C    2.6668376   -1.2629977  -11.3144702  
C    3.6138153   -1.8167691  -12.1056105  
O    3.7283300   -1.5730850  -13.4222524  
C    4.6312376   -2.7656773  -11.5646984  
O    5.4636251   -3.2315842  -12.3426975  
C    4.6139184   -3.1161165  -10.1333296  
H    3.8214762   -3.2328575   -7.1927120  
H    1.9282800   -0.5757370  -11.7006247  
H    4.4906629   -2.1081703  -13.7080579  
H    5.3679781   -3.8069658   -9.7806953  
C    2.3971438    2.0127888    3.1728260  
C    1.9431056    1.6308205    1.9564670  
C    0.8496017    0.7127664    2.2356185  
C    0.7794028    0.6545384    3.7115134  
N    1.6840587    1.4146091    4.2663826  
C   -0.1885723   -0.1578550    4.3957118  
C   -1.0476298   -0.8789867    3.6398520  
O   -2.0015663   -1.6796266    4.1448486  
C   -1.0022026   -0.8410666    2.1483229  
O   -1.8147390   -1.5232959    1.5241687  
C    0.0000000    0.0000000    1.4700000  
H    2.3054237    1.9346118    0.9892483  
H   -0.2170646   -0.1815267    5.4753125  
H   -2.4487139   -2.0549881    3.3649027  
H    3.2048689    2.6911772    3.3971983  
