60

C    3.3321174    0.0004717   -1.3379335  
C    2.6974184    0.0000121   -2.5332312  
C    1.2800440   -0.0002115   -2.2052839  
C    1.2395035    0.0000645   -0.7271295  
N    2.4394064    0.0005461   -0.2131037  
C    0.0000000    0.0000000    0.0000000  
C   -1.1468696    0.0000636   -0.7169542  
O   -2.3742199    0.0000073   -0.1695491  
C   -1.1388768    0.0001610   -2.2096354  
O   -2.2206230    0.0000908   -2.7970413  
C    0.1454524    0.0001820   -2.9324241  
H    3.1367989   -0.0000646   -3.5160945  
H   -2.9844342    0.0001027   -0.9290167  
C    7.0022000   -0.0017274   -3.8667536  
C    5.7010053   -0.0020352   -3.4946352  
C    5.7268792   -0.0004762   -2.0400467  
C    7.1642513    0.0005581   -1.6928521  
N    7.9166793   -0.0000882   -2.7595493  
C    7.6175799    0.0022644   -0.3291891  
C    6.6776998    0.0032973    0.6434145  
O    6.9577650    0.0049113    1.9577970  
C    5.2193465    0.0026668    0.3250322  
O    4.4197292    0.0035537    1.2608911  
C    4.7795904    0.0008677   -1.0815724  
H    4.8310668   -0.0030886   -4.1288924  
H    8.6741775    0.0027845   -0.1044374  
H    6.0879573    0.0053405    2.3966438  
H    7.4070887   -0.0025635   -4.8662728  
C    2.6002001   -2.1411811   -5.8266038  
C    2.0730561   -1.7332808   -7.0044473  
C    0.9991603   -0.8222825   -6.6393043  
C    1.0189909   -0.7962628   -5.1609557  
N    1.9554501   -1.5673966   -4.6788908  
C    0.0950453    0.0004357   -4.4015596  
C   -0.8074257    0.7379275   -5.0878439  
O   -1.7282254    1.5268499   -4.5083871  
C   -0.8524292    0.7331206   -6.5798601  
O   -1.7006918    1.4286199   -7.1383868  
C    0.1059512   -0.0924302   -7.3360990  
H    2.3756487   -2.0156464   -7.9983201  
H   -2.2213247    1.9193589   -5.2513157  
H    0.0406024   -0.0682526   -8.4156246  
H    3.4197080   -2.8236747   -5.6666586  
C    2.5311839    2.1237619    3.0120429  
C    1.9795631    1.6616747    1.8395852  
C    0.9223175    0.7739173    2.1983588  
C    0.8753926    0.7337535    3.6154372  
N    1.8668922    1.5631002    4.0777464  
C   -0.0496243   -0.0427881    4.3197917  
C   -0.9437528   -0.7922060    3.5801400  
O   -1.8685244   -1.5680278    4.2172520  
C   -0.9124520   -0.7656372    2.1655264  
O   -1.8671164   -1.5663939    1.5732860  
C    0.0000000    0.0000000    1.4700000  
H    2.3005065    1.9304404    0.8477417  
H    2.0679347    1.7444845    5.0445261  
H   -0.0904770   -0.0778569    5.3997470  
H   -2.3849669   -2.0011402    3.5251786  
H   -1.7775064   -1.4909735    0.6183591  
H    3.3468514    2.8078103    3.1724291  
