60

C    3.3041270    0.0001176   -1.5420433  
C    2.5845371   -0.0004780   -0.3695855  
C    1.2040008   -0.0000008   -0.7283591  
C    1.1422372    0.0006036   -2.1454374  
N    2.4348636    0.0026108   -2.6077465  
C   -0.0655187    0.0008797   -2.8497918  
C   -1.2321770    0.0002324   -2.1101398  
O   -2.4392825    0.0001147   -2.7472513  
C   -1.1911206   -0.0000008   -0.6955263  
O   -2.4371530   -0.0002319   -0.1032857  
C    0.0000000    0.0000000    0.0000000  
H    3.0031534   -0.0000661    0.6222579  
H    2.7054624   -0.0071100   -3.5745265  
H   -0.1193557    0.0014843   -3.9297471  
H   -3.1132993   -0.0000649   -2.0551778  
H   -2.3200284   -0.0004071    0.8516414  
C    6.5771493   -0.0035571    1.3345533  
C    7.6645483   -0.0027621    0.5288602  
C    7.1290977   -0.0009889   -0.8238370  
C    5.6614001   -0.0010504   -0.6437062  
N    5.3318745   -0.0024719    0.6193854  
C    4.7577217    0.0005128   -1.7610465  
C    5.2958116    0.0024560   -3.0019294  
O    4.5716623    0.0040579   -4.1340270  
C    6.7730248    0.0029427   -3.2164070  
O    7.1927145    0.0046215   -4.3735929  
C    7.6790893    0.0012688   -2.0540950  
H    8.7019024   -0.0032208    0.8169075  
H    5.2317433    0.0052549   -4.8505773  
H    8.7426324    0.0018005   -2.2518450  
C    6.5392967   -0.0053592    2.8040648  
C    7.5710728   -0.0064505    3.6869645  
C    6.9929563   -0.0081066    5.0100722  
C    5.5293033   -0.0079184    4.8242989  
N    5.3200410   -0.0058239    3.4644848  
C    4.6257363   -0.0095956    5.8368537  
C    5.1283318   -0.0115021    7.2006464  
O    4.3950678   -0.0130356    8.1807602  
C    6.6747218   -0.0114829    7.4208361  
O    7.1096197   -0.0127723    8.5645678  
C    7.5483506   -0.0098606    6.2501006  
H    8.6176968   -0.0059493    3.4395923  
H    3.5561749   -0.0095530    5.6789060  
H    8.6178315   -0.0100637    6.4111474  
H    4.4202079   -0.0067533    3.0202473  
C    2.3971438    2.0127888    3.1728260  
C    1.9431056    1.6308205    1.9564670  
C    0.8496017    0.7127664    2.2356185  
C    0.7794028    0.6545384    3.7115134  
N    1.6840587    1.4146091    4.2663826  
C   -0.1885723   -0.1578550    4.3957118  
C   -1.0476298   -0.8789867    3.6398520  
O   -2.0015663   -1.6796266    4.1448486  
C   -1.0022026   -0.8410666    2.1483229  
O   -1.8147390   -1.5232959    1.5241687  
C    0.0000000    0.0000000    1.4700000  
H    2.3054237    1.9346118    0.9892483  
H   -0.2170646   -0.1815267    5.4753125  
H   -2.4487139   -2.0549881    3.3649027  
H    3.2048689    2.6911772    3.3971983  
