58

C    3.2573674   -0.0002918   -1.5109374  
C    2.5379470   -0.0001708   -0.3591959  
C    1.1435043    0.0000333   -0.7338494  
C    1.1092611   -0.0000081   -2.2088475  
N    2.4227567    0.0001910   -2.6182606  
C   -0.0265526   -0.0002524   -2.9515657  
C   -1.3003032   -0.0002640   -2.2514975  
O   -2.3786784   -0.0004132   -2.8306429  
C   -1.2877724    0.0000313   -0.6895609  
O   -2.3539950    0.0003306   -0.0892042  
C    0.0000000    0.0000000    0.0000000  
H    2.9384091   -0.0000366    0.6389244  
H   -0.0296283   -0.0004085   -4.0327228  
H    4.3270396   -0.0004763   -1.6439435  
C    5.7080853   -2.1452806   -4.5132710  
C    5.6084237   -1.7395369   -5.8005233  
C    4.4745339   -0.8282628   -5.8198380  
C    3.9954397   -0.7997401   -4.4211817  
N    4.7146929   -1.5697625   -3.6506432  
C    2.8699647   -0.0020524   -4.0185818  
C    2.2514684    0.7339940   -4.9699136  
O    1.1895409    1.5236027   -4.7356736  
C    2.7114674    0.7266531   -6.3899519  
O    2.1009859    1.4209398   -7.2026626  
C    3.8682957   -0.0998707   -6.7779355  
H    6.2279174   -2.0234849   -6.6339962  
H    0.9754917    1.9147005   -5.6019173  
H    6.4257012   -2.8272440   -4.0855715  
C    5.2500948   -3.2686522   -9.4858487  
C    5.4462296   -2.5333861  -10.6105664  
C    5.0996311   -1.1694155  -10.2876271  
C    4.6825308   -1.1703169   -8.8724178  
N    4.7961214   -2.4730697   -8.4448416  
C    4.2786237   -0.0695218   -8.1891799  
C    4.2527808    1.2008924   -8.8948109  
O    3.9043517    2.2489625   -8.3671297  
C    4.6901108    1.2251655  -10.3941295  
O    4.6721867    2.2888793  -10.9986573  
C    5.1058262   -0.0264292  -11.0222571  
H    5.7938445   -2.9042287  -11.5583285  
H    5.4073357   -0.0010439  -12.0606075  
H    5.3987967   -4.3248123   -9.3299517  
H    4.5840433   -2.7957956   -7.5186029  
C    0.8175213    0.6860729    2.3021913  
C    0.0000000    0.0000000    1.4700000  
C   -0.8887526   -0.7456559    2.3478473  
C   -0.4549825   -0.3816753    3.7138435  
N    0.5448156    0.4573574    3.6934124  
C   -1.0945674   -0.9182058    4.8835240  
C   -2.1210866   -1.7789155    4.6970523  
O   -2.8083856   -2.3554314    5.6976972  
C   -2.5824069   -2.1655116    3.3310774  
O   -3.5227682   -2.9541547    3.2362962  
C   -1.9100805   -1.6015804    2.1470656  
H   -0.7567140   -0.6349833    5.8697035  
H   -3.4728268   -2.9124471    5.2533954  
H   -2.2742832   -1.9066565    1.1752040  
H    1.6189533    1.3585343    2.0405121  
