64

C    3.8706493   -0.7380878   -4.5561747  
C    2.8310662   -0.0116220   -4.0232752  
C    2.2320928    0.7087010   -5.0988984  
C    2.9547298    0.3789711   -6.2740583  
N    3.9438703   -0.5000829   -5.9087061  
C    2.6394088    0.9080278   -7.5292320  
C    1.5750126    1.7857026   -7.5994170  
O    1.2238685    2.3314677   -8.8001884  
C    0.8420581    2.1272704   -6.4379842  
O   -0.1887473    3.0138617   -6.6719458  
C    1.1527393    1.6059352   -5.1993504  
H    3.1863418    0.6608349   -8.4286543  
H    0.4674999    2.9071620   -8.6277091  
H   -0.6323004    3.1917833   -5.8369553  
H    0.5733114    1.8862637   -4.3274808  
H    4.5665932   -1.4060752   -4.0782489  
C    5.6133165   -4.5893523   -6.1316592  
C    6.4328917   -4.3856182   -7.2175945  
C    6.2662080   -3.0261095   -7.6157813  
C    5.3247937   -2.4448779   -6.7281804  
N    4.9471623   -3.4218850   -5.8407862  
C    4.9188919   -1.1103923   -6.8239961  
C    5.4736728   -0.3486993   -7.8340549  
O    5.1128344    0.9603299   -7.9728056  
C    6.4142595   -0.9107208   -8.7297366  
O    6.8746901   -0.0238607   -9.6809602  
C    6.8149492   -2.2272243   -8.6359721  
H    7.0714114   -5.1261162   -7.6680933  
H    4.2959588   -3.3004170   -5.0863582  
H    5.6096133    1.3019614   -8.7276330  
H    7.5049316   -0.4826686  -10.2447838  
H    7.5370563   -2.6298975   -9.3366128  
H    5.4501538   -5.4754645   -5.5424718  
C    3.3041270    0.0001177   -1.5420434  
C    2.5845372   -0.0004781   -0.3695856  
C    1.2040006   -0.0000008   -0.7283592  
C    1.1422371    0.0006037   -2.1454375  
N    2.4348636    0.0026109   -2.6077467  
C   -0.0655183    0.0008798   -2.8497920  
C   -1.2321770    0.0002326   -2.1101400  
O   -2.4392818    0.0001147   -2.7472520  
C   -1.1911210   -0.0000007   -0.6955263  
O   -2.4371527   -0.0002320   -0.1032859  
C    0.0000000    0.0000000    0.0000000  
H    3.0031533   -0.0000660    0.6222577  
H   -0.1193553    0.0014844   -3.9297472  
H   -3.1132989   -0.0000648   -2.0551784  
H   -2.3200282   -0.0004069    0.8516410  
H    4.3686624    0.0004070   -1.7024294  
C    0.8175213    0.6860729    2.3021913  
C    0.0000000    0.0000000    1.4700000  
C   -0.8887526   -0.7456559    2.3478473  
C   -0.4549825   -0.3816753    3.7138435  
N    0.5448156    0.4573574    3.6934124  
C   -1.0945674   -0.9182058    4.8835240  
C   -2.1210866   -1.7789155    4.6970523  
O   -2.8083856   -2.3554314    5.6976972  
C   -2.5824069   -2.1655116    3.3310774  
O   -3.5227682   -2.9541547    3.2362962  
C   -1.9100805   -1.6015804    2.1470656  
H   -0.7567140   -0.6349833    5.8697035  
H   -3.4728268   -2.9124471    5.2533954  
H   -2.2742832   -1.9066565    1.1752040  
H    1.6189533    1.3585343    2.0405121  
