58

C    3.2573665   -0.0002918   -1.5109388  
C    2.5379466   -0.0001710   -0.3591966  
C    1.1435040    0.0000335   -0.7338503  
C    1.1092603   -0.0000076   -2.2088478  
N    2.4227558    0.0001914   -2.6182613  
C   -0.0265538   -0.0002516   -2.9515662  
C   -1.3003041   -0.0002634   -2.2514980  
O   -2.3786785   -0.0004126   -2.8306424  
C   -1.2877729    0.0000315   -0.6895604  
O   -2.3539958    0.0003310   -0.0892033  
C    0.0000000    0.0000000    0.0000000  
H    2.9384089   -0.0000368    0.6389231  
H    4.3270390   -0.0004762   -1.6439448  
H    2.7280488   -0.0013401   -3.5742116  
C    2.4624159   -2.0918857   -5.9392958  
C    1.9141434   -1.6298141   -4.7860562  
C    0.8439976   -0.7345865   -5.1577959  
C    0.8135178   -0.7128492   -6.6327158  
N    1.8196243   -1.5559191   -7.0448722  
C   -0.0596554    0.0159622   -7.3730584  
C   -1.0343397    0.8337045   -6.6703323  
O   -1.8629443    1.5257407   -7.2472220  
C   -1.0200979    0.8261120   -5.1084280  
O   -1.8357413    1.5108621   -4.5058467  
C   -0.0307360   -0.0004637   -4.4215603  
H    2.2241300   -1.8866333   -3.7887769  
H   -0.0651900    0.0176607   -8.4542043  
H    2.0500099   -1.7532061   -8.0014533  
C    4.9222677   -4.1445808   -2.9858118  
C    5.7691642   -4.8562636   -3.7654614  
C    5.3817011   -4.5352087   -5.1304878  
C    4.2538780   -3.5899548   -4.9852516  
N    3.9800688   -3.3571085   -3.7303407  
C    3.5802702   -3.0285210   -6.1237291  
C    4.0139060   -3.3944492   -7.3514877  
O    3.4781573   -2.9484867   -8.5004568  
C    5.1498487   -4.3460951   -7.5308369  
O    5.4912214   -4.6347399   -8.6777320  
C    5.8244897   -4.9083469   -6.3473429  
H    6.5592872   -5.5173732   -3.4528686  
H    3.9963681   -3.3839867   -9.2011349  
H    6.6431433   -5.5941289   -6.5197896  
H    4.8827764   -4.1086375   -1.9087223  
C    2.3971438    2.0127888    3.1728260  
C    1.9431056    1.6308205    1.9564670  
C    0.8496017    0.7127664    2.2356185  
C    0.7794028    0.6545384    3.7115134  
N    1.6840587    1.4146091    4.2663826  
C   -0.1885723   -0.1578550    4.3957118  
C   -1.0476298   -0.8789867    3.6398520  
O   -2.0015663   -1.6796266    4.1448486  
C   -1.0022026   -0.8410666    2.1483229  
O   -1.8147390   -1.5232959    1.5241687  
C    0.0000000    0.0000000    1.4700000  
H    2.3054237    1.9346118    0.9892483  
H   -0.2170646   -0.1815267    5.4753125  
H   -2.4487139   -2.0549881    3.3649027  
H    3.2048689    2.6911772    3.3971983  
