60

C   -3.3041146    0.0089503   -1.5420439  
C   -2.5845262    0.0075711   -0.3695859  
C   -1.2039958    0.0033051   -0.7283595  
C   -1.1422343    0.0025310   -2.1454376  
N   -2.4348613    0.0040714   -2.6077473  
C    0.0655165   -0.0010598   -2.8497917  
C    1.2321722   -0.0036143   -2.1101395  
O    2.4392729   -0.0068094   -2.7472517  
C    1.1911166   -0.0032683   -0.6955262  
O    2.4371436   -0.0064567   -0.1032859  
C    0.0000000    0.0000000    0.0000000  
H   -3.0031416    0.0083081    0.6222574  
H   -2.7054323    0.0145347   -3.5745267  
H    0.1193513   -0.0018121   -3.9297470  
H    3.1132883   -0.0084797   -2.0551783  
H    2.3200204   -0.0059602    0.8516413  
C   -5.7131579    0.0154458   -0.7960725  
C   -4.7577049    0.0125445   -1.7610471  
C   -5.4429580    0.0133815   -3.0319770  
C   -6.8863020    0.0170637   -2.7261420  
N   -6.9827184    0.0177640   -1.3537016  
C   -7.8702859    0.0192349   -3.6607408  
C   -7.4818654    0.0176271   -5.0613348  
O   -8.2934521    0.0192952   -5.9776457  
C   -5.9589045    0.0134785   -5.4082907  
O   -5.6198050    0.0117878   -6.5839910  
C   -4.9917123    0.0117008   -4.3135825  
H   -8.9231768    0.0220580   -3.4151327  
H   -3.9391578    0.0090333   -4.5622712  
H   -5.5966382    0.0158683    0.2755208  
C   -8.4793261    0.7522760    0.5591551  
C   -9.7396202    0.5407565    1.0184950  
C  -10.3698402   -0.3853640    0.1074734  
C   -9.3661920   -0.6983217   -0.9276781  
N   -8.2426771    0.0234236   -0.5964877  
C   -9.5751763   -1.5396091   -1.9718364  
C  -10.8754478   -2.1793834   -2.0837150  
O  -11.1615040   -2.9531163   -2.9880439  
C  -11.9534927   -1.8622881   -0.9987845  
O  -13.0519945   -2.3947490   -1.0826909  
C  -11.6104037   -0.9388772    0.0798512  
H  -10.1778409    0.9831662    1.8953361  
H   -8.8254051   -1.7556416   -2.7202229  
H  -12.3623518   -0.7247686    0.8271489  
H   -7.7035897    1.3794529    0.9675319  
C    0.0000000    0.0000000    1.4700000  
C    1.0662921    0.0000102    2.3034270  
C    0.4961870   -0.0000064    3.6418889  
C   -0.9663858    0.0000850    3.4240247  
N   -1.2632773    0.0000084    2.1528658  
C   -1.8985362    0.0000517    4.5177257  
C   -1.3925775   -0.0004564    5.7720543  
O   -2.1456383   -0.0005410    6.8851312  
C    0.0786232   -0.0009323    6.0245000  
O    0.4683759   -0.0012588    7.1921102  
C    1.0143166   -0.0008442    4.8859032  
H    2.1107198   -0.0000632    2.0421868  
H   -2.9622183    0.0003270    4.3293377  
H   -1.5042274   -0.0009692    7.6184419  
H    2.0724152   -0.0013148    5.1109744  
