58

C    3.2798084    0.0005862   -1.4499658  
C    2.5571139    0.0005570   -2.5996563  
C    1.1637431    0.0001551   -2.2210366  
C    1.1336964   -0.0000200   -0.7459476  
N    2.4483516   -0.0001428   -0.3402732  
C    0.0000000    0.0000000    0.0000000  
C   -1.2757365   -0.0000186   -0.6964421  
O   -2.3524598   -0.0000641   -0.1142305  
C   -1.2676499   -0.0000871   -2.2584082  
O   -2.3355769   -0.0004099   -2.8557292  
C    0.0181555    0.0001763   -2.9516302  
H    0.0150785    0.0003324   -4.0331637  
H    4.3498546    0.0008614   -1.3200035  
H    2.7563629    0.0012823    0.6148051  
C    4.2042261   -0.7245765   -4.3883895  
C    4.4532739   -0.5080827   -5.7056520  
C    3.4504637    0.4176292   -6.1771013  
C    2.5906250    0.7249264   -5.0182069  
N    3.1006048    0.0006269   -3.9654959  
C    1.5247253    1.5641944   -5.0527259  
C    1.2027488    2.2076137   -6.3156107  
O    0.2625089    2.9799151   -6.4490279  
C    2.0996876    1.8965300   -7.5559862  
O    1.8381613    2.4320973   -8.6246455  
C    3.2214639    0.9748209   -7.3949823  
H    5.2485895   -0.9469420   -6.2814026  
H    0.9070130    1.7760616   -4.1910687  
H    4.7339421   -1.3530607   -3.6910382  
C    5.0516688   -2.7456508   -8.8412795  
C    5.6702123   -2.2738998   -9.9543518  
C    5.3836705   -0.8606508  -10.0282218  
C    4.5414727   -0.5454600   -8.8585431  
N    4.3766970   -1.7308784   -8.1799256  
C    4.0590989    0.6894766   -8.5687990  
C    4.3914115    1.7810036   -9.4691725  
O    4.0051661    2.9293599   -9.2948366  
C    5.2818037    1.4700173  -10.7142810  
O    5.5678961    2.3809005  -11.4795937  
C    5.7420584    0.0991060  -10.9207253  
H    6.2597592   -2.8502003  -10.6449512  
H    6.3583097   -0.1078435  -11.7850922  
H    5.0319553   -3.7493013   -8.4486129  
H    3.8492207   -1.8413862   -7.3334009  
C    0.0000000    0.0000000    1.4700000  
C    1.0662921    0.0000102    2.3034270  
C    0.4961870   -0.0000064    3.6418889  
C   -0.9663858    0.0000850    3.4240247  
N   -1.2632773    0.0000084    2.1528658  
C   -1.8985362    0.0000517    4.5177257  
C   -1.3925775   -0.0004564    5.7720543  
O   -2.1456383   -0.0005410    6.8851312  
C    0.0786232   -0.0009323    6.0245000  
O    0.4683759   -0.0012588    7.1921102  
C    1.0143166   -0.0008442    4.8859032  
H    2.1107198   -0.0000632    2.0421868  
H   -2.9622183    0.0003270    4.3293377  
H   -1.5042274   -0.0009692    7.6184419  
H    2.0724152   -0.0013148    5.1109744  
