58

C    0.0000000    0.0000000    0.0000000  
C    1.0541693   -0.0001721   -0.8560389  
C    0.5103146   -0.0000453   -2.1935956  
C   -0.9576361    0.0002459   -2.0455734  
N   -1.2018454   -0.0001390   -0.6915973  
C   -1.8348302    0.0008319   -3.0810614  
C   -1.2972832    0.0009738   -4.4314609  
O   -2.0050656    0.0014267   -5.4301325  
C    0.2542641    0.0004187   -4.6117571  
O    0.7184691    0.0002259   -5.7439122  
C    1.0974562    0.0000874   -3.4189126  
H    2.0940753   -0.0005483   -0.5817979  
H    2.1707291   -0.0000911   -3.5523664  
H   -2.1128190    0.0014913   -0.2706797  
C   -4.3137495    2.1424312   -0.2077343  
C   -5.5591243    1.7353211   -0.5466770  
C   -5.3648100    0.8246403   -1.6644436  
C   -3.9011707    0.7979208   -1.8733231  
N   -3.2797683    1.5684038   -1.0223210  
C   -3.2941063    0.0012876   -2.9038251  
C   -4.1120047   -0.7354735   -3.6896749  
O   -3.6822278   -1.5242476   -4.6892580  
C   -5.5930489   -0.7299487   -3.5035615  
O   -6.2763249   -1.4248014   -4.2555819  
C   -6.1916574    0.0955196   -2.4395156  
H   -4.4926424   -1.9161854   -5.0617706  
H   -7.2683261    0.0718761   -2.3372602  
H   -4.0287176    2.8244777    0.5774679  
C   -6.8358058    2.1213106    0.0713809  
C   -7.0374843    2.9652711    1.1099551  
C   -8.4790967    2.9824851    1.3047821  
C   -9.0060898    2.0679166    0.2692017  
N   -8.0474767    1.5600270   -0.4568143  
C  -10.4124156    1.8086000    0.1274715  
C  -11.2539897    2.4341876    0.9817128  
O  -12.5894428    2.2849108    0.9637438  
C  -10.7527763    3.3626002    2.0376466  
O  -11.5759542    3.8974308    2.7803142  
C   -9.3057270    3.6122467    2.1627517  
H   -6.2991537    3.5089140    1.6742214  
H  -10.7696921    1.1357616   -0.6383951  
H  -12.9121946    2.8531606    1.6862923  
H   -8.9830285    4.2912943    2.9405626  
C    3.1301144    0.0010313    3.1728260  
C    2.5367765    0.0002768    1.9564670  
C    1.1089900   -0.0001027    2.2356185  
C    1.0177864    0.0004150    3.7115134  
N    2.1993570    0.0011613    4.2663826  
C   -0.2459220    0.0002880    4.3957118  
C   -1.3675327    0.0000606    3.6398520  
O   -2.6129319   -0.0000866    4.1448486  
C   -1.3083589   -0.0000910    2.1483229  
O   -2.3693264   -0.0004206    1.5241687  
C    0.0000000    0.0000000    1.4700000  
H    3.0096015    0.0001008    0.9892483  
H   -0.2829642    0.0004689    5.4753125  
H   -3.1967446   -0.0002093    3.3649027  
H    4.1849273    0.0015113    3.3971983  
