58

C    3.2573672   -0.0002920   -1.5109380  
C    2.5379470   -0.0001710   -0.3591959  
C    1.1435044    0.0000331   -0.7338498  
C    1.1092609   -0.0000083   -2.2088475  
N    2.4227564    0.0001909   -2.6182609  
C   -0.0265532   -0.0002524   -2.9515660  
C   -1.3003037   -0.0002640   -2.2514978  
O   -2.3786783   -0.0004133   -2.8306423  
C   -1.2877723    0.0000311   -0.6895608  
O   -2.3539957    0.0003306   -0.0892035  
C    0.0000000    0.0000000    0.0000000  
H    2.9384091   -0.0000368    0.6389235  
H    2.7280494   -0.0013407   -3.5742112  
C    6.7921807    0.0009712    1.2037512  
C    5.5119033    0.0013959    0.7650370  
C    5.6127425    0.0004334   -0.6862830  
C    7.0661040   -0.0004195   -0.9589043  
N    7.7625309   -0.0001897    0.1451701  
C    7.5891414   -0.0015551   -2.2973802  
C    6.7006590   -0.0022151   -3.3171514  
O    7.0481230   -0.0032833   -4.6153455  
C    5.2278296   -0.0017546   -3.0743857  
O    4.4775295   -0.0022799   -4.0502289  
C    4.7161333   -0.0005436   -1.6923256  
H    4.6104196    0.0021660    1.3535962  
H    8.6559215   -0.0019544   -2.4673541  
H    6.2020992   -0.0035564   -5.0984571  
H    7.1449944    0.0014088    2.2228169  
C    2.3617619   -2.0132535   -6.1309085  
C    1.9111466   -1.6311560   -4.9133182  
C    0.8167583   -0.7132545   -5.1894899  
C    0.7423549   -0.6552469   -6.6651875  
N    1.6455069   -1.4153048   -7.2225185  
C   -0.2276464    0.1569483   -7.3467464  
C   -1.0846244    0.8781010   -6.5885496  
O   -2.0400762    1.6785701   -7.0909458  
C   -1.0349502    0.8404010   -5.0971504  
O   -1.8457778    1.5226371   -4.4707856  
C   -0.0307352   -0.0004647   -4.4215603  
H    2.2762462   -1.9347704   -3.9470902  
H   -0.2592124    0.1804612   -8.4262656  
H   -2.4850418    2.0539983   -6.3097847  
H    3.1689152   -2.6915914   -6.3574802  
C    2.5128556    2.1077716    2.9199648  
C    1.9592212    1.6432552    4.0696553  
C    0.8915788    0.7479214    3.6910360  
C    0.8684491    0.7287414    2.2159470  
N    1.8754542    1.5738793    1.8102719  
C    0.0000000    0.0000000    1.4700000  
C   -0.9772830   -0.8200135    2.1664417  
O   -1.8021297   -1.5120829    1.5842315  
C   -0.9711318   -0.8147624    3.7284083  
O   -1.7894187   -1.5009653    4.3257297  
C    0.0140216    0.0115358    4.4216297  
H    2.2638494    1.8988021    5.0689105  
H    0.0117648    0.0094386    5.5031631  
H    3.3327358    2.7953732    2.7900019  
H    2.1123206    1.7707734    0.8551938  
