58

C    3.2573668   -0.0002919   -1.5109384  
C    2.5379469   -0.0001710   -0.3591966  
C    1.1435042    0.0000332   -0.7338501  
C    1.1092602   -0.0000081   -2.2088476  
N    2.4227556    0.0001910   -2.6182611  
C   -0.0265540   -0.0002522   -2.9515660  
C   -1.3003042   -0.0002638   -2.2514972  
O   -2.3786793   -0.0004130   -2.8306421  
C   -1.2877728    0.0000312   -0.6895602  
O   -2.3539960    0.0003307   -0.0892028  
C    0.0000000    0.0000000    0.0000000  
H    2.9384092   -0.0000369    0.6389232  
H   -0.0296299   -0.0004083   -4.0327227  
H    2.7280486   -0.0013405   -3.5742116  
C    6.5597228   -0.0008211    1.3835016  
C    7.6114518   -0.0009114    0.5244667  
C    7.0637934   -0.0009870   -0.8115370  
C    5.5962696   -0.0009038   -0.6593386  
N    5.3559139   -0.0012037    0.6953270  
C    4.7161331   -0.0005435   -1.6923264  
C    5.2498352   -0.0004420   -3.0442499  
O    4.5392144   -0.0001858   -4.0409033  
C    6.8008630   -0.0007796   -3.2289603  
O    7.2618449   -0.0010042   -4.3624313  
C    7.6474464   -0.0008760   -2.0385196  
H    8.6521348   -0.0011060    0.7957479  
H    8.7203346   -0.0009047   -2.1750269  
H    4.4461418    0.0003271    1.1188348  
C    6.5639050   -0.0006888    2.8534956  
C    7.6325641   -0.0004428    3.6838855  
C    7.0662693   -0.0004248    5.0239639  
C    5.6030823   -0.0005736    4.8102619  
N    5.3025754   -0.0008094    3.5399530  
C    4.6740474   -0.0006490    5.9066104  
C    5.1835726   -0.0009679    7.1594946  
O    4.4336820   -0.0010659    8.2747092  
C    6.6554858   -0.0011992    7.4077536  
O    7.0485586   -0.0013618    8.5742502  
C    7.5879359   -0.0010725    6.2664996  
H    8.6762445   -0.0003822    3.4196751  
H    3.6098336   -0.0005511    5.7212494  
H    5.0771766   -0.0013313    9.0061922  
H    8.6466704   -0.0013633    6.4885594  
C    0.8175213    0.6860729    2.3021913  
C    0.0000000    0.0000000    1.4700000  
C   -0.8887526   -0.7456559    2.3478473  
C   -0.4549825   -0.3816753    3.7138435  
N    0.5448156    0.4573574    3.6934124  
C   -1.0945674   -0.9182058    4.8835240  
C   -2.1210866   -1.7789155    4.6970523  
O   -2.8083856   -2.3554314    5.6976972  
C   -2.5824069   -2.1655116    3.3310774  
O   -3.5227682   -2.9541547    3.2362962  
C   -1.9100805   -1.6015804    2.1470656  
H   -0.7567140   -0.6349833    5.8697035  
H   -3.4728268   -2.9124471    5.2533954  
H   -2.2742832   -1.9066565    1.1752040  
H    1.6189533    1.3585343    2.0405121  
