58

C    1.1319247    0.0015703   -0.8009268  
C    0.7969915    0.0034979   -2.1169403  
C   -0.6453338    0.0035689   -2.1842672  
C   -1.1266834    0.0015391   -0.7896027  
N    0.0000000    0.0000000    0.0000000  
C   -2.4346130    0.0013869   -0.4276293  
C   -3.4350109    0.0031276   -1.4820179  
O   -4.6384608    0.0030793   -1.2583914  
C   -2.9478960    0.0050394   -2.9661070  
O   -3.7809380    0.0062075   -3.8623773  
C   -1.5113826    0.0053038   -3.2312122  
H   -2.7664564    0.0000122    0.6013451  
H   -1.1823532    0.0068367   -4.2614848  
H    2.1104317    0.0009476   -0.3488060  
C    2.8943510   -0.6801080   -3.3710890  
C    1.7334692    0.0049322   -3.2500365  
C    1.6070290    0.7512047   -4.4924496  
C    2.8119081    0.3886741   -5.2692519  
N    3.5702468   -0.4501088   -4.6170586  
C    3.0636185    0.9261730   -6.5780004  
C    2.1528558    1.7864236   -7.0877206  
O    2.2600684    2.3637303   -8.2965480  
C    0.9267354    2.1715622   -6.3284724  
O    0.1408565    2.9598592   -6.8540230  
C    0.6911555    1.6066575   -4.9878349  
H    1.4643993    2.9201331   -8.3770398  
H   -0.2089640    1.9106868   -4.4705525  
H    3.3459581   -1.3526082   -2.6592128  
C    4.2732623    0.5421936   -7.3197692  
C    5.2572967   -0.3012514   -6.9300810  
C    6.1992598   -0.3163018   -8.0386742  
C    5.6108809    0.5988253   -9.0401419  
N    4.4818638    1.1051503   -8.6242773  
C    6.2501843    0.8601826  -10.3003286  
C    7.4241141    0.2360141  -10.5485976  
O    8.1294753    0.3872533  -11.6824551  
C    8.0435519   -0.6929142   -9.5578655  
O    9.1135315   -1.2263763   -9.8507520  
C    7.3682694   -0.9446657   -8.2723553  
H    5.3344694   -0.8458628   -6.0045979  
H    5.7975334    1.5333860  -11.0136405  
H    8.9125101   -0.1803691  -11.5649225  
H    7.8496413   -1.6240249   -7.5817165  
C    0.8175213    0.6860729    2.3021913  
C    0.0000000    0.0000000    1.4700000  
C   -0.8887526   -0.7456559    2.3478473  
C   -0.4549825   -0.3816753    3.7138435  
N    0.5448156    0.4573574    3.6934124  
C   -1.0945674   -0.9182058    4.8835240  
C   -2.1210866   -1.7789155    4.6970523  
O   -2.8083856   -2.3554314    5.6976972  
C   -2.5824069   -2.1655116    3.3310774  
O   -3.5227682   -2.9541547    3.2362962  
C   -1.9100805   -1.6015804    2.1470656  
H   -0.7567140   -0.6349833    5.8697035  
H   -3.4728268   -2.9124471    5.2533954  
H   -2.2742832   -1.9066565    1.1752040  
H    1.6189533    1.3585343    2.0405121  
