62

C    3.3003540    0.0005278   -1.4738999  
C    2.5232804    0.0003503   -2.6090758  
C    1.1623192   -0.0001315   -2.1820108  
C    1.1711879    0.0000585   -0.7636151  
N    2.4852299   -0.0014918   -0.3662372  
C    0.0000000    0.0000000    0.0000000  
C   -1.2020386    0.0000521   -0.6806475  
O   -2.3759253    0.0003494    0.0157750  
C   -1.2314665   -0.0005112   -2.0955511  
O   -2.5054398   -0.0008035   -2.6250175  
C   -0.0764526   -0.0007268   -2.8495196  
H    2.8919941   -0.0005613   -3.6205317  
H    2.8036265    0.0088182    0.5858651  
H   -3.0835642    0.0000347   -0.6418815  
H   -2.4360056   -0.0011526   -3.5845916  
H    4.3715545    0.0004897   -1.3667156  
C    2.3339052   -2.1433058   -5.7798829  
C    1.7884015   -1.7364541   -6.9497019  
C    0.7199589   -0.8255796   -6.5686016  
C    0.7627093   -0.7984767   -5.0907582  
N    1.7068217   -1.5689200   -4.6227212  
C   -0.1496431   -0.0015606   -4.3176960  
C   -1.0629266    0.7351043   -4.9904313  
O   -1.9749220    1.5241144   -4.3973303  
C   -1.1310671    0.7291952   -6.4815657  
O   -1.9881511    1.4239803   -7.0273692  
C   -0.1842244   -0.0965584   -7.2519841  
H    2.0756462   -2.0194332   -7.9479450  
H   -2.4796327    1.9159033   -5.1328032  
H   -0.2663198   -0.0731902   -8.3303836  
C    4.8560896   -4.3779416   -8.6441221  
C    5.6561226   -5.0081385   -7.7193165  
C    5.2161340   -4.5841498   -6.4304245  
C    4.1354220   -3.6881812   -6.6334706  
N    3.9442322   -3.5838728   -7.9888974  
C    3.4545839   -3.0730592   -5.5785425  
C    3.8721314   -3.3680167   -4.2952531  
O    3.2420622   -2.7953606   -3.2284389  
C    4.9486867   -4.2591710   -4.0723433  
O    5.2451369   -4.4501314   -2.7385532  
C    5.6209843   -4.8661581   -5.1125881  
H    6.4588869   -5.6887593   -7.9458517  
H    3.2386043   -3.0254960   -8.4341916  
H    3.6839912   -3.1312607   -2.4377842  
H    5.9827604   -5.0646120   -2.6758778  
H    6.4420076   -5.5441959   -4.9109372  
H    4.8646931   -4.4309439   -9.7193327  
C    2.5528530    2.1414826    2.8079335  
C    2.0663498    1.7338582    4.0032312  
C    0.9804344    0.8229586    3.6752840  
C    0.9495562    0.7966882    2.1971295  
N    1.8690446    1.5676019    1.6831036  
C    0.0000000    0.0000000    1.4700000  
C   -0.8785127   -0.7372425    2.1869543  
O   -1.8187535   -1.5261249    1.6395491  
C   -0.8723269   -0.7321790    3.6796354  
O   -1.7010379   -1.4274584    4.2670412  
C    0.1115397    0.0933559    4.4024240  
H    2.4028853    2.0163452    4.9860947  
H   -2.2861435   -1.9184361    2.3990168  
H    0.0832434    0.0693689    5.4835595  
H    3.3664920    2.8238276    2.6198634  
