60

C    3.3321174    0.0004717   -1.3379335  
C    2.6974184    0.0000121   -2.5332312  
C    1.2800440   -0.0002115   -2.2052839  
C    1.2395035    0.0000645   -0.7271295  
N    2.4394064    0.0005461   -0.2131037  
C    0.0000000    0.0000000    0.0000000  
C   -1.1468696    0.0000636   -0.7169542  
O   -2.3742199    0.0000073   -0.1695491  
C   -1.1388768    0.0001610   -2.2096354  
O   -2.2206230    0.0000908   -2.7970413  
C    0.1454524    0.0001820   -2.9324241  
H    3.1367989   -0.0000646   -3.5160945  
H   -2.9844342    0.0001027   -0.9290167  
C    4.7795904    0.0008677   -1.0815724  
C    5.7862022    0.0008773   -1.9861784  
C    7.0047292    0.0013414   -1.1913883  
C    6.5351377    0.0016828    0.2107769  
N    5.2316826    0.0013265    0.2814348  
C    7.4495160    0.0021408    1.3193791  
C    8.7728596    0.0018637    1.0399231  
O    9.7375497    0.0022378    1.9755591  
C    9.2780077    0.0011453   -0.3647071  
O   10.4956955    0.0010510   -0.5448615  
C    8.3200399    0.0007293   -1.4846275  
H    5.7111083    0.0005131   -3.0601603  
H    7.0785137    0.0025898    2.3339070  
H   10.5714818    0.0018717    1.4718634  
H    8.7261893    0.0000960   -2.4872600  
C    2.6002001   -2.1411811   -5.8266038  
C    2.0730561   -1.7332808   -7.0044473  
C    0.9991603   -0.8222825   -6.6393043  
C    1.0189909   -0.7962628   -5.1609557  
N    1.9554501   -1.5673966   -4.6788908  
C    0.0950453    0.0004357   -4.4015596  
C   -0.8074257    0.7379275   -5.0878439  
O   -1.7282254    1.5268499   -4.5083871  
C   -0.8524292    0.7331206   -6.5798601  
O   -1.7006918    1.4286199   -7.1383868  
C    0.1059512   -0.0924302   -7.3360990  
H    2.3756487   -2.0156464   -7.9983201  
H   -2.2213247    1.9193589   -5.2513157  
H    0.0406024   -0.0682526   -8.4156246  
H    3.4197080   -2.8236747   -5.6666586  
C    0.8576279    0.7185626    2.2703808  
C    0.0000000    0.0000000    1.4700000  
C   -0.8668858   -0.7285659    2.3373528  
C   -0.4876752   -0.4117774    3.6669281  
N    0.5635254    0.4678311    3.5902241  
C   -1.1297612   -0.9515493    4.7854808  
C   -2.1738724   -1.8268314    4.5576857  
O   -2.8357962   -2.3827064    5.6140350  
C   -2.5667212   -2.1555554    3.2384331  
O   -3.6226318   -3.0413663    3.1773122  
C   -1.9335634   -1.6236449    2.1344818  
H    1.0363952    0.8769718    4.3757045  
H   -0.8454472   -0.7142436    5.8013813  
H   -3.5178062   -2.9546422    5.2385129  
H   -3.8247440   -3.2102924    2.2519915  
H   -2.2566033   -1.8942483    1.1360343  
H    1.6567807    1.3889844    2.0042067  
