60

C    3.3041270    0.0001178   -1.5420432  
C    2.5845372   -0.0004779   -0.3695853  
C    1.2040007   -0.0000006   -0.7283591  
C    1.1422373    0.0006039   -2.1454374  
N    2.4348636    0.0026110   -2.6077466  
C   -0.0655186    0.0008800   -2.8497915  
C   -1.2321770    0.0002326   -2.1101397  
O   -2.4392818    0.0001149   -2.7472515  
C   -1.1911209   -0.0000006   -0.6955262  
O   -2.4371522   -0.0002319   -0.1032858  
C    0.0000000    0.0000000    0.0000000  
H    3.0031535   -0.0000661    0.6222580  
H    2.7054625   -0.0071097   -3.5745263  
H   -3.1132993   -0.0000646   -2.0551781  
H   -2.3200286   -0.0004070    0.8516413  
C    5.7183462    0.0008988   -0.7610764  
C    6.9697732    0.0035942   -1.2883311  
C    6.8214686    0.0054665   -2.7245894  
C    5.3706562    0.0036572   -2.9927892  
N    4.7577214    0.0005130   -1.7610465  
C    4.8178652    0.0050248   -4.2321942  
C    5.7114453    0.0082855   -5.3785093  
O    5.3110217    0.0096651   -6.5352118  
C    7.2515428    0.0099939   -5.1179311  
O    8.0137026    0.0124328   -6.0752019  
C    7.7277041    0.0085533   -3.7369455  
H    7.8915733    0.0040190   -0.7343470  
H    3.7509359    0.0037840   -4.4070375  
H    8.7954986    0.0099565   -3.5650785  
H    5.4170503   -0.0010550    0.2738664  
C    2.1709832   -2.0097061   -6.1391756  
C    1.7780118   -1.6284991   -4.9015024  
C    0.6718272   -0.7104844   -5.1253423  
C    0.5282232   -0.6514436   -6.5958779  
N    1.4042452   -1.4110423   -7.1955324  
C   -0.4727393    0.1611593   -7.2305726  
C   -1.2932064    0.8817147   -6.4324695  
O   -2.2712237    1.6824665   -6.8888901  
C   -1.1735679    0.8429687   -4.9450735  
O   -1.9541231    1.5247038   -4.2808511  
C   -0.1387086    0.0017020   -4.3179679  
H    2.1880834   -1.9327664   -3.9536951  
H   -0.5549521    0.1854296   -8.3074022  
H   -2.6790404    2.0573119   -6.0874357  
H    2.9666372   -2.6878246   -6.4038700  
C    2.3971438    2.0127888    3.1728260  
C    1.9431056    1.6308205    1.9564670  
C    0.8496017    0.7127664    2.2356185  
C    0.7794028    0.6545384    3.7115134  
N    1.6840587    1.4146091    4.2663826  
C   -0.1885723   -0.1578550    4.3957118  
C   -1.0476298   -0.8789867    3.6398520  
O   -2.0015663   -1.6796266    4.1448486  
C   -1.0022026   -0.8410666    2.1483229  
O   -1.8147390   -1.5232959    1.5241687  
C    0.0000000    0.0000000    1.4700000  
H    2.3054237    1.9346118    0.9892483  
H   -0.2170646   -0.1815267    5.4753125  
H   -2.4487139   -2.0549881    3.3649027  
H    3.2048689    2.6911772    3.3971983  
