60

C   -1.0714891    0.3408123   -0.7919010  
C   -0.7175115    0.2105797   -2.1148549  
C    0.6376482   -0.2337551   -2.1414699  
C    1.0613451   -0.3583782   -0.7935544  
N    0.0000000    0.0000000    0.0000000  
C    2.3479973   -0.7765847   -0.4408233  
C    3.2227707   -1.0747019   -1.4675046  
O    4.4912882   -1.4880315   -1.1793450  
C    2.8187588   -0.9561781   -2.8186313  
O    3.8044064   -1.2890013   -3.7247605  
C    1.5496868   -0.5434067   -3.1673474  
H    2.6771277   -0.8734716    0.5845979  
H    4.9281600   -1.6401807   -2.0274359  
H    3.4499365   -1.1819497   -4.6127328  
H    1.2689836   -0.4619556   -4.2109230  
H   -2.0030520    0.6512177   -0.3505420  
C   -3.6884934    3.3785238   -2.9109880  
C   -2.7393042    2.5864165   -2.3491336  
C   -2.4480560    1.5393839   -3.2997819  
C   -3.3115435    1.7882297   -4.4699338  
N   -4.0389763    2.9170361   -4.1707222  
C   -3.3339229    1.0175741   -5.5867569  
C   -2.4486256   -0.1339363   -5.6397505  
O   -2.3950807   -0.8892673   -6.6014722  
C   -1.5256759   -0.4166032   -4.4117166  
O   -0.7763149   -1.3833658   -4.4447244  
C   -1.5906809    0.4858985   -3.2649310  
H   -2.2941184    2.7202104   -1.3793282  
H   -3.9748773    1.2176909   -6.4341303  
H   -4.7182276    3.3415183   -4.7752714  
C   -4.0887363    5.1412739   -1.1524313  
C   -4.3336991    4.5812554   -2.3650511  
C   -5.3425817    5.3908423   -3.0065800  
C   -5.6676153    6.4762234   -2.0615452  
N   -4.8737506    6.2675324   -0.9574094  
C   -6.5787260    7.4539415   -2.2974475  
C   -7.2866155    7.4359354   -3.5667396  
O   -8.1258935    8.2725637   -3.8732791  
C   -6.9584643    6.2955812   -4.5824738  
O   -7.5483020    6.2699038   -5.6542440  
C   -5.9564850    5.2981006   -4.2151579  
H   -6.8021618    8.2410981   -1.5907858  
H   -5.7349148    4.5119409   -4.9240895  
H   -3.4009313    4.8258442   -0.3847606  
H   -4.8644525    6.8456246   -0.1371834  
C    2.3971438    2.0127888    3.1728260  
C    1.9431056    1.6308205    1.9564670  
C    0.8496017    0.7127664    2.2356185  
C    0.7794028    0.6545384    3.7115134  
N    1.6840587    1.4146091    4.2663826  
C   -0.1885723   -0.1578550    4.3957118  
C   -1.0476298   -0.8789867    3.6398520  
O   -2.0015663   -1.6796266    4.1448486  
C   -1.0022026   -0.8410666    2.1483229  
O   -1.8147390   -1.5232959    1.5241687  
C    0.0000000    0.0000000    1.4700000  
H    2.3054237    1.9346118    0.9892483  
H   -0.2170646   -0.1815267    5.4753125  
H   -2.4487139   -2.0549881    3.3649027  
H    3.2048689    2.6911772    3.3971983  
