60

C    1.1243411    0.0099243   -0.7919006  
C    0.7474080    0.0234091   -2.1148544  
C   -0.6787376    0.0234901   -2.1414695  
C   -1.1201742    0.0099270   -0.7935543  
N    0.0000000    0.0000000    0.0000000  
C   -2.4730817    0.0065204   -0.4408231  
C   -3.3971953    0.0173039   -1.4675054  
O   -4.7313513    0.0149120   -1.1793453  
C   -2.9763642    0.0305307   -2.8186311  
O   -4.0166464    0.0397549   -3.7247608  
C   -1.6418558    0.0336257   -3.1673474  
H   -2.8160166   -0.0039406    0.5845978  
H   -5.1938814    0.0234010   -2.0274364  
H   -3.6464663    0.0484503   -4.6127329  
H   -1.3497461    0.0436686   -4.2109227  
H    2.1062466    0.0051544   -0.3505413  
C    4.5316458   -2.0782506   -2.8537113  
C    4.8145576   -1.6024192   -4.0937195  
C    3.7435725   -0.7035952   -4.4541939  
C    2.8068217   -0.6946980   -3.3143653  
N    3.3419281   -1.5485144   -2.3775898  
C    1.6628959    0.0337896   -3.2649305  
C    1.3321238    0.8643634   -4.4109115  
O    0.3242791    1.5570833   -4.4627600  
C    2.3096985    0.8701065   -5.6291562  
O    2.0415749    1.5652518   -6.5997971  
C    3.5120828    0.0430159   -5.5655543  
H    5.6751772   -1.8526685   -4.6881292  
H    4.1838754    0.0527636   -6.4130938  
H    2.9324186   -1.7535205   -1.4846613  
C    8.2926904   -4.1203065   -3.6734985  
C    8.4760237   -4.8437932   -2.5445458  
C    7.3267013   -4.5324091   -1.7087241  
C    6.5300333   -3.5790827   -2.5106429  
N    7.0912641   -3.3337641   -3.6633912  
C    5.2959352   -3.0236743   -2.0273119  
C    4.8765659   -3.4036739   -0.7988720  
O    3.7443005   -2.9647204   -0.2232547  
C    5.6581192   -4.3643242    0.0344854  
O    5.2164405   -4.6655118    1.1432805  
C    6.9209422   -4.9200799   -0.4835296  
H    9.2905402   -5.5069501   -2.3081967  
H    3.7176668   -3.4100612    0.6428369  
H    7.4573375   -5.6129247    0.1508810  
H    8.9281663   -4.0747124   -4.5435925  
C    0.8175213    0.6860729    2.3021913  
C    0.0000000    0.0000000    1.4700000  
C   -0.8887526   -0.7456559    2.3478473  
C   -0.4549825   -0.3816753    3.7138435  
N    0.5448156    0.4573574    3.6934124  
C   -1.0945674   -0.9182058    4.8835240  
C   -2.1210866   -1.7789155    4.6970523  
O   -2.8083856   -2.3554314    5.6976972  
C   -2.5824069   -2.1655116    3.3310774  
O   -3.5227682   -2.9541547    3.2362962  
C   -1.9100805   -1.6015804    2.1470656  
H   -0.7567140   -0.6349833    5.8697035  
H   -3.4728268   -2.9124471    5.2533954  
H   -2.2742832   -1.9066565    1.1752040  
H    1.6189533    1.3585343    2.0405121  
