60

C    3.3003551    0.0005273   -1.4738980  
C    2.5232817    0.0003495   -2.6090742  
C    1.1623205   -0.0001322   -2.1820097  
C    1.1711885    0.0000583   -0.7636133  
N    2.4852300   -0.0014918   -0.3662348  
C    0.0000000    0.0000000    0.0000000  
C   -1.2020380    0.0000519   -0.6806476  
O   -2.3759248    0.0003494    0.0157746  
C   -1.2314652   -0.0005116   -2.0955505  
O   -2.5054382   -0.0008041   -2.6250180  
C   -0.0764512   -0.0007276   -2.8495190  
H    2.8919959   -0.0005621   -3.6205292  
H    2.8036266    0.0088182    0.5858668  
H   -3.0835635    0.0000347   -0.6418814  
H   -2.4360042   -0.0011531   -3.5845920  
H    4.3715554    0.0004892   -1.3667125  
C    0.6503163   -0.7058452   -5.1591991  
C   -0.1496408   -0.0015618   -4.3176954  
C   -1.0769611    0.7392926   -5.1399165  
C   -0.7493485    0.4064845   -6.5394519  
N    0.3066322   -0.4735904   -6.4823313  
C   -1.4003392    0.9048513   -7.6209079  
C   -2.4966963    1.8309946   -7.3911364  
O   -3.1448378    2.3343938   -8.2993228  
C   -2.8607656    2.1977437   -5.9171102  
O   -3.7817296    2.9766668   -5.7112824  
C   -2.0864145    1.5959452   -4.8344878  
H   -2.3449678    1.8549049   -3.8167383  
H    1.4621440   -1.3748332   -4.9240819  
H    0.7568416   -0.8854591   -7.2790263  
C   -0.2440486   -2.9270270   -9.3434631  
C   -0.0547944   -2.6087297  -10.6451728  
C   -0.3414078   -1.1848666  -10.7286350  
C   -0.6972754   -0.7947316   -9.3474267  
N   -0.6418939   -1.8117706   -8.5309986  
C   -1.0521078    0.5552085   -9.0056043  
C   -1.0510849    1.4737337   -9.9984010  
O   -1.3615444    2.7693870   -9.8225084  
C   -0.6962098    1.1111254  -11.4022318  
O   -0.7164145    1.9985965  -12.2549969  
C   -0.3358473   -0.2803562  -11.7275645  
H    0.2426643   -3.2597472  -11.4493941  
H   -1.2713961    3.1682105  -10.7067970  
H   -0.0850175   -0.5022446  -12.7561959  
H   -0.1319572   -3.8905774   -8.8723161  
C    0.0000000    0.0000000    1.4700000  
C    1.0662921    0.0000102    2.3034270  
C    0.4961870   -0.0000064    3.6418889  
C   -0.9663858    0.0000850    3.4240247  
N   -1.2632773    0.0000084    2.1528658  
C   -1.8985362    0.0000517    4.5177257  
C   -1.3925775   -0.0004564    5.7720543  
O   -2.1456383   -0.0005410    6.8851312  
C    0.0786232   -0.0009323    6.0245000  
O    0.4683759   -0.0012588    7.1921102  
C    1.0143166   -0.0008442    4.8859032  
H    2.1107198   -0.0000632    2.0421868  
H   -2.9622183    0.0003270    4.3293377  
H   -1.5042274   -0.0009692    7.6184419  
H    2.0724152   -0.0013148    5.1109744  
