58

C    3.3321174    0.0004717   -1.3379335  
C    2.6974184    0.0000121   -2.5332312  
C    1.2800440   -0.0002115   -2.2052839  
C    1.2395035    0.0000645   -0.7271295  
N    2.4394064    0.0005461   -0.2131037  
C    0.0000000    0.0000000    0.0000000  
C   -1.1468696    0.0000636   -0.7169542  
O   -2.3742199    0.0000073   -0.1695491  
C   -1.1388768    0.0001610   -2.2096354  
O   -2.2206230    0.0000908   -2.7970413  
C    0.1454524    0.0001820   -2.9324241  
H    3.1367989   -0.0000646   -3.5160945  
H   -2.9844342    0.0001027   -0.9290167  
C    4.7795904    0.0008677   -1.0815724  
C    5.7862022    0.0008773   -1.9861784  
C    7.0047292    0.0013414   -1.1913883  
C    6.5351377    0.0016828    0.2107769  
N    5.2316826    0.0013265    0.2814348  
C    7.4495160    0.0021408    1.3193791  
C    8.7728596    0.0018637    1.0399231  
O    9.7375497    0.0022378    1.9755591  
C    9.2780077    0.0011453   -0.3647071  
O   10.4956955    0.0010510   -0.5448615  
C    8.3200399    0.0007293   -1.4846275  
H    5.7111083    0.0005131   -3.0601603  
H    7.0785137    0.0025898    2.3339070  
H   10.5714818    0.0018717    1.4718634  
H    8.7261893    0.0000960   -2.4872600  
C    0.0950453    0.0004357   -4.4015596  
C    1.1321316    0.0004168   -5.2710601  
C    0.5164653    0.0007459   -6.5891856  
C   -0.9377766    0.0008260   -6.3212968  
N   -1.1909049    0.0007257   -5.0407056  
C   -1.9068825    0.0011813   -7.3823910  
C   -1.4442329    0.0018335   -8.6533316  
O   -2.2350187    0.0022179   -9.7399312  
C    0.0174462    0.0021426   -8.9560765  
O    0.3669318    0.0026149  -10.1363648  
C    0.9916323    0.0017243   -7.8502351  
H    2.1849034    0.0002958   -5.0457873  
H   -2.9634790    0.0010256   -7.1576397  
H   -1.6191307    0.0026809  -10.4948049  
H    2.0413910    0.0020825   -8.1114564  
C    0.8400945    0.7047457    2.2710304  
C    0.0000000    0.0000000    1.4700000  
C   -0.8844236   -0.7423113    2.3369512  
C   -0.4878984   -0.4098547    3.7186280  
N    0.5629682    0.4714286    3.6095011  
C   -1.0836927   -0.9095027    4.8308716  
C   -2.1891196   -1.8367527    4.6554461  
O   -2.7906899   -2.3413415    5.5944904  
C   -2.6257283   -2.2031529    3.2011665  
O   -3.5549479   -2.9829990    3.0410059  
C   -1.9068976   -1.5999348    2.0816745  
H   -0.7774656   -0.6525820    5.8354244  
H   -2.2155208   -1.8586617    1.0779135  
H    1.6384792    1.3747609    1.9961646  
H    1.0518368    0.8833920    4.3830260  
