58

C    1.7720688   -2.0859335   -5.3149821  
C    0.8968264   -1.6247192   -4.3847633  
C   -0.0065338   -0.7270827   -5.0652222  
C    0.4171840   -0.7029978   -6.4782597  
N    1.5002593   -1.5471467   -6.5634081  
C   -0.1857668    0.0284589   -7.4494061  
C   -1.3281509    0.8467743   -7.0781197  
O   -1.9388961    1.5411255   -7.8800975  
C   -1.7940050    0.8367266   -5.5872527  
O   -2.7544408    1.5219332   -5.2627290  
C   -1.0641734    0.0073898   -4.6315339  
H    0.8854566   -1.8836207   -3.3409936  
H    0.1408069    0.0318498   -8.4800605  
H    2.5929129   -2.7739334   -5.1934838  
C    3.2455516   -5.2618538   -8.1917013  
C    2.6080972   -4.3449580   -7.4190242  
C    2.7043103   -3.0774491   -8.1038596  
C    3.4554316   -3.3329018   -9.3477861  
N    3.7545669   -4.6757933   -9.3406907  
C    3.7569705   -2.3861014  -10.2720956  
C    3.3122334   -1.0245631  -10.0251983  
O    3.5342205   -0.1009913  -10.7972339  
C    2.5154328   -0.7311887   -8.7141516  
O    2.1360902    0.4113844   -8.4953212  
C    2.2512042   -1.8345383   -7.7940133  
H    2.1257099   -4.5348280   -6.4767588  
H    4.3089319   -2.5945452  -11.1780757  
H    3.3864836   -6.3163517   -8.0183172  
H    4.2624745   -5.1565122  -10.0604027  
C    1.1319248    0.0015675   -0.8009270  
C    0.7969916    0.0034959   -2.1169404  
C   -0.6453336    0.0035703   -2.1842672  
C   -1.1266831    0.0015415   -0.7896027  
N    0.0000000    0.0000000    0.0000000  
C   -2.4346129    0.0013924   -0.4276297  
C   -3.4350110    0.0031352   -1.4820184  
O   -4.6384610    0.0030897   -1.2583919  
C   -2.9478958    0.0050460   -2.9661075  
O   -3.7809377    0.0062160   -3.8623775  
C   -1.5113821    0.0053068   -3.2312125  
H    1.4821240    0.0045436   -2.9459192  
H   -2.7664565    0.0000185    0.6013447  
H    2.1104318    0.0009428   -0.3488058  
C    0.8175213    0.6860729    2.3021913  
C    0.0000000    0.0000000    1.4700000  
C   -0.8887526   -0.7456559    2.3478473  
C   -0.4549825   -0.3816753    3.7138435  
N    0.5448156    0.4573574    3.6934124  
C   -1.0945674   -0.9182058    4.8835240  
C   -2.1210866   -1.7789155    4.6970523  
O   -2.8083856   -2.3554314    5.6976972  
C   -2.5824069   -2.1655116    3.3310774  
O   -3.5227682   -2.9541547    3.2362962  
C   -1.9100805   -1.6015804    2.1470656  
H   -0.7567140   -0.6349833    5.8697035  
H   -3.4728268   -2.9124471    5.2533954  
H   -2.2742832   -1.9066565    1.1752040  
H    1.6189533    1.3585343    2.0405121  
