58

C    0.0000000    0.0000000    0.0000000  
C    1.0541691   -0.0001722   -0.8560385  
C    0.5103148   -0.0000454   -2.1935953  
C   -0.9576360    0.0002459   -2.0455733  
N   -1.2018453   -0.0001391   -0.6915972  
C   -1.8348299    0.0008316   -3.0810614  
C   -1.2972830    0.0009736   -4.4314610  
O   -2.0050651    0.0014265   -5.4301325  
C    0.2542642    0.0004184   -4.6117570  
O    0.7184692    0.0002257   -5.7439117  
C    1.0974567    0.0000874   -3.4189124  
H    2.0940754   -0.0005483   -0.5817975  
H   -2.1128192    0.0014911   -0.2706798  
C    4.3636281   -2.0897860   -1.3068084  
C    3.1526646   -1.6280929   -1.7123717  
C    3.3926039   -0.7336531   -2.8201811  
C    4.8530879   -0.7119657   -3.0282839  
N    5.3836012   -1.5543088   -2.0785979  
C    5.4827015    0.0161948   -3.9848787  
C    4.6675287    0.8332388   -4.8683193  
O    5.1402575    1.5246597   -5.7609365  
C    3.1187362    0.8256860   -4.6658587  
O    2.4221621    1.5098520   -5.4033969  
C    2.5562225   -0.0001552   -3.6002994  
H    2.2000533   -1.8846674   -1.2842191  
H    6.5552933    0.0178694   -4.1207268  
H    4.5967585   -2.7759988   -0.5089036  
H    6.3609949   -1.7514456   -1.9650836  
C   -4.0214236    0.6873766   -1.9917560  
C   -3.2941060    0.0012872   -2.9038252  
C   -4.2729610   -0.7438343   -3.6804439  
C   -5.5765683   -0.3795584   -3.0850485  
N   -5.4354539    0.4591728   -2.0947929  
C   -6.8150141   -0.9155377   -3.5790778  
C   -6.7539645   -1.7760021   -4.6208112  
O   -7.8303740   -2.3520049   -5.1825968  
C   -5.4537075   -2.1628853   -5.2435586  
O   -5.4732669   -2.9512803   -6.1886893  
C   -4.1970784   -1.5995195   -4.7187480  
H   -7.7531674   -0.6321093   -3.1247141  
H   -7.4696157   -2.9089624   -5.8959021  
H   -3.2763225   -1.9047893   -5.1975479  
H   -3.6647949    1.3595205   -1.2275490  
C    0.0000000    0.0000000    1.4700000  
C    1.0662921    0.0000102    2.3034270  
C    0.4961870   -0.0000064    3.6418889  
C   -0.9663858    0.0000850    3.4240247  
N   -1.2632773    0.0000084    2.1528658  
C   -1.8985362    0.0000517    4.5177257  
C   -1.3925775   -0.0004564    5.7720543  
O   -2.1456383   -0.0005410    6.8851312  
C    0.0786232   -0.0009323    6.0245000  
O    0.4683759   -0.0012588    7.1921102  
C    1.0143166   -0.0008442    4.8859032  
H    2.1107198   -0.0000632    2.0421868  
H   -2.9622183    0.0003270    4.3293377  
H   -1.5042274   -0.0009692    7.6184419  
H    2.0724152   -0.0013148    5.1109744  
