60

C    3.3003553    0.0005277   -1.4738972  
C    2.5232826    0.0003499   -2.6090734  
C    1.1623211   -0.0001317   -2.1820095  
C    1.1711890    0.0000584   -0.7636139  
N    2.4852302   -0.0014919   -0.3662346  
C    0.0000000    0.0000000    0.0000000  
C   -1.2020381    0.0000521   -0.6806487  
O   -2.3759247    0.0003495    0.0157730  
C   -1.2314647   -0.0005110   -2.0955514  
O   -2.5054374   -0.0008035   -2.6250194  
C   -0.0764503   -0.0007270   -2.8495198  
H    2.8036263    0.0088182    0.5858675  
H   -3.0835633    0.0000349   -0.6418833  
H   -2.4360028   -0.0011526   -3.5845934  
H   -0.1304074   -0.0013418   -3.9319087  
H    4.3715555    0.0004894   -1.3667115  
C    5.8650080   -2.0107117   -4.7661418  
C    5.0212882   -1.6285493   -3.7793960  
C    4.0882060   -0.7127451   -4.4174869  
C    4.5276509   -0.6558962   -5.8282455  
N    5.5687246   -1.4147709   -6.0386380  
C    3.8513830    0.1541356   -6.8037440  
C    2.7843685    0.8743253   -6.3888445  
O    2.0599319    1.6727811   -7.1911545  
C    2.3162665    0.8377519   -4.9719100  
O    1.3381236    1.5190136   -4.6647624  
C    3.0267455   -0.0008949   -3.9901687  
H    5.0308654   -1.9308546   -2.7461506  
H    1.3721631    2.0479798   -6.6120577  
H    6.7017030   -2.6878025   -4.6993397  
C    4.7669144   -0.8479334   -8.9477552  
C    4.3180758    0.1850328   -8.1973523  
C    4.3959319    1.3453190   -9.0715222  
C    4.9275986    0.8166999  -10.3460718  
N    5.1469203   -0.4683933  -10.2795650  
C    5.1543669    1.6629408  -11.4851675  
C    4.8628725    2.9774463  -11.3569474  
O    5.0251650    3.8813998  -12.3380535  
C    4.3246857    3.5410788  -10.0838271  
O    4.0819030    4.7469871  -10.0384182  
C    4.1008079    2.6525245   -8.9295841  
H    5.5439465    1.2497869  -12.4041024  
H    4.7336900    4.7253686  -11.9482951  
H    3.7096671    3.0996375   -8.0255225  
H    4.8649049   -1.8831339   -8.6618673  
C    0.8175213    0.6860729    2.3021913  
C    0.0000000    0.0000000    1.4700000  
C   -0.8887526   -0.7456559    2.3478473  
C   -0.4549825   -0.3816753    3.7138435  
N    0.5448156    0.4573574    3.6934124  
C   -1.0945674   -0.9182058    4.8835240  
C   -2.1210866   -1.7789155    4.6970523  
O   -2.8083856   -2.3554314    5.6976972  
C   -2.5824069   -2.1655116    3.3310774  
O   -3.5227682   -2.9541547    3.2362962  
C   -1.9100805   -1.6015804    2.1470656  
H   -0.7567140   -0.6349833    5.8697035  
H   -3.4728268   -2.9124471    5.2533954  
H   -2.2742832   -1.9066565    1.1752040  
H    1.6189533    1.3585343    2.0405121  
