62

C    1.9074108   -2.1157062   -5.2171228  
C    1.7366753   -1.6153229   -6.4871356  
C    0.6103628   -0.7412451   -6.4423316  
C    0.1310741   -0.7480685   -5.1073549  
N    0.9400188   -1.5942802   -4.3903111  
C   -0.9736305    0.0040464   -4.6965761  
C   -1.6058310    0.7773675   -5.6507637  
O   -2.6892514    1.5315493   -5.3037402  
C   -1.1427646    0.7971172   -6.9879235  
O   -1.8787373    1.6162795   -7.8189834  
C   -0.0531729    0.0551810   -7.3939360  
H    0.8493707   -1.7918999   -3.4101531  
H   -2.9736292    1.9867680   -6.1069646  
H   -1.5003168    1.5722378   -8.7024209  
H    0.2783196    0.0903623   -8.4251257  
H    2.6418349   -2.8044007   -4.8359680  
C    1.1188638    0.0008222   -0.8003807  
C    0.0000000    0.0000000    0.0000000  
C   -1.1323863    0.0008897   -0.8673528  
C   -0.6382665    0.0019678   -2.1969280  
N    0.7324013    0.0038482   -2.1202242  
C   -1.4770921    0.0027316   -3.3154799  
C   -2.8395481    0.0020941   -3.0876851  
O   -3.7039209    0.0024421   -4.1440337  
C   -3.3517872    0.0013923   -1.7684324  
O   -4.7300501    0.0012357   -1.7073109  
C   -2.5248545    0.0009118   -0.6644811  
H    1.3576309   -0.0056164   -2.9057046  
H   -4.5940041    0.0021820   -3.7685117  
H   -4.9934604    0.0007252   -0.7819900  
H   -2.9462579    0.0005598    0.3339668  
H    2.1619891    0.0009357   -0.5342068  
C    3.6631048   -5.3029649   -8.0854493  
C    2.9492245   -4.4685716   -7.2944102  
C    3.0507241   -3.1662376   -7.9348194  
C    3.8846877   -3.4038744   -9.1325747  
N    4.2465796   -4.6545768   -9.2262058  
C    4.2225627   -2.3473946  -10.0462360  
C    3.7485237   -1.1098518   -9.7758493  
O    3.9853948   -0.0314371  -10.5419786  
C    2.9040954   -0.8382573   -8.5752915  
O    2.5073607    0.3124158   -8.3915165  
C    2.5713789   -1.9386678   -7.6531625  
H    2.4191405   -4.7073746   -6.3882870  
H    4.8339519   -2.5495237  -10.9135642  
H    3.5191837    0.6977387  -10.0946494  
H    3.8324624   -6.3598525   -7.9539980  
C    2.3971438    2.0127888    3.1728260  
C    1.9431056    1.6308205    1.9564670  
C    0.8496017    0.7127664    2.2356185  
C    0.7794028    0.6545384    3.7115134  
N    1.6840587    1.4146091    4.2663826  
C   -0.1885723   -0.1578550    4.3957118  
C   -1.0476298   -0.8789867    3.6398520  
O   -2.0015663   -1.6796266    4.1448486  
C   -1.0022026   -0.8410666    2.1483229  
O   -1.8147390   -1.5232959    1.5241687  
C    0.0000000    0.0000000    1.4700000  
H    2.3054237    1.9346118    0.9892483  
H   -0.2170646   -0.1815267    5.4753125  
H   -2.4487139   -2.0549881    3.3649027  
H    3.2048689    2.6911772    3.3971983  
