62

C   -3.3040214    0.0264882   -1.5420423  
C   -2.5844501    0.0212895   -0.3695849  
C   -1.2039619    0.0096957   -0.7283587  
C   -1.1422058    0.0085939   -2.1454373  
N   -2.4348070    0.0169954   -2.6077462  
C    0.0655084   -0.0014075   -2.8497918  
C    1.2321345   -0.0101545   -2.1101399  
O    2.4392004   -0.0197567   -2.7472523  
C    1.1910818   -0.0095906   -0.6955266  
O    2.4370746   -0.0193929   -0.1032865  
C    0.0000000    0.0000000    0.0000000  
H   -3.0030554    0.0242485    0.6222587  
H   -2.7053185    0.0288948   -3.5745256  
H    0.1193383   -0.0024456   -3.9297471  
H    3.1131983   -0.0250046   -2.0551791  
H    2.3199563   -0.0182746    0.8516405  
C   -5.7082278    0.0289584   -0.7673025  
C   -6.9603017    0.0273313   -1.3371933  
C   -6.7740977    0.0338077   -2.7513664  
C   -5.3753896    0.0389661   -2.9869807  
N   -4.7575722    0.0377978   -1.7610452  
C   -4.8249743    0.0456850   -4.2721993  
C   -5.7025327    0.0469176   -5.3390020  
O   -5.2187679    0.0530348   -6.6153040  
C   -7.1013436    0.0422116   -5.1242398  
O   -7.8423769    0.0445930   -6.2879439  
C   -7.6450452    0.0358557   -3.8566137  
H   -3.7598515    0.0497842   -4.4584755  
H   -5.9885022    0.0531314   -7.1990611  
H   -8.7756364    0.0410812   -6.0542398  
H   -8.7205425    0.0325406   -3.7232980  
H   -5.4180959    0.0259586    0.2694103  
C   -8.2407011    2.1188896    2.3055117  
C   -9.5121901    1.6511029    2.3980661  
C   -9.7150706    0.7593683    1.2807099  
C   -8.4484610    0.7458640    0.5241993  
N   -7.5961737    1.5905180    1.1972932  
C   -8.2340049    0.0217216   -0.6033340  
C   -9.3234505   -0.7989776   -1.1054258  
O   -9.2291827   -1.4871608   -2.1133041  
C  -10.6737807   -0.7996995   -0.3203055  
O  -11.5982735   -1.4865307   -0.7336284  
C  -10.7845140    0.0219654    0.8823814  
H  -10.2265173    1.9022218    3.1617999  
H  -11.7227461    0.0157455    1.4203461  
H   -7.7203649    2.8053328    2.9535364  
H   -6.6508342    1.7905789    0.9264500  
C    2.3971438    2.0127888    3.1728260  
C    1.9431056    1.6308205    1.9564670  
C    0.8496017    0.7127664    2.2356185  
C    0.7794028    0.6545384    3.7115134  
N    1.6840587    1.4146091    4.2663826  
C   -0.1885723   -0.1578550    4.3957118  
C   -1.0476298   -0.8789867    3.6398520  
O   -2.0015663   -1.6796266    4.1448486  
C   -1.0022026   -0.8410666    2.1483229  
O   -1.8147390   -1.5232959    1.5241687  
C    0.0000000    0.0000000    1.4700000  
H    2.3054237    1.9346118    0.9892483  
H   -0.2170646   -0.1815267    5.4753125  
H   -2.4487139   -2.0549881    3.3649027  
H    3.2048689    2.6911772    3.3971983  
