64

C    2.3128797   -2.1207449   -5.9853291  
C    1.8202489   -1.6594119   -4.7865988  
C    0.7463179   -0.7716430   -5.0917841  
C    0.6288902   -0.7306953   -6.5047457  
N    1.5962672   -1.5596062   -7.0163180  
C   -0.3301656    0.0460749   -7.1617305  
C   -1.1864714    0.7949192   -6.3780529  
O   -2.1419342    1.5709320   -6.9678911  
C   -1.0847732    0.7675649   -4.9667673  
O   -2.0088868    1.5678194   -4.3272760  
C   -0.1387079    0.0017019   -4.3179684  
H    2.1902180   -1.9286751   -3.8121174  
H    1.7489525   -1.7404138   -7.9920111  
H   -2.6233438    2.0035650   -6.2507168  
H   -1.8718317    1.4918812   -3.3780374  
H    3.1196525   -2.8045574   -6.1865156  
C   -0.0280289   -3.1061273  -10.3179933  
C   -0.0492146   -2.4367595   -9.1163413  
C   -0.3163946   -1.0662646   -9.4078182  
C   -0.4503187   -0.9586372  -10.8157975  
N   -0.2675630   -2.2151041  -11.3378216  
C   -0.7183528    0.2531884  -11.4595566  
C   -0.8539575    1.3767807  -10.6675152  
O   -1.1163853    2.5856794  -11.2443247  
C   -0.7234283    1.2896776   -9.2610328  
O   -0.8851022    2.4963152   -8.6120094  
C   -0.4587415    0.0945614   -8.6252930  
H    0.1095856   -2.8813602   -8.1488166  
H   -0.3153528   -2.4512076  -12.3124769  
H   -0.8214333    0.3418956  -12.5322672  
H   -1.1713806    3.2261172  -10.5231593  
H   -0.7817049    2.3495258   -7.6668294  
H    0.1404130   -4.1483897  -10.5284118  
C    3.3041273    0.0001178   -1.5420428  
C    2.5845373   -0.0004780   -0.3695851  
C    1.2040007   -0.0000007   -0.7283589  
C    1.1422374    0.0006038   -2.1454372  
N    2.4348641    0.0026111   -2.6077464  
C   -0.0655179    0.0008799   -2.8497918  
C   -1.2321766    0.0002325   -2.1101402  
O   -2.4392814    0.0001148   -2.7472522  
C   -1.1911209   -0.0000007   -0.6955266  
O   -2.4371528   -0.0002320   -0.1032862  
C    0.0000000    0.0000000    0.0000000  
H    3.0031533   -0.0000660    0.6222584  
H    2.7054631   -0.0071097   -3.5745261  
H   -3.1132988   -0.0000648   -2.0551787  
H   -2.3200282   -0.0004072    0.8516409  
H    4.3686625    0.0004073   -1.7024290  
C    2.5528530    2.1414826    2.8079335  
C    2.0663498    1.7338582    4.0032312  
C    0.9804344    0.8229586    3.6752840  
C    0.9495562    0.7966882    2.1971295  
N    1.8690446    1.5676019    1.6831036  
C    0.0000000    0.0000000    1.4700000  
C   -0.8785127   -0.7372425    2.1869543  
O   -1.8187535   -1.5261249    1.6395491  
C   -0.8723269   -0.7321790    3.6796354  
O   -1.7010379   -1.4274584    4.2670412  
C    0.1115397    0.0933559    4.4024240  
H    2.4028853    2.0163452    4.9860947  
H   -2.2861435   -1.9184361    2.3990168  
H    0.0832434    0.0693689    5.4835595  
H    3.3664920    2.8238276    2.6198634  
