58

C   -3.2572830   -0.0232444   -1.5109398  
C   -2.5378817   -0.0181672   -0.3591974  
C   -1.1434731   -0.0082956   -0.7338502  
C   -1.1092305   -0.0080067   -2.2088479  
N   -2.4226898   -0.0176966   -2.6182622  
C    0.0265527    0.0004444   -2.9515660  
C    1.3002704    0.0096596   -2.2514971  
O    2.3786151    0.0176009   -2.8306408  
C    1.2877401    0.0092738   -0.6895599  
O    2.3539370    0.0166785   -0.0892023  
C    0.0000000    0.0000000    0.0000000  
H   -2.9383324   -0.0211950    0.6389222  
H    0.0296280    0.0006228   -4.0327229  
H   -2.7279857   -0.0183709   -3.5742125  
C   -5.6461989   -0.0410305   -0.7029989  
C   -4.7160130   -0.0335333   -1.6923281  
C   -5.4338487   -0.0379004   -2.9451366  
C   -6.8687767   -0.0486041   -2.6021261  
N   -6.9297056   -0.0504169   -1.2276537  
C   -7.8765537   -0.0549280   -3.5109994  
C   -7.5244508   -0.0511510   -4.9211571  
O   -8.3594182   -0.0563226   -5.8162015  
C   -6.0109935   -0.0400922   -5.3073318  
O   -5.7023816   -0.0371357   -6.4913966  
C   -5.0158695   -0.0337218   -4.2379678  
H   -3.9701151   -0.0258690   -4.5137579  
H   -5.5020423   -0.0407051    0.3652274  
H   -7.7761899   -0.0555106   -0.6886865  
C   -9.8671929    0.6343971   -2.1245683  
C   -9.2989802   -0.0653933   -3.1401974  
C  -10.3556821   -0.8146636   -3.7780146  
C  -11.5949881   -0.4916907   -3.0454852  
N  -11.2305894    0.3913045   -2.0553222  
C  -12.8179660   -0.9997871   -3.3419104  
C  -12.9204565   -1.9267717   -4.4566885  
O  -13.9772618   -2.4385810   -4.8023964  
C  -11.6207663   -2.2832069   -5.2463505  
O  -11.6946299   -3.0627396   -6.1866338  
C  -10.3604768   -1.6713794   -4.8326007  
H  -13.7145928   -0.7497457   -2.7919568  
H   -9.4652075   -1.9232348   -5.3846755  
H   -9.4046026    1.3070794   -1.4207229  
H  -11.8586984    0.7981958   -1.3867669  
C    2.5528530    2.1414826    2.8079335  
C    2.0663498    1.7338582    4.0032312  
C    0.9804344    0.8229586    3.6752840  
C    0.9495562    0.7966882    2.1971295  
N    1.8690446    1.5676019    1.6831036  
C    0.0000000    0.0000000    1.4700000  
C   -0.8785127   -0.7372425    2.1869543  
O   -1.8187535   -1.5261249    1.6395491  
C   -0.8723269   -0.7321790    3.6796354  
O   -1.7010379   -1.4274584    4.2670412  
C    0.1115397    0.0933559    4.4024240  
H    2.4028853    2.0163452    4.9860947  
H   -2.2861435   -1.9184361    2.3990168  
H    0.0832434    0.0693689    5.4835595  
H    3.3664920    2.8238276    2.6198634  
