58

C    4.1786362   -0.7024182   -4.3986825  
C    3.1006046    0.0006270   -3.9654957  
C    2.5980044    0.7412293   -5.0985167  
C    3.4778843    0.4096235   -6.2354594  
N    4.4155754   -0.4695854   -5.7449322  
C    3.3346013    0.9081453   -7.4895129  
C    2.2409252    1.8331992   -7.7358538  
O    2.0282309    2.3366422   -8.8311198  
C    1.2968964    2.1986659   -6.5462959  
O    0.3728592    2.9766653   -6.7415714  
C    1.5520094    1.5968173   -5.2399476  
H    3.9910107    0.6518786   -8.3094907  
H    0.8936632    1.8548854   -4.4215923  
H    4.8200669   -1.3708660   -3.8476533  
C    3.2798080    0.0005858   -1.4499658  
C    2.5571137    0.0005570   -2.5996560  
C    1.1637429    0.0001551   -2.2210364  
C    1.1336961   -0.0000197   -0.7459473  
N    2.4483512   -0.0001427   -0.3402725  
C    0.0000000    0.0000000    0.0000000  
C   -1.2757372   -0.0000184   -0.6964412  
O   -2.3524598   -0.0000638   -0.1142306  
C   -1.2676502   -0.0000868   -2.2584079  
O   -2.3355773   -0.0004095   -2.8557292  
C    0.0181553    0.0001764   -2.9516295  
H    0.0150781    0.0003327   -4.0331631  
H    4.3498544    0.0008612   -1.3200032  
H    2.7563629    0.0012822    0.6148055  
C    5.5009991   -1.0715774   -6.5325618  
C    6.4511620   -1.9400669   -6.1148339  
C    7.2604763   -2.2063175   -7.2940798  
C    6.6403560   -1.3940683   -8.3628572  
N    5.6085847   -0.7266623   -7.9223944  
C    7.1552825   -1.3810755   -9.7044111  
C    8.2406154   -2.1445041   -9.9662588  
O    8.8261080   -2.2279495  -11.1730217  
C    8.8892090   -2.9748863   -8.9089261  
O    9.8739173   -3.6454886   -9.2185434  
C    8.3422109   -2.9712865   -7.5404575  
H    6.5862256   -2.3493961   -5.1282826  
H    6.6820551   -0.7782507  -10.4657052  
H    9.5692096   -2.8450407  -11.0459347  
H    8.8408878   -3.5862232   -6.8032982  
C    2.5528530    2.1414826    2.8079335  
C    2.0663498    1.7338582    4.0032312  
C    0.9804344    0.8229586    3.6752840  
C    0.9495562    0.7966882    2.1971295  
N    1.8690446    1.5676019    1.6831036  
C    0.0000000    0.0000000    1.4700000  
C   -0.8785127   -0.7372425    2.1869543  
O   -1.8187535   -1.5261249    1.6395491  
C   -0.8723269   -0.7321790    3.6796354  
O   -1.7010379   -1.4274584    4.2670412  
C    0.1115397    0.0933559    4.4024240  
H    2.4028853    2.0163452    4.9860947  
H   -2.2861435   -1.9184361    2.3990168  
H    0.0832434    0.0693689    5.4835595  
H    3.3664920    2.8238276    2.6198634  
