62

C    1.1188640    0.0008225   -0.8003806  
C    0.0000000    0.0000000    0.0000000  
C   -1.1323864    0.0008894   -0.8673523  
C   -0.6382662    0.0019674   -2.1969278  
N    0.7324012    0.0038482   -2.1202238  
C   -1.4770921    0.0027310   -3.3154804  
C   -2.8395484    0.0020931   -3.0876848  
O   -3.7039203    0.0024407   -4.1440338  
C   -3.3517872    0.0013915   -1.7684323  
O   -4.7300495    0.0012347   -1.7073113  
C   -2.5248544    0.0009114   -0.6644813  
H   -1.1067576    0.0036981   -4.3313808  
H   -4.5940038    0.0021809   -3.7685116  
H   -4.9934601    0.0007245   -0.7819905  
H   -2.9462578    0.0005591    0.3339665  
H    2.1619890    0.0009362   -0.5342066  
C    4.5412311   -2.0990423   -2.8732840  
C    3.3927951   -1.6299043   -2.3209431  
C    2.7903275   -0.7451813   -3.2900321  
C    3.6883334   -0.7373091   -4.4606360  
N    4.7307585   -1.5775589   -4.1440610  
C    3.4698847   -0.0211176   -5.5924726  
C    2.2703741    0.7967039   -5.6623077  
O    1.9845385    1.4779286   -6.6382851  
C    1.3053385    0.8036751   -4.4341122  
O    0.2924793    1.4886258   -4.4812227  
C    1.6478429   -0.0100097   -3.2702997  
H    3.0113377   -1.8754395   -1.3458453  
H    4.1412524   -0.0294712   -6.4398842  
H    5.2651730   -2.7816953   -2.4588174  
C    6.4548968   -3.1121216   -5.1827873  
C    5.8697547   -1.8773089   -5.0236850  
C    6.5783281   -0.9692675   -5.8651030  
C    7.5935074   -1.7134881   -6.5189174  
N    7.4917313   -3.0104447   -6.0805539  
C    8.4873152   -1.1379001   -7.4269898  
C    8.3536805    0.2135324   -7.6798725  
O    9.1998404    0.8261925   -8.5583233  
C    7.3473128    0.9730812   -7.0371223  
O    7.3436278    2.3057653   -7.3938899  
C    6.4653761    0.4059647   -6.1409689  
H    8.0745106   -3.7714400   -6.3792780  
H    9.2633111   -1.6996056   -7.9285055  
H    8.9369792    1.7553338   -8.5877559  
H    6.6347075    2.7466694   -6.9157277  
H    5.7049121    1.0131555   -5.6640056  
H    6.2156007   -4.0570437   -4.7258201  
C    2.3971438    2.0127888    3.1728260  
C    1.9431056    1.6308205    1.9564670  
C    0.8496017    0.7127664    2.2356185  
C    0.7794028    0.6545384    3.7115134  
N    1.6840587    1.4146091    4.2663826  
C   -0.1885723   -0.1578550    4.3957118  
C   -1.0476298   -0.8789867    3.6398520  
O   -2.0015663   -1.6796266    4.1448486  
C   -1.0022026   -0.8410666    2.1483229  
O   -1.8147390   -1.5232959    1.5241687  
C    0.0000000    0.0000000    1.4700000  
H    2.3054237    1.9346118    0.9892483  
H   -0.2170646   -0.1815267    5.4753125  
H   -2.4487139   -2.0549881    3.3649027  
H    3.2048689    2.6911772    3.3971983  
