58

C    3.2798085    0.0005856   -1.4499649  
C    2.5571143    0.0005565   -2.5996559  
C    1.1637433    0.0001547   -2.2210360  
C    1.1336962   -0.0000200   -0.7459472  
N    2.4483513   -0.0001427   -0.3402725  
C    0.0000000    0.0000000    0.0000000  
C   -1.2757370   -0.0000187   -0.6964418  
O   -2.3524597   -0.0000639   -0.1142312  
C   -1.2676497   -0.0000874   -2.2584083  
O   -2.3355764   -0.0004102   -2.8557298  
C    0.0181558    0.0001758   -2.9516298  
H    2.9547351    0.0006074   -3.5989111  
H    4.3498549    0.0008611   -1.3200028  
H    2.7563628    0.0012824    0.6148065  
C    0.0139736    0.0003878   -4.4216241  
C    1.0778895    0.0017004   -5.2580809  
C    0.5039791    0.0012669   -6.5949156  
C   -0.9579668   -0.0005057   -6.3728911  
N   -1.2512405   -0.0009472   -5.1008931  
C   -1.8932246   -0.0013662   -7.4639358  
C   -1.3908374   -0.0001066   -8.7196985  
O   -2.1470615   -0.0007110   -9.8306288  
C    0.0796376    0.0020652   -8.9763288  
O    0.4660664    0.0029997  -10.1450427  
C    1.0185661    0.0028685   -7.8403987  
H    2.1230560    0.0029144   -4.9998129  
H   -1.5077404    0.0005464  -10.5657611  
H    2.0760187    0.0045651   -8.0684792  
C   -3.3399614   -0.0034106   -7.2034582  
C   -3.9712563   -0.0047445   -6.0063598  
C   -5.3895567   -0.0065236   -6.3302737  
C   -5.4343026   -0.0058754   -7.8083064  
N   -4.2358685   -0.0041326   -8.3257442  
C   -6.6758687   -0.0072679   -8.5319074  
C   -7.8206927   -0.0096082   -7.8116939  
O   -9.0495943   -0.0111101   -8.3556051  
C   -7.8084517   -0.0106905   -6.3190419  
O   -8.8885211   -0.0127085   -5.7285618  
C   -6.5220728   -0.0091814   -5.5999098  
H   -3.5290816   -0.0046359   -5.0247501  
H   -6.6789427   -0.0065460   -9.6121382  
H   -9.6576436   -0.0126694   -7.5944050  
H   -6.5560905   -0.0101486   -4.5186739  
C    0.0000000    0.0000000    1.4700000  
C    1.0662921    0.0000102    2.3034270  
C    0.4961870   -0.0000064    3.6418889  
C   -0.9663858    0.0000850    3.4240247  
N   -1.2632773    0.0000084    2.1528658  
C   -1.8985362    0.0000517    4.5177257  
C   -1.3925775   -0.0004564    5.7720543  
O   -2.1456383   -0.0005410    6.8851312  
C    0.0786232   -0.0009323    6.0245000  
O    0.4683759   -0.0012588    7.1921102  
C    1.0143166   -0.0008442    4.8859032  
H    2.1107198   -0.0000632    2.0421868  
H   -2.9622183    0.0003270    4.3293377  
H   -1.5042274   -0.0009692    7.6184419  
H    2.0724152   -0.0013148    5.1109744  
