58

C    3.2573671   -0.0002916   -1.5109383  
C    2.5379468   -0.0001707   -0.3591962  
C    1.1435044    0.0000332   -0.7338505  
C    1.1092610   -0.0000080   -2.2088480  
N    2.4227564    0.0001912   -2.6182614  
C   -0.0265531   -0.0002519   -2.9515665  
C   -1.3003034   -0.0002638   -2.2514983  
O   -2.3786783   -0.0004131   -2.8306430  
C   -1.2877727    0.0000312   -0.6895614  
O   -2.3539955    0.0003305   -0.0892044  
C    0.0000000    0.0000000    0.0000000  
H    2.9384088   -0.0000366    0.6389240  
H    4.3270398   -0.0004761   -1.6439444  
H    2.7280494   -0.0013402   -3.5742117  
C    2.4624173   -2.0918862   -5.9392956  
C    1.9141445   -1.6298144   -4.7860555  
C    0.8439987   -0.7345868   -5.1577961  
C    0.8135191   -0.7128498   -6.6327159  
N    1.8196257   -1.5559196   -7.0448718  
C   -0.0596539    0.0159613   -7.3730586  
C   -1.0343381    0.8337036   -6.6703333  
O   -1.8629430    1.5257398   -7.2472226  
C   -1.0200967    0.8261113   -5.1084287  
O   -1.8357401    1.5108614   -4.5058477  
C   -0.0307350   -0.0004643   -4.4215606  
H    2.2241310   -1.8866335   -3.7887767  
H   -0.0651886    0.0176600   -8.4542044  
H    3.2821088   -2.7786947   -6.0745348  
C    2.5052318   -3.0342755   -8.9900022  
C    2.1571059   -1.8449154   -8.4461175  
C    2.1877565   -0.9025160   -9.5540177  
C    2.5847294   -1.7152884  -10.7238031  
N    2.7721387   -2.9657248  -10.3993404  
C    2.7302384   -1.1429125  -12.0338793  
C    2.4897146    0.1811544  -12.1692655  
O    2.5872128    0.8465858  -13.3327667  
C    2.0871288    1.0281032  -11.0079024  
O    1.8843618    2.2262232  -11.2044086  
C    1.9446692    0.4175223   -9.6741773  
H    3.0217543   -1.7604644  -12.8708726  
H    2.3571705    1.7671642  -13.1119307  
H    1.6512117    1.0651214   -8.8588697  
H    2.5992075   -3.9883142   -8.4960866  
C    0.0000000    0.0000000    1.4700000  
C    1.0662921    0.0000102    2.3034270  
C    0.4961870   -0.0000064    3.6418889  
C   -0.9663858    0.0000850    3.4240247  
N   -1.2632773    0.0000084    2.1528658  
C   -1.8985362    0.0000517    4.5177257  
C   -1.3925775   -0.0004564    5.7720543  
O   -2.1456383   -0.0005410    6.8851312  
C    0.0786232   -0.0009323    6.0245000  
O    0.4683759   -0.0012588    7.1921102  
C    1.0143166   -0.0008442    4.8859032  
H    2.1107198   -0.0000632    2.0421868  
H   -2.9622183    0.0003270    4.3293377  
H   -1.5042274   -0.0009692    7.6184419  
H    2.0724152   -0.0013148    5.1109744  
