62

C   -1.0600880    0.3578720   -0.8003809  
C    0.0000000    0.0000000    0.0000000  
C    1.0723465   -0.3638283   -0.8673532  
C    0.6039544   -0.2064601   -2.1969283  
N   -0.6949886    0.2311254   -2.1202243  
C    1.3982713   -0.4760683   -3.3154816  
C    2.6890373   -0.9121986   -3.0876864  
O    3.5076868   -1.1896025   -4.1440359  
C    3.1744724   -1.0757325   -1.7684340  
O    4.4800566   -1.5173848   -1.7073138  
C    2.3913294   -0.8102044   -0.6644828  
H    1.0471682   -0.3582738   -4.3313815  
H    4.3508854   -1.4746720   -3.7685146  
H    4.7297315   -1.6013374   -0.7819926  
H    2.7906098   -0.9449513    0.3339647  
H   -2.0482056    0.6921376   -0.5342067  
C   -3.6619622    3.4892605   -2.8760568  
C   -2.7122822    2.6722983   -2.3075956  
C   -2.4221189    1.6479635   -3.2568813  
C   -3.2317754    1.8939913   -4.3952368  
N   -3.9736962    3.0181772   -4.1299509  
C   -3.2069868    1.0793735   -5.5312701  
C   -2.3490069   -0.0031571   -5.5180174  
O   -2.2847068   -0.8310567   -6.6012813  
C   -1.5335498   -0.2653645   -4.3914763  
O   -0.7335736   -1.3805686   -4.5318412  
C   -1.5576823    0.5376962   -3.2702998  
H   -2.2824358    2.7984258   -1.3286589  
H   -4.6322440    3.4407172   -4.7590424  
H   -3.8216741    1.2614028   -6.4020326  
H   -1.6337897   -1.5117954   -6.3864163  
H   -0.2155420   -1.4863912   -3.7280697  
C   -4.1271229    5.2798954   -1.1392857  
C   -4.3183509    4.6917492   -2.3430693  
C   -5.3220144    5.5105895   -3.0053826  
C   -5.6333744    6.5788504   -2.0314945  
N   -4.9359514    6.4488851   -0.9357301  
C   -6.5957908    7.6082008   -2.3130595  
C   -7.2185556    7.5722262   -3.5131449  
O   -8.1382915    8.4687283   -3.9086324  
C   -6.9257215    6.5072956   -4.5173013  
O   -7.5303254    6.5364759   -5.5891328  
C   -5.9344333    5.4624842   -4.2048243  
H   -6.8038229    8.3765286   -1.5827823  
H   -8.3968059    8.1807676   -4.8027246  
H   -5.7507032    4.7089519   -4.9589208  
H   -3.4586313    4.9750158   -0.3498933  
C    2.3971438    2.0127888    3.1728260  
C    1.9431056    1.6308205    1.9564670  
C    0.8496017    0.7127664    2.2356185  
C    0.7794028    0.6545384    3.7115134  
N    1.6840587    1.4146091    4.2663826  
C   -0.1885723   -0.1578550    4.3957118  
C   -1.0476298   -0.8789867    3.6398520  
O   -2.0015663   -1.6796266    4.1448486  
C   -1.0022026   -0.8410666    2.1483229  
O   -1.8147390   -1.5232959    1.5241687  
C    0.0000000    0.0000000    1.4700000  
H    2.3054237    1.9346118    0.9892483  
H   -0.2170646   -0.1815267    5.4753125  
H   -2.4487139   -2.0549881    3.3649027  
H    3.2048689    2.6911772    3.3971983  
