60

C    0.0000000    0.0000000    0.0000000  
C   -1.0384262    0.1694848   -0.8862350  
C   -0.4851965    0.0798387   -2.1979135  
C    0.9068634   -0.1472776   -2.0478676  
N    1.1682310   -0.1883605   -0.7007904  
C    1.7718900   -0.2881861   -3.1372077  
C    1.2215673   -0.1984861   -4.4010418  
O    2.0208149   -0.3290320   -5.4997568  
C   -0.1649821    0.0281106   -4.5711967  
O   -0.5597107    0.0927987   -5.8915557  
C   -1.0189024    0.1674873   -3.4969900  
H   -2.0678325    0.3382013   -0.6200579  
H    2.0703115   -0.3458685   -0.2891812  
H    2.8337974   -0.4612904   -3.0295497  
H    1.4445442   -0.2347484   -6.2693587  
H   -1.5088453    0.2478706   -5.9180056  
C   -3.9576066    2.7667360   -1.4710687  
C   -2.8271121    2.1138558   -1.8449727  
C   -3.1800234    1.2646402   -2.9581309  
C   -4.6191014    1.4778421   -3.2038744  
N   -5.0306830    2.3991790   -2.2686587  
C   -5.3334610    0.8562924   -4.1760221  
C   -4.6386437   -0.0856826   -5.0376764  
O   -5.1939229   -0.6959797   -5.9418356  
C   -3.1145810   -0.3271049   -4.7952848  
O   -2.5190332   -1.1181279   -5.5142190  
C   -2.4534256    0.4021802   -3.7159942  
H   -1.8567700    2.2154177   -1.3924959  
H   -6.3884631    1.0270157   -4.3395270  
H   -5.9660186    2.7519228   -2.1805321  
C   -3.2232237    4.2183980    0.4763605  
C   -4.1478944    3.7466874   -0.3920014  
C   -5.3837247    4.4222833   -0.0275933  
C   -5.0128035    5.2888109    1.1117626  
N   -3.7475843    5.1736118    1.4116613  
C   -5.9717361    6.1336491    1.7688639  
C   -7.2433269    6.1140216    1.3084224  
O   -8.2405883    6.8510521    1.8263949  
C   -7.6486440    5.2505687    0.1602380  
O   -8.8234884    5.2831883   -0.2056825  
C   -6.6465690    4.3928104   -0.4970460  
H   -5.6729837    6.7565859    2.5992893  
H   -9.0216888    6.6226752    1.2907850  
H   -6.9802455    3.7822296   -1.3253460  
H   -2.1773588    3.9624763    0.5367252  
C    3.1301144    0.0010313    3.1728260  
C    2.5367765    0.0002768    1.9564670  
C    1.1089900   -0.0001027    2.2356185  
C    1.0177864    0.0004150    3.7115134  
N    2.1993570    0.0011613    4.2663826  
C   -0.2459220    0.0002880    4.3957118  
C   -1.3675327    0.0000606    3.6398520  
O   -2.6129319   -0.0000866    4.1448486  
C   -1.3083589   -0.0000910    2.1483229  
O   -2.3693264   -0.0004206    1.5241687  
C    0.0000000    0.0000000    1.4700000  
H    3.0096015    0.0001008    0.9892483  
H   -0.2829642    0.0004689    5.4753125  
H   -3.1967446   -0.0002093    3.3649027  
H    4.1849273    0.0015113    3.3971983  
