58

C    1.1319244    0.0015875   -0.8009273  
C    0.7969906    0.0035098   -2.1169405  
C   -0.6453346    0.0035588   -2.1842669  
C   -1.1266838    0.0015218   -0.7896022  
N    0.0000000    0.0000000    0.0000000  
C   -2.4346129    0.0013497   -0.4276287  
C   -3.4350118    0.0030750   -1.4820171  
O   -4.6384616    0.0030084   -1.2583901  
C   -2.9478971    0.0049942   -2.9661060  
O   -3.7809393    0.0061494   -3.8623760  
C   -1.5113839    0.0052801   -3.2312120  
H   -2.7664561   -0.0000297    0.6013455  
H   -1.1823550    0.0068183   -4.2614846  
H    2.1104314    0.0009799   -0.3488067  
C    2.9134402   -0.7204448   -3.3148111  
C    3.5548304   -0.5024372   -4.4917423  
C    2.7453554    0.4245473   -5.2469143  
C    1.5713936    0.7309419   -4.4074344  
N    1.7334681    0.0049582   -3.2500371  
C    0.5677453    1.5709677   -4.7662538  
C    0.6490885    2.2162137   -6.0660909  
O   -0.2046268    2.9893147   -6.4805608  
C    1.8833681    1.9061120   -6.9717375  
O    1.9626033    2.4432174   -8.0683228  
C    2.9013534    0.9834462   -6.4755052  
H   -0.2845692    1.7821493   -4.1354830  
H    3.7529104    0.7741960   -7.1085840  
H    3.2033929   -1.3501730   -2.4894270  
C    5.2545085   -2.3731123   -4.7171104  
C    4.8308401   -1.1020195   -4.9079167  
C    5.9174717   -0.4473883   -5.6200885  
C    6.9447358   -1.4988467   -5.7805506  
N    6.5617051   -2.6298917   -5.2532801  
C    8.1936391   -1.2472199   -6.4453898  
C    8.4064653   -0.0019047   -6.9283287  
O    9.5260452    0.3730003   -7.5702220  
C    7.3890370    1.0805544   -6.7824497  
O    7.6500914    2.1904665   -7.2463105  
C    6.1157684    0.7975190   -6.0964446  
H    8.9263850   -2.0342488   -6.5482420  
H    9.3828545    1.3109764   -7.7912422  
H    5.4049503    1.6085374   -6.0114958  
H    4.7345933   -3.1796192   -4.2249636  
C    0.0000000    0.0000000    1.4700000  
C    1.0662921    0.0000102    2.3034270  
C    0.4961870   -0.0000064    3.6418889  
C   -0.9663858    0.0000850    3.4240247  
N   -1.2632773    0.0000084    2.1528658  
C   -1.8985362    0.0000517    4.5177257  
C   -1.3925775   -0.0004564    5.7720543  
O   -2.1456383   -0.0005410    6.8851312  
C    0.0786232   -0.0009323    6.0245000  
O    0.4683759   -0.0012588    7.1921102  
C    1.0143166   -0.0008442    4.8859032  
H    2.1107198   -0.0000632    2.0421868  
H   -2.9622183    0.0003270    4.3293377  
H   -1.5042274   -0.0009692    7.6184419  
H    2.0724152   -0.0013148    5.1109744  
