58

C    2.4602721   -2.0944455   -5.9392888  
C    1.9124732   -1.6318086   -4.7860506  
C    0.8432456   -0.7354855   -5.1577931  
C    0.8127885   -0.7137215   -6.6327131  
N    1.8180306   -1.5578234   -7.0448664  
C   -0.0596370    0.0159821   -7.3730582  
C   -1.0334827    0.8347252   -6.6703347  
O   -1.8613775    1.5276086   -7.2472268  
C   -1.0192493    0.8271229   -5.1084309  
O   -1.8341903    1.5127100   -4.5058515  
C   -0.0307352   -0.0004646   -4.4215603  
H    2.2221962   -1.8889424   -3.7887702  
H   -0.0651695    0.0176832   -8.4542048  
H    3.2792598   -2.7820945   -6.0745265  
C    2.9818583   -5.2749791   -9.1244554  
C    2.6117021   -4.3568866   -8.1948508  
C    2.4922021   -3.0905236   -8.8781367  
C    2.8254427   -3.3479528  -10.2921631  
N    3.1132402   -4.6907776  -10.3751304  
C    2.8280760   -2.4026675  -11.2658848  
C    2.4796506   -1.0407908  -10.8965251  
O    2.4533256   -0.1184900  -11.7008689  
C    2.1235108   -0.7453343   -9.4046552  
O    1.8288592    0.3975417   -9.0817380  
C    2.1552142   -1.8471688   -8.4461110  
H    2.4419405   -4.5452439   -7.1497111  
H    3.0754643   -2.6125500  -12.2972230  
H    3.1699296   -6.3291568   -9.0010536  
H    3.3760596   -5.1726267  -11.2152455  
C    3.2573670   -0.0002920   -1.5109380  
C    2.5379468   -0.0001709   -0.3591961  
C    1.1435043    0.0000332   -0.7338500  
C    1.1092609   -0.0000082   -2.2088477  
N    2.4227562    0.0001909   -2.6182613  
C   -0.0265532   -0.0002522   -2.9515663  
C   -1.3003035   -0.0002639   -2.2514981  
O   -2.3786784   -0.0004131   -2.8306429  
C   -1.2877725    0.0000312   -0.6895608  
O   -2.3539958    0.0003307   -0.0892036  
C    0.0000000    0.0000000    0.0000000  
H    2.9384091   -0.0000369    0.6389239  
H    4.3270394   -0.0004765   -1.6439446  
H    2.7280494   -0.0013406   -3.5742113  
C    2.3971438    2.0127888    3.1728260  
C    1.9431056    1.6308205    1.9564670  
C    0.8496017    0.7127664    2.2356185  
C    0.7794028    0.6545384    3.7115134  
N    1.6840587    1.4146091    4.2663826  
C   -0.1885723   -0.1578550    4.3957118  
C   -1.0476298   -0.8789867    3.6398520  
O   -2.0015663   -1.6796266    4.1448486  
C   -1.0022026   -0.8410666    2.1483229  
O   -1.8147390   -1.5232959    1.5241687  
C    0.0000000    0.0000000    1.4700000  
H    2.3054237    1.9346118    0.9892483  
H   -0.2170646   -0.1815267    5.4753125  
H   -2.4487139   -2.0549881    3.3649027  
H    3.2048689    2.6911772    3.3971983  
