58

C    1.0965514    0.0001359   -0.8010305  
C    0.0000000    0.0000000    0.0000000  
C   -1.1546564    0.0001470   -0.8669509  
C   -0.6372019    0.0003521   -2.2486280  
N    0.7342869    0.0007339   -2.1395010  
C   -1.4147744    0.0001354   -3.3608710  
C   -2.8576055   -0.0001048   -3.1854456  
O   -3.6427781   -0.0002489   -4.1244902  
C   -3.4275843   -0.0000726   -1.7311659  
O   -4.6406828    0.0000334   -1.5710051  
C   -2.4891866   -0.0001091   -0.6116744  
H   -1.0150453    0.0001618   -4.3654242  
H   -2.8919120   -0.0002919    0.3920864  
H    2.1388270    0.0000663   -0.5261644  
C    4.5566853   -2.0943509   -2.8440025  
C    3.3981922   -1.6309278   -2.3080843  
C    2.8135372   -0.7361947   -3.2788915  
C    3.7329563   -0.7162208   -4.4326073  
N    4.7695081   -1.5597352   -4.1056014  
C    3.5352810    0.0116651   -5.5607967  
C    2.3371276    0.8302005   -5.6442438  
O    2.0692117    1.5215083   -6.6182129  
C    1.3496272    0.8244746   -4.4340312  
O    0.3376968    1.5099055   -4.4926967  
C    1.6707639   -0.0012341   -3.2725972  
H    2.9988744   -1.8865413   -1.3427757  
H    5.2729793   -2.7812824   -2.4233624  
H    5.5580252   -1.7581542   -4.6937494  
C    5.8345692   -3.2163862   -7.4519066  
C    6.4671670   -2.5044044   -8.4198822  
C    6.0377928   -1.1327236   -8.2821670  
C    5.0964630   -1.1037257   -7.1464523  
N    5.0165217   -2.3982906   -6.6875397  
C    4.4691795    0.0122186   -6.6960209  
C    4.7390047    1.2685499   -7.3752565  
O    4.2234030    2.3284490   -7.0449988  
C    5.7323715    1.2611632   -8.5806489  
O    5.9671122    2.3127974   -9.1604975  
C    6.3469550   -0.0045157   -8.9733277  
H    7.1558379   -2.8955112   -9.1474680  
H    7.0337609   -0.0010518   -9.8087975  
H    5.8969952   -4.2699397   -7.2327764  
H    4.4525145   -2.7016646   -5.9149413  
C    0.8175213    0.6860729    2.3021913  
C    0.0000000    0.0000000    1.4700000  
C   -0.8887526   -0.7456559    2.3478473  
C   -0.4549825   -0.3816753    3.7138435  
N    0.5448156    0.4573574    3.6934124  
C   -1.0945674   -0.9182058    4.8835240  
C   -2.1210866   -1.7789155    4.6970523  
O   -2.8083856   -2.3554314    5.6976972  
C   -2.5824069   -2.1655116    3.3310774  
O   -3.5227682   -2.9541547    3.2362962  
C   -1.9100805   -1.6015804    2.1470656  
H   -0.7567140   -0.6349833    5.8697035  
H   -3.4728268   -2.9124471    5.2533954  
H   -2.2742832   -1.9066565    1.1752040  
H    1.6189533    1.3585343    2.0405121  
