60

C    1.1188647    0.0008222   -0.8003809  
C    0.0000000    0.0000000    0.0000000  
C   -1.1323858    0.0008897   -0.8673529  
C   -0.6382654    0.0019677   -2.1969285  
N    0.7324023    0.0038481   -2.1202242  
C   -1.4770906    0.0027315   -3.3154813  
C   -2.8395469    0.0020940   -3.0876862  
O   -3.7039191    0.0024420   -4.1440354  
C   -3.3517865    0.0013925   -1.7684334  
O   -4.7300487    0.0012361   -1.7073134  
C   -2.5248542    0.0009120   -0.6644822  
H   -1.1067563    0.0036985   -4.3313815  
H   -4.5940025    0.0021823   -3.7685139  
H   -4.9934597    0.0007257   -0.7819921  
H   -2.9462573    0.0005599    0.3339647  
H    2.1619897    0.0009356   -0.5342067  
C    4.5154630   -2.1146754   -2.8156717  
C    4.7985782   -1.6646934   -4.0652465  
C    3.7280663   -0.7729176   -4.4441600  
C    2.7913715   -0.7399860   -3.3047266  
N    3.3260549   -1.5745769   -2.3505458  
C    1.6478442   -0.0100100   -3.2703000  
C    1.3174732    0.7969139   -4.4331690  
O    0.3100026    1.4889655   -4.4992703  
C    2.2949961    0.7769789   -5.6513050  
O    2.0272072    1.4520882   -6.6360779  
C    3.4969332   -0.0492778   -5.5706860  
H    5.6590353   -1.9276269   -4.6543934  
H    5.0755446   -2.7955783   -2.1955354  
H    2.9164740   -1.7608863   -1.4535624  
C    5.7934245   -3.2756187   -7.5234483  
C    4.9798247   -2.5593392   -6.7054799  
C    5.0220958   -1.1905486   -7.1631476  
C    5.9335283   -1.1679398   -8.3231359  
N    6.3675005   -2.4629210   -8.4892124  
C    6.2394131   -0.0563763   -9.0390719  
C    5.6304880    1.2017261   -8.6404206  
O    5.8426988    2.2580370   -9.2213462  
C    4.6622845    1.2011715   -7.4147016  
O    4.1438956    2.2544596   -7.0695674  
C    4.4099732   -0.0603058   -6.7226998  
H    4.4147143   -2.9457195   -5.8760374  
H    6.9103962   -0.0614900   -9.8868141  
H    6.0220951   -4.3287727   -7.5018520  
H    7.0018013   -2.7706530   -9.2033634  
C    0.8175213    0.6860729    2.3021913  
C    0.0000000    0.0000000    1.4700000  
C   -0.8887526   -0.7456559    2.3478473  
C   -0.4549825   -0.3816753    3.7138435  
N    0.5448156    0.4573574    3.6934124  
C   -1.0945674   -0.9182058    4.8835240  
C   -2.1210866   -1.7789155    4.6970523  
O   -2.8083856   -2.3554314    5.6976972  
C   -2.5824069   -2.1655116    3.3310774  
O   -3.5227682   -2.9541547    3.2362962  
C   -1.9100805   -1.6015804    2.1470656  
H   -0.7567140   -0.6349833    5.8697035  
H   -3.4728268   -2.9124471    5.2533954  
H   -2.2742832   -1.9066565    1.1752040  
H    1.6189533    1.3585343    2.0405121  
