58

C    4.3636279   -2.0897854   -1.3068101  
C    3.1526643   -1.6280928   -1.7123729  
C    3.3926031   -0.7336527   -2.8201825  
C    4.8530868   -0.7119650   -3.0282855  
N    5.3836002   -1.5543083   -2.0785999  
C    5.4827003    0.0161956   -3.9848807  
C    4.6675268    0.8332396   -4.8683211  
O    5.1402557    1.5246603   -5.7609384  
C    3.1187344    0.8256865   -4.6658600  
O    2.4221599    1.5098524   -5.4033975  
C    2.5562213   -0.0001546   -3.6003003  
H    2.2000529   -1.8846671   -1.2842202  
H    4.5967584   -2.7759988   -0.5089049  
H    6.3609946   -1.7514449   -1.9650862  
C    0.0000000    0.0000000    0.0000000  
C    1.0541688   -0.0001722   -0.8560390  
C    0.5103140   -0.0000453   -2.1935955  
C   -0.9576368    0.0002460   -2.0455731  
N   -1.2018459   -0.0001394   -0.6915969  
C   -1.8348309    0.0008316   -3.0810608  
C   -1.2972846    0.0009737   -4.4314603  
O   -2.0050670    0.0014264   -5.4301319  
C    0.2542624    0.0004186   -4.6117572  
O    0.7184669    0.0002260   -5.7439121  
C    1.0974555    0.0000876   -3.4189128  
H    2.0940751   -0.0005481   -0.5817981  
H   -2.9081055    0.0011667   -2.9507060  
H   -2.1128192    0.0014908   -0.2706790  
C    6.9410484    0.0184726   -4.1695869  
C    7.8717222   -0.6640393   -3.4627614  
C    9.1440490   -0.2963544   -4.0648348  
C    8.7854534    0.6411611   -5.1506791  
N    7.4954608    0.8296424   -5.2168720  
C    9.7796978    1.2406533   -5.9975395  
C   11.0734045    0.9185232   -5.7697390  
O   12.1043190    1.4032375   -6.4826966  
C   11.4671780   -0.0241768   -4.6814286  
O   12.6635198   -0.2720593   -4.5312917  
C   10.4287340   -0.6260523   -3.8262654  
H    7.7142836   -1.3341616   -2.6349781  
H    9.4891822    1.9222713   -6.7836094  
H   12.8943230    0.9933761   -6.0863887  
H   10.7551146   -1.3038833   -3.0489299  
C    3.1301144    0.0010313    3.1728260  
C    2.5367765    0.0002768    1.9564670  
C    1.1089900   -0.0001027    2.2356185  
C    1.0177864    0.0004150    3.7115134  
N    2.1993570    0.0011613    4.2663826  
C   -0.2459220    0.0002880    4.3957118  
C   -1.3675327    0.0000606    3.6398520  
O   -2.6129319   -0.0000866    4.1448486  
C   -1.3083589   -0.0000910    2.1483229  
O   -2.3693264   -0.0004206    1.5241687  
C    0.0000000    0.0000000    1.4700000  
H    3.0096015    0.0001008    0.9892483  
H   -0.2829642    0.0004689    5.4753125  
H   -3.1967446   -0.0002093    3.3649027  
H    4.1849273    0.0015113    3.3971983  
