60

C    3.3041274    0.0001179   -1.5420431  
C    2.5845371   -0.0004779   -0.3695859  
C    1.2040005   -0.0000006   -0.7283586  
C    1.1422369    0.0006043   -2.1454370  
N    2.4348639    0.0026114   -2.6077465  
C   -0.0655187    0.0008805   -2.8497915  
C   -1.2321772    0.0002330   -2.1101394  
O   -2.4392819    0.0001153   -2.7472515  
C   -1.1911209   -0.0000005   -0.6955260  
O   -2.4371525   -0.0002317   -0.1032855  
C    0.0000000    0.0000000    0.0000000  
H    3.0031533   -0.0000661    0.6222583  
H    2.7054626   -0.0071092   -3.5745262  
H   -3.1132991   -0.0000643   -2.0551780  
H   -2.3200279   -0.0004071    0.8516418  
H    4.3686617    0.0004074   -1.7024295  
C    0.6887299   -0.7238749   -5.1615446  
C    0.3681053   -0.5064769   -6.4630870  
C   -0.7390730    0.4202672   -6.4747846  
C   -1.0393329    0.7271849   -5.0632479  
N   -0.1387089    0.0017027   -4.3179681  
C   -2.0224210    1.5671727   -4.6513466  
C   -2.8394479    2.2118227   -5.6659539  
O   -3.7493949    2.9848422   -5.3962551  
C   -2.5393033    1.9011604   -7.1670227  
O   -3.2207404    2.4377620   -8.0301352  
C   -1.4529096    0.9785929   -7.4871320  
H    0.8518646   -0.9453868   -7.3174578  
H   -2.2260448    1.7787436   -3.6108254  
H    1.4597337   -1.3532671   -4.7476502  
C   -1.1790261    0.6936545   -8.9030059  
C   -0.2306008   -0.1211450   -9.4208567  
C   -0.4052818   -0.0313096  -10.8623546  
C   -1.5338534    0.9068681  -11.0432745  
N   -1.9914808    1.3352079   -9.8982450  
C   -2.0234305    1.2659599  -12.3457545  
C   -1.4130512    0.7132498  -13.4187322  
O   -1.7657712    0.9589093  -14.6920277  
C   -0.2713717   -0.2366224  -13.2688274  
O    0.2362955   -0.7014714  -14.2893225  
C    0.2124410   -0.5892245  -11.9221570  
H    0.4976617   -0.7103005   -8.8901915  
H   -2.8499177    1.9539108  -12.4484849  
H   -1.1517617    0.4241473  -15.2269804  
H    1.0417343   -1.2807151  -11.8562559  
C    0.0000000    0.0000000    1.4700000  
C    1.0662921    0.0000102    2.3034270  
C    0.4961870   -0.0000064    3.6418889  
C   -0.9663858    0.0000850    3.4240247  
N   -1.2632773    0.0000084    2.1528658  
C   -1.8985362    0.0000517    4.5177257  
C   -1.3925775   -0.0004564    5.7720543  
O   -2.1456383   -0.0005410    6.8851312  
C    0.0786232   -0.0009323    6.0245000  
O    0.4683759   -0.0012588    7.1921102  
C    1.0143166   -0.0008442    4.8859032  
H    2.1107198   -0.0000632    2.0421868  
H   -2.9622183    0.0003270    4.3293377  
H   -1.5042274   -0.0009692    7.6184419  
H    2.0724152   -0.0013148    5.1109744  
