60

C    0.0000000    0.0000000    0.0000000  
C    1.0521667   -0.0011906   -0.8862341  
C    0.4917227   -0.0011963   -2.1979131  
C   -0.9187421    0.0003145   -2.0478684  
N   -1.1833168   -0.0009413   -0.7007915  
C   -1.7951690    0.0010346   -3.1372095  
C   -1.2375822    0.0005217   -4.4010428  
O   -2.0474198    0.0015349   -5.4997584  
C    0.1673600   -0.0013578   -4.5711963  
O    0.5673545   -0.0020703   -5.8915548  
C    1.0325785   -0.0023423   -3.4969888  
H    2.0953061   -0.0030656   -0.6200555  
H   -2.0989774    0.0102375   -0.2891831  
H   -1.4634863    0.0006484   -6.2693600  
H    1.5290728   -0.0033171   -5.9180038  
H    2.1042157   -0.0039623   -3.6584453  
C   -4.7114676    2.0140164   -0.4339619  
C   -3.5467558    1.6314383   -1.0072506  
C   -3.9343478    0.7149044   -2.0684939  
C   -5.4099584    0.6581318   -1.9914604  
N   -5.8712092    1.4176769   -1.0352551  
C   -6.1879767   -0.1525090   -2.8873597  
C   -5.5221535   -0.8733545   -3.8181634  
O   -6.1204506   -1.6724248   -4.7179237  
C   -4.0334736   -0.8368761   -3.9214237  
O   -3.4940295   -1.5187507   -4.7927835  
C   -3.2578642    0.0024037   -2.9908517  
H   -2.5479538    1.9339113   -0.7427124  
H   -7.2650744   -0.1751424   -2.8082468  
H   -5.3892901   -2.0479978   -5.2408982  
C   -1.8818988    4.3186304    2.0517422  
C   -2.4418069    3.4995588    1.1245423  
C   -3.8706746    3.5502443    1.3260457  
C   -4.0989545    4.4726208    2.4547176  
N   -2.8534791    4.9036132    2.8495935  
C   -5.3205025    4.7891748    2.9540351  
C   -6.4883392    4.1806546    2.3388964  
O   -7.6314992    4.4019507    2.7164067  
C   -6.2700651    3.2005773    1.1423972  
O   -7.2457202    2.6819475    0.6166781  
C   -4.9052096    2.9377537    0.6930135  
H   -1.9140772    2.9252555    0.3840759  
H   -5.4660490    5.4682786    3.7826150  
H   -0.8412286    4.5439486    2.2194527  
H   -2.6775448    5.5459122    3.6002906  
C    0.0000000    0.0000000    1.4700000  
C    1.0662921    0.0000102    2.3034270  
C    0.4961870   -0.0000064    3.6418889  
C   -0.9663858    0.0000850    3.4240247  
N   -1.2632773    0.0000084    2.1528658  
C   -1.8985362    0.0000517    4.5177257  
C   -1.3925775   -0.0004564    5.7720543  
O   -2.1456383   -0.0005410    6.8851312  
C    0.0786232   -0.0009323    6.0245000  
O    0.4683759   -0.0012588    7.1921102  
C    1.0143166   -0.0008442    4.8859032  
H    2.1107198   -0.0000632    2.0421868  
H   -2.9622183    0.0003270    4.3293377  
H   -1.5042274   -0.0009692    7.6184419  
H    2.0724152   -0.0013148    5.1109744  
