58

C   -4.7795902   -0.0014365   -1.0815732  
C   -5.7862020   -0.0015659   -1.9861793  
C   -7.0047291   -0.0021751   -1.1913893  
C   -6.5351377   -0.0024607    0.2107762  
N   -5.2316823   -0.0019492    0.2814340  
C   -7.4495158   -0.0030275    1.3193781  
C   -8.7728589   -0.0029078    1.0399217  
O   -9.7375488   -0.0033968    1.9755577  
C   -9.2780075   -0.0022495   -0.3647083  
O  -10.4956957   -0.0023001   -0.5448628  
C   -8.3200394   -0.0017195   -1.4846287  
H   -5.7111081   -0.0011927   -3.0601610  
H   -7.0785138   -0.0034323    2.3339060  
H  -10.5714820   -0.0031299    1.4718624  
C   -3.3321171   -0.0008683   -1.3379339  
C   -2.6974179   -0.0003330   -2.5332313  
C   -1.2800437    0.0000591   -2.2052841  
C   -1.2395036   -0.0002120   -0.7271296  
N   -2.4394057   -0.0008364   -0.2131040  
C    0.0000000    0.0000000    0.0000000  
C    1.1468701    0.0000730   -0.7169540  
O    2.3742206    0.0002753   -0.1695489  
C    1.1388771   -0.0000253   -2.2096353  
O    2.2206229    0.0001736   -2.7970409  
C   -0.1454517   -0.0001992   -2.9324242  
H   -3.1367985   -0.0003086   -3.5160951  
H    2.9844347    0.0002526   -0.9290165  
H   -0.1083571   -0.0003815   -4.0135594  
C   -8.8719487   -0.0009245   -2.8470883  
C   -8.1965715   -0.0004252   -4.0198817  
C   -9.2274929    0.0002837   -5.0463809  
C  -10.5012718   -0.0000062   -4.2953345  
N  -10.2991898   -0.0006334   -3.0057021  
C  -11.7758580    0.0005671   -4.9590495  
C  -11.7778490    0.0017814   -6.3115757  
O  -12.8937209    0.0024264   -7.0604883  
C  -10.5090567    0.0024750   -7.0979136  
O  -10.5861946    0.0034544   -8.3264368  
C   -9.2143314    0.0018228   -6.3939178  
H   -7.1304684   -0.0004355   -4.1698820  
H  -12.6909947    0.0001313   -4.3850848  
H  -12.5745539    0.0032866   -7.9809687  
H   -8.3181426    0.0024735   -6.9997844  
C    0.8175213    0.6860729    2.3021913  
C    0.0000000    0.0000000    1.4700000  
C   -0.8887526   -0.7456559    2.3478473  
C   -0.4549825   -0.3816753    3.7138435  
N    0.5448156    0.4573574    3.6934124  
C   -1.0945674   -0.9182058    4.8835240  
C   -2.1210866   -1.7789155    4.6970523  
O   -2.8083856   -2.3554314    5.6976972  
C   -2.5824069   -2.1655116    3.3310774  
O   -3.5227682   -2.9541547    3.2362962  
C   -1.9100805   -1.6015804    2.1470656  
H   -0.7567140   -0.6349833    5.8697035  
H   -3.4728268   -2.9124471    5.2533954  
H   -2.2742832   -1.9066565    1.1752040  
H    1.6189533    1.3585343    2.0405121  
