58

C   -3.1299754   -0.0296106   -1.7028246  
C   -2.5366575   -0.0245566   -0.4864660  
C   -1.1089365   -0.0109590   -0.7656178  
C   -1.0177426   -0.0095486   -2.2415129  
N   -2.1992638   -0.0203692   -2.7963813  
C    0.2459060    0.0026951   -2.9257115  
C    1.3674653    0.0134477   -2.1698527  
O    2.6128061    0.0254922   -2.6748496  
C    1.3082971    0.0127169   -0.6783233  
O    2.3692174    0.0227736   -0.0541694  
C    0.0000000    0.0000000    0.0000000  
H   -3.0094581   -0.0293612    0.4807532  
H    0.2829448    0.0032387   -4.0053121  
H    3.1965919    0.0310846   -1.8949037  
C   -5.6037233   -0.0534220   -1.1379114  
C   -4.5677438   -0.0430319   -2.0086694  
C   -5.1849904   -0.0478623   -3.3260464  
C   -6.6388395   -0.0618491   -3.0563946  
N   -6.8903946   -0.0650840   -1.7754971  
C   -7.6091958   -0.0701786   -4.1163123  
C   -7.1481224   -0.0643920   -5.3878119  
O   -7.9401985   -0.0709719   -6.4734512  
C   -5.6868827   -0.0499253   -5.6923299  
O   -5.3388559   -0.0454520   -6.8730405  
C   -4.7113911   -0.0416350   -4.5876707  
H   -7.3252633   -0.0641947   -7.2290709  
H   -3.6620029   -0.0310847   -4.8501649  
H   -5.5654307   -0.0538535   -0.0601796  
C  -10.2294166    1.9144450   -1.1063035  
C   -9.1313702    1.5437323   -1.8051927  
C   -9.6243045    0.6219154   -2.8170076  
C  -11.0815868    0.5494185   -2.5768896  
N  -11.4421674    1.3050417   -1.5753880  
C  -11.9453326   -0.2705110   -3.3810942  
C  -11.3790536   -0.9852166   -4.3800233  
O  -12.0647493   -1.7916546   -5.2079850  
C   -9.9114724   -0.9329016   -4.6476565  
O   -9.4646180   -1.6099261   -5.5734966  
C   -9.0465859   -0.0843217   -3.8087237  
H   -8.1127188    1.8571862   -1.6529725  
H  -13.0067173   -0.3045977   -3.1830796  
H  -11.3920562   -2.1599527   -5.8088130  
H  -10.2863283    2.5914702   -0.2688242  
C    0.0000000    0.0000000    1.4700000  
C    1.0662921    0.0000102    2.3034270  
C    0.4961870   -0.0000064    3.6418889  
C   -0.9663858    0.0000850    3.4240247  
N   -1.2632773    0.0000084    2.1528658  
C   -1.8985362    0.0000517    4.5177257  
C   -1.3925775   -0.0004564    5.7720543  
O   -2.1456383   -0.0005410    6.8851312  
C    0.0786232   -0.0009323    6.0245000  
O    0.4683759   -0.0012588    7.1921102  
C    1.0143166   -0.0008442    4.8859032  
H    2.1107198   -0.0000632    2.0421868  
H   -2.9622183    0.0003270    4.3293377  
H   -1.5042274   -0.0009692    7.6184419  
H    2.0724152   -0.0013148    5.1109744  
