60

C    3.3041270    0.0001176   -1.5420433  
C    2.5845371   -0.0004780   -0.3695855  
C    1.2040008   -0.0000008   -0.7283591  
C    1.1422372    0.0006036   -2.1454374  
N    2.4348636    0.0026108   -2.6077465  
C   -0.0655187    0.0008797   -2.8497918  
C   -1.2321770    0.0002324   -2.1101398  
O   -2.4392825    0.0001147   -2.7472513  
C   -1.1911206   -0.0000008   -0.6955263  
O   -2.4371530   -0.0002319   -0.1032857  
C    0.0000000    0.0000000    0.0000000  
H    3.0031534   -0.0000661    0.6222579  
H    2.7054624   -0.0071100   -3.5745265  
H   -0.1193557    0.0014843   -3.9297471  
H   -3.1132993   -0.0000649   -2.0551778  
H   -2.3200284   -0.0004071    0.8516414  
C    6.5771493   -0.0035571    1.3345533  
C    7.6645483   -0.0027621    0.5288602  
C    7.1290977   -0.0009889   -0.8238370  
C    5.6614001   -0.0010504   -0.6437062  
N    5.3318745   -0.0024719    0.6193854  
C    4.7577217    0.0005128   -1.7610465  
C    5.2958116    0.0024560   -3.0019294  
O    4.5716623    0.0040579   -4.1340270  
C    6.7730248    0.0029427   -3.2164070  
O    7.1927145    0.0046215   -4.3735929  
C    7.6790893    0.0012688   -2.0540950  
H    8.7019024   -0.0032208    0.8169075  
H    5.2317433    0.0052549   -4.8505773  
H    8.7426324    0.0018005   -2.2518450  
C    7.6148579   -0.0066996    3.6330648  
C    6.5392967   -0.0053592    2.8040648  
C    5.3626996   -0.0063345    3.6409956  
C    5.8444044   -0.0083384    5.0355369  
N    7.2182481   -0.0088648    4.9617617  
C    5.0384493   -0.0093275    6.1273888  
C    3.6006142   -0.0085794    5.9148693  
O    2.7915212   -0.0094267    6.8333843  
C    3.0682718   -0.0067131    4.4463963  
O    1.8596994   -0.0063764    4.2550517  
C    4.0351847   -0.0054947    3.3514401  
H    5.4121787   -0.0106663    7.1419008  
H    3.6584400   -0.0039996    2.3376428  
H    8.6638655   -0.0065046    3.3851288  
H    7.8374179   -0.0085993    5.7514929  
C    0.8175213    0.6860729    2.3021913  
C    0.0000000    0.0000000    1.4700000  
C   -0.8887526   -0.7456559    2.3478473  
C   -0.4549825   -0.3816753    3.7138435  
N    0.5448156    0.4573574    3.6934124  
C   -1.0945674   -0.9182058    4.8835240  
C   -2.1210866   -1.7789155    4.6970523  
O   -2.8083856   -2.3554314    5.6976972  
C   -2.5824069   -2.1655116    3.3310774  
O   -3.5227682   -2.9541547    3.2362962  
C   -1.9100805   -1.6015804    2.1470656  
H   -0.7567140   -0.6349833    5.8697035  
H   -3.4728268   -2.9124471    5.2533954  
H   -2.2742832   -1.9066565    1.1752040  
H    1.6189533    1.3585343    2.0405121  
