58

C    3.2798085    0.0005856   -1.4499646  
C    2.5571146    0.0005565   -2.5996553  
C    1.1637436    0.0001548   -2.2210360  
C    1.1336964   -0.0000200   -0.7459468  
N    2.4483512   -0.0001429   -0.3402719  
C    0.0000000    0.0000000    0.0000000  
C   -1.2757371   -0.0000187   -0.6964415  
O   -2.3524597   -0.0000640   -0.1142312  
C   -1.2676493   -0.0000873   -2.2584081  
O   -2.3355761   -0.0004101   -2.8557295  
C    0.0181561    0.0001759   -2.9516296  
H    2.9547354    0.0006074   -3.5989104  
H    2.7563628    0.0012823    0.6148064  
C    6.6317390   -0.0005812   -4.3241589  
C    5.4016593   -0.0005062   -3.7488513  
C    5.6054523    0.0003361   -2.3194099  
C    7.0655611    0.0007779   -2.1075768  
N    7.6303557   -0.0002120   -3.3621271  
C    7.6659168    0.0019860   -0.8905001  
C    6.8173813    0.0026871    0.2895509  
O    7.2622818    0.0037195    1.4298856  
C    5.2683492    0.0019842    0.0887900  
O    4.5438175    0.0022581    1.0748500  
C    4.7390846    0.0009612   -1.2727278  
H    4.4591040   -0.0011684   -4.2667345  
H    8.7388166    0.0024205   -0.7570925  
H    6.8927452   -0.0010919   -5.3699912  
H    8.6161410    0.0013556   -3.5499359  
C    2.4064703   -2.0119085   -6.1315532  
C    1.9558551   -1.6301623   -4.9138521  
C    0.8614673   -0.7121807   -5.1897589  
C    0.7870639   -0.6537471   -6.6654397  
N    1.6902156   -1.4136445   -7.2229906  
C   -0.1829371    0.1586453   -7.3467641  
C   -1.0399148    0.8795795   -6.5883597  
O   -1.9953663    1.6801939   -7.0905244  
C   -0.9902406    0.8414490   -5.0969710  
O   -1.8010680    1.5235046   -4.4704093  
C    0.0139740    0.0003878   -4.4216236  
H    2.3209547   -1.9340557   -3.9477121  
H   -0.2145031    0.1824697   -8.4262766  
H   -2.4403317    2.0553968   -6.3092554  
H    3.2136233   -2.6901813   -6.3583206  
C    0.8681109    0.7263879    2.2709268  
C    0.6127770    0.5096195    3.5869401  
C   -0.4920590   -0.4175482    3.6542670  
C   -0.8620974   -0.7254003    2.2596025  
N    0.0000000    0.0000000    1.4700000  
C   -1.8641242   -1.5660088    1.8976294  
C   -2.6293522   -2.2103885    2.9520183  
O   -3.5512764   -2.9839180    2.7283916  
C   -2.2549728   -1.8987399    4.4361073  
O   -2.8923672   -2.4351063    5.3323774  
C   -1.1543735   -0.9755647    4.7012123  
H    1.1382914    0.9492124    4.4159191  
H   -2.1192137   -1.7782617    0.8686553  
H   -0.9013378   -0.7652422    5.7314848  
H    1.6172880    1.3558399    1.8188057  
