64

C    2.3128796   -2.1207451   -5.9853291  
C    1.8202490   -1.6594122   -4.7865988  
C    0.7463178   -0.7716432   -5.0917841  
C    0.6288901   -0.7306956   -6.5047457  
N    1.5962668   -1.5596063   -7.0163180  
C   -0.3301659    0.0460747   -7.1617305  
C   -1.1864717    0.7949190   -6.3780528  
O   -2.1419344    1.5709315   -6.9678911  
C   -1.0847733    0.7675649   -4.9667678  
O   -2.0088871    1.5678195   -4.3272760  
C   -0.1387079    0.0017019   -4.3179684  
H    2.1902180   -1.9286751   -3.8121171  
H   -0.4247432    0.0817400   -8.2382921  
H   -2.6233439    2.0035648   -6.2507168  
H   -1.8718317    1.4918812   -3.3780374  
H    3.1196528   -2.8045578   -6.1865156  
C    2.5987492   -5.2720490   -9.2007360  
C    2.6407109   -4.7272224  -10.4632218  
C    2.3467340   -3.3380944  -10.3272008  
C    2.1327000   -3.0911695   -8.9469306  
N    2.2914371   -4.2869757   -8.2915933  
C    1.8198238   -1.8243393   -8.4448970  
C    1.7215168   -0.7878380   -9.3527403  
O    1.4187524    0.4695624   -8.9165160  
C    1.9312038   -1.0143824  -10.7338719  
O    1.7974889    0.1186417  -11.5095788  
C    2.2396298   -2.2639329  -11.2298799  
H    2.8555666   -5.2650869  -11.3707085  
H    2.2101554   -4.4205224   -7.2998578  
H    1.3996210    1.0334069   -9.7007220  
H    1.9547415   -0.1211886  -12.4279232  
H    2.3945784   -2.4069512  -12.2929015  
H    2.7623083   -6.2856616   -8.8770134  
C    3.3041273    0.0001178   -1.5420428  
C    2.5845373   -0.0004780   -0.3695851  
C    1.2040007   -0.0000007   -0.7283589  
C    1.1422374    0.0006038   -2.1454372  
N    2.4348641    0.0026111   -2.6077464  
C   -0.0655179    0.0008799   -2.8497918  
C   -1.2321766    0.0002325   -2.1101402  
O   -2.4392814    0.0001148   -2.7472522  
C   -1.1911209   -0.0000007   -0.6955266  
O   -2.4371528   -0.0002320   -0.1032862  
C    0.0000000    0.0000000    0.0000000  
H    3.0031533   -0.0000660    0.6222584  
H    2.7054631   -0.0071097   -3.5745261  
H   -3.1132988   -0.0000648   -2.0551787  
H   -2.3200282   -0.0004072    0.8516409  
H    4.3686625    0.0004073   -1.7024290  
C    2.5528530    2.1414826    2.8079335  
C    2.0663498    1.7338582    4.0032312  
C    0.9804344    0.8229586    3.6752840  
C    0.9495562    0.7966882    2.1971295  
N    1.8690446    1.5676019    1.6831036  
C    0.0000000    0.0000000    1.4700000  
C   -0.8785127   -0.7372425    2.1869543  
O   -1.8187535   -1.5261249    1.6395491  
C   -0.8723269   -0.7321790    3.6796354  
O   -1.7010379   -1.4274584    4.2670412  
C    0.1115397    0.0933559    4.4024240  
H    2.4028853    2.0163452    4.9860947  
H   -2.2861435   -1.9184361    2.3990168  
H    0.0832434    0.0693689    5.4835595  
H    3.3664920    2.8238276    2.6198634  
