58

C   -4.7795905   -0.0001177   -1.0815738  
C   -5.7862022    0.0000307   -1.9861796  
C   -7.0047294   -0.0002423   -1.1913904  
C   -6.5351381   -0.0006576    0.2107753  
N   -5.2316826   -0.0005058    0.2814332  
C   -7.4495169   -0.0009723    1.3193772  
C   -8.7728601   -0.0004876    1.0399209  
O   -9.7375500   -0.0007104    1.9755566  
C   -9.2780080    0.0003102   -0.3647092  
O  -10.4956963    0.0005956   -0.5448641  
C   -8.3200396    0.0005761   -1.4846297  
H   -5.7111079    0.0003833   -3.0601613  
H  -10.5714823   -0.0002135    1.4718606  
H   -8.7261887    0.0012733   -2.4872622  
C   -3.3321172    0.0000511   -1.3379341  
C   -2.6974179    0.0004114   -2.5332318  
C   -1.2800432    0.0004126   -2.2052842  
C   -1.2395039    0.0001300   -0.7271297  
N   -2.4394060   -0.0001634   -0.2131042  
C    0.0000000    0.0000000    0.0000000  
C    1.1468707   -0.0002433   -0.7169542  
O    2.3742204   -0.0003797   -0.1695486  
C    1.1388769   -0.0003392   -2.2096349  
O    2.2206234   -0.0004387   -2.7970406  
C   -0.1454518   -0.0001588   -2.9324239  
H   -3.1367982    0.0005572   -3.5160959  
H    2.9844353   -0.0005706   -0.9290163  
H   -0.1083568   -0.0003511   -4.0135595  
C   -5.8908883    0.6839590    3.2010433  
C   -6.9446521   -0.0016627    2.6999608  
C   -7.4780238   -0.7476654    3.8293389  
C   -6.6014092   -0.3843584    4.9634198  
N   -5.6692500    0.4546101    4.6012043  
C   -6.8004921   -0.9213911    6.2813911  
C   -7.8288116   -1.7819377    6.4584576  
O   -8.1307707   -2.3588726    7.6340459  
C   -8.7312986   -2.1678580    5.3338489  
O   -9.6471938   -2.9563873    5.5674680  
C   -8.5063818   -1.6034203    3.9911849  
H   -6.1444253   -0.6386568    7.0916672  
H   -8.9075173   -2.9156309    7.4447377  
H   -9.1822826   -1.9080131    3.2033961  
H   -5.2279227    1.3564842    2.6803127  
C    0.8175213    0.6860729    2.3021913  
C    0.0000000    0.0000000    1.4700000  
C   -0.8887526   -0.7456559    2.3478473  
C   -0.4549825   -0.3816753    3.7138435  
N    0.5448156    0.4573574    3.6934124  
C   -1.0945674   -0.9182058    4.8835240  
C   -2.1210866   -1.7789155    4.6970523  
O   -2.8083856   -2.3554314    5.6976972  
C   -2.5824069   -2.1655116    3.3310774  
O   -3.5227682   -2.9541547    3.2362962  
C   -1.9100805   -1.6015804    2.1470656  
H   -0.7567140   -0.6349833    5.8697035  
H   -3.4728268   -2.9124471    5.2533954  
H   -2.2742832   -1.9066565    1.1752040  
H    1.6189533    1.3585343    2.0405121  
