58

C    3.2573672   -0.0002917   -1.5109378  
C    2.5379470   -0.0001709   -0.3591962  
C    1.1435042    0.0000332   -0.7338496  
C    1.1092607   -0.0000081   -2.2088474  
N    2.4227563    0.0001910   -2.6182606  
C   -0.0265531   -0.0002524   -2.9515660  
C   -1.3003036   -0.0002638   -2.2514978  
O   -2.3786786   -0.0004132   -2.8306429  
C   -1.2877725    0.0000312   -0.6895605  
O   -2.3539955    0.0003308   -0.0892036  
C    0.0000000    0.0000000    0.0000000  
H    2.9384092   -0.0000367    0.6389238  
H   -0.0296287   -0.0004085   -4.0327227  
H    4.3270397   -0.0004763   -1.6439438  
C    5.7040776   -2.1117454   -4.6322106  
C    5.5266124   -1.6490479   -5.8965255  
C    4.3947082   -0.7532601   -5.8619875  
C    3.9239255   -0.7318315   -4.4638835  
N    4.7594836   -1.5762333   -3.7698247  
C    2.8699644   -0.0020524   -4.0185821  
C    2.1511682    0.8167848   -4.9805454  
O    1.1885422    1.5096471   -4.6779000  
C    2.6322123    0.8091504   -6.4665948  
O    2.0346741    1.4943468   -7.2855670  
C    3.7812713   -0.0180914   -6.8260208  
H    4.1081499   -0.0176452   -7.8569790  
H    6.4453145   -2.7990533   -4.2579576  
H    4.6944966   -1.7716426   -2.7876646  
C    7.4020269   -5.3794185   -7.4558834  
C    6.7073018   -4.5252153   -6.6689436  
C    6.8054577   -3.2362609   -7.3363725  
C    7.6167255   -3.5025150   -8.5436577  
N    7.9692657   -4.7571098   -8.6191319  
C    7.9449006   -2.4662006   -9.4835723  
C    7.4832662   -1.2206025   -9.2291841  
O    7.7131876   -0.1588378  -10.0202797  
C    6.6617922   -0.9202758   -8.0195783  
O    6.2753925    0.2362884   -7.8514258  
C    6.3386557   -2.0003802   -7.0704302  
H    6.1918133   -4.7429311   -5.7491901  
H    8.5396704   -2.6890945  -10.3573448  
H    7.2593914    0.5818896   -9.5792066  
H    7.5672147   -6.4346211   -7.3067745  
C    2.3971438    2.0127888    3.1728260  
C    1.9431056    1.6308205    1.9564670  
C    0.8496017    0.7127664    2.2356185  
C    0.7794028    0.6545384    3.7115134  
N    1.6840587    1.4146091    4.2663826  
C   -0.1885723   -0.1578550    4.3957118  
C   -1.0476298   -0.8789867    3.6398520  
O   -2.0015663   -1.6796266    4.1448486  
C   -1.0022026   -0.8410666    2.1483229  
O   -1.8147390   -1.5232959    1.5241687  
C    0.0000000    0.0000000    1.4700000  
H    2.3054237    1.9346118    0.9892483  
H   -0.2170646   -0.1815267    5.4753125  
H   -2.4487139   -2.0549881    3.3649027  
H    3.2048689    2.6911772    3.3971983  
