58

C    2.5049804   -2.0931563   -5.9399565  
C    1.9571818   -1.6308520   -4.7865848  
C    0.8879545   -0.7344212   -5.1580685  
C    0.8574973   -0.7122316   -6.6329822  
N    1.8627391   -1.5562149   -7.0453792  
C   -0.0149279    0.0176860   -7.3731166  
C   -0.9887732    0.8362267   -6.6701568  
O   -1.8166678    1.5292768   -7.2468489  
C   -0.9745397    0.8281737   -5.1082553  
O   -1.7894804    1.5135872   -4.5054780  
C    0.0139741    0.0003876   -4.4216236  
H    2.2669048   -1.8882737   -3.7893787  
H   -0.0204605    0.0196991   -8.4542617  
H    3.3239678   -2.7807665   -6.0753927  
C    3.0134985   -5.2828350   -9.0631492  
C    3.1713225   -4.8141168  -10.3278504  
C    2.8799894   -3.4003646  -10.2922794  
C    2.5370691   -3.0815733   -8.8931475  
N    2.6364689   -4.2655996   -8.1995397  
C    2.1999224   -1.8451561   -8.4467073  
C    2.1727827   -0.7557211   -9.4084396  
O    1.8814760    0.3937325   -9.1047992  
C    2.5321798   -1.0705267  -10.8955632  
O    2.5124514   -0.1614293  -11.7143510  
C    2.8797858   -2.4427436  -11.2561778  
H    3.4588209   -5.3927416  -11.1875904  
H    3.1275636   -2.6523408  -12.2878753  
H    3.1406931   -6.2858426   -8.6894008  
H    2.4638849   -4.3736781   -7.2169002  
C    3.2798085    0.0005853   -1.4499648  
C    2.5571144    0.0005562   -2.5996554  
C    1.1637436    0.0001546   -2.2210360  
C    1.1336965   -0.0000201   -0.7459470  
N    2.4483513   -0.0001430   -0.3402717  
C    0.0000000    0.0000000    0.0000000  
C   -1.2757367   -0.0000188   -0.6964414  
O   -2.3524597   -0.0000640   -0.1142313  
C   -1.2676494   -0.0000875   -2.2584081  
O   -2.3355762   -0.0004102   -2.8557294  
C    0.0181562    0.0001757   -2.9516296  
H    2.9547357    0.0006072   -3.5989105  
H    4.3498550    0.0008609   -1.3200021  
H    2.7563627    0.0012824    0.6148063  
C    0.8175213    0.6860729    2.3021913  
C    0.0000000    0.0000000    1.4700000  
C   -0.8887526   -0.7456559    2.3478473  
C   -0.4549825   -0.3816753    3.7138435  
N    0.5448156    0.4573574    3.6934124  
C   -1.0945674   -0.9182058    4.8835240  
C   -2.1210866   -1.7789155    4.6970523  
O   -2.8083856   -2.3554314    5.6976972  
C   -2.5824069   -2.1655116    3.3310774  
O   -3.5227682   -2.9541547    3.2362962  
C   -1.9100805   -1.6015804    2.1470656  
H   -0.7567140   -0.6349833    5.8697035  
H   -3.4728268   -2.9124471    5.2533954  
H   -2.2742832   -1.9066565    1.1752040  
H    1.6189533    1.3585343    2.0405121  
