64

C   -3.3038943    0.0393370   -1.5420411  
C   -2.5843474    0.0313399   -0.3695838  
C   -1.2039152    0.0143778   -0.7283583  
C   -1.1421651    0.0130359   -2.1454367  
N   -2.4347232    0.0264641   -2.6077452  
C    0.0655010   -0.0016619   -2.8497915  
C    1.2320853   -0.0149458   -2.1101404  
O    2.4391044   -0.0292420   -2.7472531  
C    1.1910344   -0.0142223   -0.6955271  
O    2.4369807   -0.0288701   -0.1032874  
C    0.0000000    0.0000000    0.0000000  
H   -3.0029384    0.0359268    0.6222598  
H   -2.7051871    0.0394155   -3.5745251  
H    0.1193268   -0.0029094   -3.9297474  
H    3.1130763   -0.0371110   -2.0551801  
H    2.3198683   -0.0272965    0.8516397  
C   -6.7063457    0.0835041    1.2828929  
C   -7.7130270    0.0942555    0.3453726  
C   -7.0880317    0.0853864   -0.9367751  
C   -5.6868838    0.0688582   -0.7166909  
N   -5.4896795    0.0700935    0.6418842  
C   -4.7573902    0.0562992   -1.7610435  
C   -5.2513492    0.0601949   -3.0510692  
O   -4.3878951    0.0480467   -4.1081002  
C   -6.6459767    0.0769890   -3.2909630  
O   -6.9797335    0.0792507   -4.6295988  
C   -7.5635209    0.0896583   -2.2611677  
H   -4.5958156    0.0498325    1.0985879  
H   -4.9327588    0.0536503   -4.9058197  
H   -7.9388724    0.0908978   -4.7038985  
H   -8.6257132    0.1025875   -2.4757799  
H   -6.7599221    0.0857865    2.3581062  
C   -9.7480941    0.8372382    1.6441845  
C  -11.1034389    0.6019063    1.6329070  
C  -11.3583024   -0.3131604    0.5688122  
C  -10.1097938   -0.6033438   -0.0385959  
N   -9.1535942    0.1130726    0.6374563  
C   -9.9815688   -1.4735857   -1.1253459  
C  -11.1346741   -2.0618363   -1.6075153  
O  -11.0665997   -2.9199950   -2.6667336  
C  -12.3896756   -1.7845797   -1.0151323  
O  -13.4434629   -2.4477391   -1.6093508  
C  -12.5169544   -0.9259588    0.0568266  
H  -11.8203843    1.0371843    2.3078253  
H   -9.0329286   -1.6987979   -1.5928546  
H  -11.9709115   -3.2125135   -2.8397044  
H  -14.2532434   -2.2054454   -1.1498371  
H  -13.4915884   -0.7328154    0.4895651  
H   -9.1586111    1.4654635    2.2897865  
C    0.8175213    0.6860729    2.3021913  
C    0.0000000    0.0000000    1.4700000  
C   -0.8887526   -0.7456559    2.3478473  
C   -0.4549825   -0.3816753    3.7138435  
N    0.5448156    0.4573574    3.6934124  
C   -1.0945674   -0.9182058    4.8835240  
C   -2.1210866   -1.7789155    4.6970523  
O   -2.8083856   -2.3554314    5.6976972  
C   -2.5824069   -2.1655116    3.3310774  
O   -3.5227682   -2.9541547    3.2362962  
C   -1.9100805   -1.6015804    2.1470656  
H   -0.7567140   -0.6349833    5.8697035  
H   -3.4728268   -2.9124471    5.2533954  
H   -2.2742832   -1.9066565    1.1752040  
H    1.6189533    1.3585343    2.0405121  
