58

C    3.3321168    0.0004718   -1.3379340  
C    2.6974173    0.0000120   -2.5332316  
C    1.2800429   -0.0002115   -2.2052839  
C    1.2395029    0.0000645   -0.7271292  
N    2.4394058    0.0005461   -0.2131034  
C    0.0000000    0.0000000    0.0000000  
C   -1.1468704    0.0000636   -0.7169534  
O   -2.3742203    0.0000072   -0.1695483  
C   -1.1388774    0.0001610   -2.2096346  
O   -2.2206247    0.0000907   -2.7970399  
C    0.1454511    0.0001820   -2.9324236  
H   -2.9844350    0.0001026   -0.9290156  
H    0.1083560    0.0003687   -4.0135586  
H    4.3940033    0.0007623   -1.1498642  
C    6.1750773   -2.1401265   -4.0541480  
C    6.2185417   -1.7328815   -5.3440477  
C    5.0928601   -0.8226151   -5.4881193  
C    4.4613972   -0.7962582   -4.1512782  
N    5.0914458   -1.5665792   -3.3065098  
C    3.2973489   -0.0000927   -3.8752381  
C    2.7875442    0.7365675   -4.8885327  
O    1.7053529    1.5249202   -4.7727643  
C    3.4023821    0.7314014   -6.2487194  
O    2.8851939    1.4261378   -7.1234070  
C    4.5959970   -0.0935898   -6.5067848  
H    6.9270456   -2.0152349   -6.1038989  
H    1.5884049    1.9168946   -5.6569765  
H    6.8414744   -2.8219656   -3.5501809  
C    6.2389629   -3.3117505   -8.9422722  
C    6.5900285   -2.6606089  -10.0755621  
C    6.2238502   -1.2725745   -9.8393983  
C    5.6496453   -1.2652647   -8.4767470  
N    5.6559213   -2.4577633   -7.9458064  
C    5.1604553   -0.0611221   -7.8637048  
C    5.2415770    1.0837462   -8.5792677  
O    4.8234644    2.2798956   -8.1315518  
C    5.8161868    1.1088629   -9.9567126  
O    5.8584721    2.1867365  -10.5496898  
C    6.3112618   -0.1395112  -10.5636611  
H    7.0417785   -3.0714564  -10.9622434  
H    5.0118285    2.8974043   -8.8611785  
H    6.7202894   -0.0790823  -11.5632998  
H    6.3468534   -4.3612148   -8.7187592  
C    2.5528530    2.1414826    2.8079335  
C    2.0663498    1.7338582    4.0032312  
C    0.9804344    0.8229586    3.6752840  
C    0.9495562    0.7966882    2.1971295  
N    1.8690446    1.5676019    1.6831036  
C    0.0000000    0.0000000    1.4700000  
C   -0.8785127   -0.7372425    2.1869543  
O   -1.8187535   -1.5261249    1.6395491  
C   -0.8723269   -0.7321790    3.6796354  
O   -1.7010379   -1.4274584    4.2670412  
C    0.1115397    0.0933559    4.4024240  
H    2.4028853    2.0163452    4.9860947  
H   -2.2861435   -1.9184361    2.3990168  
H    0.0832434    0.0693689    5.4835595  
H    3.3664920    2.8238276    2.6198634  
