62

C    0.0000000    0.0000000    0.0000000  
C    1.0521663   -0.0012127   -0.8862346  
C    0.4917212   -0.0012064   -2.1979133  
C   -0.9187434    0.0003342   -2.0478680  
N   -1.1833171   -0.0009162   -0.7007908  
C   -1.7951710    0.0010729   -3.1372085  
C   -1.2375850    0.0005485   -4.4010419  
O   -2.0474230    0.0015792   -5.4997574  
C    0.1673570   -0.0013603   -4.5711963  
O    0.5673506   -0.0020810   -5.8915549  
C    1.0325760   -0.0023636   -3.4969895  
H    2.0953057   -0.0031095   -0.6200566  
H   -2.0989776    0.0102817   -0.2891816  
H   -1.4634906    0.0006803   -6.2693587  
H    1.5290693   -0.0033481   -5.9180048  
H    2.1042133   -0.0040058   -3.6584461  
C   -4.5381977    2.1274406   -0.3186939  
C   -3.4269304    1.6642943   -0.9843118  
C   -3.8900347    0.7769882   -2.0005906  
C   -5.3047819    0.7381790   -1.9061929  
N   -5.6652817    1.5678631   -0.8735840  
C   -6.0984783   -0.0375960   -2.7564915  
C   -5.4522426   -0.7876255   -3.7198257  
O   -6.1790053   -1.5627449   -4.5765754  
C   -4.0415168   -0.7624072   -3.8295248  
O   -3.5480366   -1.5636289   -4.8384176  
C   -3.2578662    0.0024729   -2.9908496  
H   -2.4078036    1.9320821   -0.7637130  
H   -6.6070670    1.7501471   -0.5772828  
H   -5.5422054   -1.9964625   -5.1593607  
H   -2.5888607   -1.4891272   -4.8443287  
H   -4.6159210    2.8115573    0.5088947  
C   -9.3267593    2.9432858   -2.0101757  
C   -8.1013340    2.3974944   -2.1891274  
C   -8.3510338    0.9834531   -2.4228720  
C   -9.8215684    0.8473262   -2.3481595  
N  -10.3989440    1.9928604   -2.1065439  
C  -10.4786597   -0.4179398   -2.5282133  
C   -9.7020199   -1.4980458   -2.7722125  
O  -10.1807085   -2.7396551   -2.9601059  
C   -8.2152678   -1.3928859   -2.8538910  
O   -7.5712303   -2.4174723   -3.0789675  
C   -7.5649347   -0.0838674   -2.6655772  
H   -7.1459572    2.8932503   -2.1655259  
H  -11.5549243   -0.4883468   -2.4681432  
H   -9.3908773   -3.2896987   -3.1110110  
H   -9.5718645    3.9744247   -1.8110558  
C    1.0672568    0.0000697    2.3021913  
C    0.0000000    0.0000000    1.4700000  
C   -1.1601224    0.0000736    2.3478473  
C   -0.5938729    0.0000769    3.7138435  
N    0.7113367    0.0001554    3.6934124  
C   -1.4286986    0.0001879    4.8835240  
C   -2.7683114    0.0006799    4.6970523  
O   -3.6653903    0.0008304    5.6976972  
C   -3.3702025    0.0010610    3.3310774  
O   -4.5974910    0.0013779    3.2362962  
C   -2.4926826    0.0008943    2.1470656  
H   -0.9878360   -0.0000190    5.8697035  
H   -4.5324246    0.0012261    5.2533954  
H   -2.9677772    0.0012974    1.1752040  
H    2.1134392    0.0000545    2.0405121  
