58

C   -4.7795902   -0.0014365   -1.0815732  
C   -5.7862020   -0.0015659   -1.9861793  
C   -7.0047291   -0.0021751   -1.1913893  
C   -6.5351377   -0.0024607    0.2107762  
N   -5.2316823   -0.0019492    0.2814340  
C   -7.4495158   -0.0030275    1.3193781  
C   -8.7728589   -0.0029078    1.0399217  
O   -9.7375488   -0.0033968    1.9755577  
C   -9.2780075   -0.0022495   -0.3647083  
O  -10.4956957   -0.0023001   -0.5448628  
C   -8.3200394   -0.0017195   -1.4846287  
H   -5.7111081   -0.0011927   -3.0601610  
H   -7.0785138   -0.0034323    2.3339060  
H  -10.5714820   -0.0031299    1.4718624  
C   -3.3321171   -0.0008683   -1.3379339  
C   -2.6974179   -0.0003330   -2.5332313  
C   -1.2800437    0.0000591   -2.2052841  
C   -1.2395036   -0.0002120   -0.7271296  
N   -2.4394057   -0.0008364   -0.2131040  
C    0.0000000    0.0000000    0.0000000  
C    1.1468701    0.0000730   -0.7169540  
O    2.3742206    0.0002753   -0.1695489  
C    1.1388771   -0.0000253   -2.2096353  
O    2.2206229    0.0001736   -2.7970409  
C   -0.1454517   -0.0001992   -2.9324242  
H   -3.1367985   -0.0003086   -3.5160951  
H    2.9844347    0.0002526   -0.9290165  
H   -0.1083571   -0.0003815   -4.0135594  
C   -8.4267837   -0.6865022   -3.9256939  
C   -8.8719487   -0.0009245   -2.8470883  
C  -10.0251558    0.7451570   -3.3266447  
C  -10.1360353    0.3819390   -4.7557573  
N   -9.2018358   -0.4570495   -5.1126309  
C  -11.1679040    0.9190667   -5.5994563  
C  -12.0491851    1.7796188   -5.0407729  
O  -13.0618063    2.3566376   -5.7098674  
C  -11.9638444    2.1654506   -3.6013244  
O  -12.7997072    2.9539905   -3.1600078  
C  -10.8962537    1.6009164   -2.7566491  
H  -11.2250689    0.6363962   -6.6404844  
H  -13.5107421    2.9133765   -5.0483154  
H  -10.8688822    1.9054468   -1.7189876  
H   -7.5858368   -1.3590608   -3.9844058  
C    2.5528530    2.1414826    2.8079335  
C    2.0663498    1.7338582    4.0032312  
C    0.9804344    0.8229586    3.6752840  
C    0.9495562    0.7966882    2.1971295  
N    1.8690446    1.5676019    1.6831036  
C    0.0000000    0.0000000    1.4700000  
C   -0.8785127   -0.7372425    2.1869543  
O   -1.8187535   -1.5261249    1.6395491  
C   -0.8723269   -0.7321790    3.6796354  
O   -1.7010379   -1.4274584    4.2670412  
C    0.1115397    0.0933559    4.4024240  
H    2.4028853    2.0163452    4.9860947  
H   -2.2861435   -1.9184361    2.3990168  
H    0.0832434    0.0693689    5.4835595  
H    3.3664920    2.8238276    2.6198634  
