58

C    4.2926942   -2.1403413   -1.5040815  
C    5.3604709   -1.7320206   -2.2284479  
C    4.8134480   -0.8208703   -3.2219623  
C    3.3612070   -0.7952318   -2.9446113  
N    3.0500067   -1.5667026   -1.9386404  
C    2.4521483    0.0014840   -3.7217481  
C    2.9703730    0.7393569   -4.7298756  
O    2.2390463    1.5283419   -5.5352977  
C    4.4316776    0.7349405   -5.0343913  
O    4.8335653    1.4307760   -5.9668723  
C    5.3436396   -0.0906362   -4.2228050  
H    2.8845122    1.9211529   -6.1502979  
H    6.3952201   -0.0661686   -4.4754099  
H    4.2782631   -2.8230632   -0.6694220  
C    7.1175195   -5.6066637   -1.2864181  
C    8.4404835   -5.3221801   -1.2660546  
C    8.5232282   -3.9011393   -1.5665449  
C    7.1183744   -3.4754641   -1.7447871  
N    6.2898381   -4.4709142   -1.5817033  
C    6.7688489   -2.1173124   -2.0583831  
C    7.7769220   -1.2248915   -2.1876429  
O    7.5961825    0.0747072   -2.4781889  
C    9.2047857   -1.6236371   -2.0133797  
O   10.0705106   -0.7586341   -2.1457038  
C    9.5376009   -3.0228846   -1.6920319  
H    9.2591024   -5.9936937   -1.0710998  
H    8.4946969    0.4504752   -2.5031733  
H   10.5837931   -3.2712722   -1.5736385  
H    6.6399380   -6.5575798   -1.1113551  
C    0.0000000    0.0000000    0.0000000  
C    1.0662923   -0.0000101   -0.8334270  
C    0.4961873    0.0000065   -2.1718887  
C   -0.9663854   -0.0000848   -1.9540250  
N   -1.2632773   -0.0000083   -0.6828660  
C   -1.8985359   -0.0000514   -3.0477261  
C   -1.3925770    0.0004566   -4.3020547  
O   -2.1456378    0.0005414   -5.4151314  
C    0.0786240    0.0009326   -4.5545000  
O    0.4683767    0.0012591   -5.7221100  
C    1.0143171    0.0008444   -3.4159031  
H    2.1107200    0.0000633   -0.5721865  
H   -2.9622181   -0.0003268   -2.8593381  
H   -1.5042265    0.0009697   -6.1484419  
C    3.1301144    0.0010313    3.1728260  
C    2.5367765    0.0002768    1.9564670  
C    1.1089900   -0.0001027    2.2356185  
C    1.0177864    0.0004150    3.7115134  
N    2.1993570    0.0011613    4.2663826  
C   -0.2459220    0.0002880    4.3957118  
C   -1.3675327    0.0000606    3.6398520  
O   -2.6129319   -0.0000866    4.1448486  
C   -1.3083589   -0.0000910    2.1483229  
O   -2.3693264   -0.0004206    1.5241687  
C    0.0000000    0.0000000    1.4700000  
H    3.0096015    0.0001008    0.9892483  
H   -0.2829642    0.0004689    5.4753125  
H   -3.1967446   -0.0002093    3.3649027  
H    4.1849273    0.0015113    3.3971983  
