62

C   -3.3041217    0.0051088   -1.5420451  
C   -2.5845325    0.0045662   -0.3695870  
C   -1.2039985    0.0019052   -0.7283598  
C   -1.1422349    0.0012031   -2.1454380  
N   -2.4348624    0.0012406   -2.6077480  
C    0.0655197   -0.0009835   -2.8497916  
C    1.2321764   -0.0021816   -2.1101391  
O    2.4392806   -0.0039733   -2.7472503  
C    1.1911205   -0.0018834   -0.6955255  
O    2.4371509   -0.0036231   -0.1032844  
C    0.0000000    0.0000000    0.0000000  
H   -3.0031496    0.0048165    0.6222562  
H   -2.7054453    0.0113894   -3.5745279  
H    0.1193554   -0.0016733   -3.9297471  
H    3.1132970   -0.0048599   -2.0551764  
H    2.3200262   -0.0032628    0.8516425  
C   -4.7577148    0.0070129   -1.7610490  
C   -5.7406963    0.0099224   -0.8308242  
C   -6.9792855    0.0106665   -1.5939733  
C   -6.5459583    0.0079798   -3.0077640  
N   -5.2447563    0.0057500   -3.1119615  
C   -7.4885808    0.0077724   -4.0924525  
C   -8.8042887    0.0097526   -3.7790131  
O   -9.7927519    0.0098246   -4.6894975  
C   -9.2730965    0.0121144   -2.3618418  
O  -10.4857415    0.0139654   -2.1503922  
C   -8.2866077    0.0123244   -1.2669615  
H   -5.6379708    0.0112929    0.2408672  
H  -10.6134361    0.0114409   -4.1644952  
H   -8.6668032    0.0139510   -0.2542038  
C   -5.9521087   -0.7151812   -5.9694390  
C   -7.0194360    0.0053448   -5.4855776  
C   -7.5632743    0.7331268   -6.5852019  
C   -6.7799580    0.4138590   -7.7238015  
N   -5.8092982   -0.4664093   -7.3144542  
C   -7.0308161    0.9522640   -8.9894948  
C   -8.0919421    1.8287034   -9.1079986  
O   -8.3814325    2.3833291  -10.3210934  
C   -8.8848736    2.1599000   -7.9835500  
O   -9.9039760    3.0466018   -8.2637914  
C   -8.6378071    1.6293390   -6.7345546  
H   -5.1109804   -0.8772010   -7.9073995  
H   -6.4374433    0.7130679   -9.8612147  
H   -9.1469150    2.9563954  -10.1836297  
H  -10.3906222    3.2172071   -7.4515886  
H   -9.2622695    1.9018329   -5.8917780  
H   -5.2805258   -1.3857613   -5.4612481  
C    2.3971438    2.0127888    3.1728260  
C    1.9431056    1.6308205    1.9564670  
C    0.8496017    0.7127664    2.2356185  
C    0.7794028    0.6545384    3.7115134  
N    1.6840587    1.4146091    4.2663826  
C   -0.1885723   -0.1578550    4.3957118  
C   -1.0476298   -0.8789867    3.6398520  
O   -2.0015663   -1.6796266    4.1448486  
C   -1.0022026   -0.8410666    2.1483229  
O   -1.8147390   -1.5232959    1.5241687  
C    0.0000000    0.0000000    1.4700000  
H    2.3054237    1.9346118    0.9892483  
H   -0.2170646   -0.1815267    5.4753125  
H   -2.4487139   -2.0549881    3.3649027  
H    3.2048689    2.6911772    3.3971983  
