58

C    3.2573672   -0.0002920   -1.5109380  
C    2.5379470   -0.0001710   -0.3591959  
C    1.1435044    0.0000331   -0.7338498  
C    1.1092609   -0.0000083   -2.2088475  
N    2.4227564    0.0001909   -2.6182609  
C   -0.0265532   -0.0002524   -2.9515660  
C   -1.3003037   -0.0002640   -2.2514978  
O   -2.3786783   -0.0004133   -2.8306423  
C   -1.2877723    0.0000311   -0.6895608  
O   -2.3539957    0.0003306   -0.0892035  
C    0.0000000    0.0000000    0.0000000  
H    2.9384091   -0.0000368    0.6389235  
H    2.7280494   -0.0013407   -3.5742112  
C    5.6736568   -0.0006412   -0.7359113  
C    4.7161333   -0.0005436   -1.6923256  
C    5.4441212   -0.0008917   -2.9519022  
C    6.8695496   -0.0010681   -2.5585347  
N    7.0103281   -0.0010031   -1.2607784  
C    7.9272795   -0.0014688   -3.5313108  
C    7.5769339   -0.0020725   -4.8376766  
O    8.4592379   -0.0024904   -5.8513726  
C    6.1471281   -0.0022845   -5.2664162  
O    5.9016330   -0.0027168   -6.4726299  
C    5.0804453   -0.0018210   -4.2495039  
H    8.9603214   -0.0013834   -3.2155047  
H    7.9113463   -0.0029031   -6.6569570  
H    4.0573868   -0.0021088   -4.6010469  
H    5.5430690   -0.0004691    0.3345653  
C    2.5185219   -2.1418787   -5.7664425  
C    2.0285780   -1.7344767   -6.9604095  
C    0.9435062   -0.8236412   -6.6295057  
C    0.9168306   -0.7971605   -5.1512730  
N    1.8378570   -1.5679056   -4.6397541  
C   -0.0307352   -0.0004647   -4.4215603  
C   -0.9113600    0.7365841   -5.1361186  
O   -1.8501209    1.5254491   -4.5861544  
C   -0.9094203    0.7313056   -6.6288100  
O   -1.7398706    1.4264151   -7.2139564  
C    0.0724711   -0.0942327   -7.3542759  
H    2.3623450   -2.0170713   -7.9441857  
H   -2.3197101    1.9176026   -5.3443458  
H    0.0410968   -0.0704048   -8.4353302  
H    3.3327629   -2.8241129   -5.5805893  
C    0.8400945    0.7047457    2.2710304  
C    0.0000000    0.0000000    1.4700000  
C   -0.8844236   -0.7423113    2.3369512  
C   -0.4878984   -0.4098547    3.7186280  
N    0.5629682    0.4714286    3.6095011  
C   -1.0836927   -0.9095027    4.8308716  
C   -2.1891196   -1.8367527    4.6554461  
O   -2.7906899   -2.3413415    5.5944904  
C   -2.6257283   -2.2031529    3.2011665  
O   -3.5549479   -2.9829990    3.0410059  
C   -1.9068976   -1.5999348    2.0816745  
H   -0.7774656   -0.6525820    5.8354244  
H   -2.2155208   -1.8586617    1.0779135  
H    1.6384792    1.3747609    1.9961646  
H    1.0518368    0.8833920    4.3830260  
