58

C   -2.4827765    2.1086144   -1.5109393  
C   -1.9344689    1.6428641   -0.3591968  
C   -0.8716707    0.7401291   -0.7338500  
C   -0.8455409    0.7179951   -2.2088474  
N   -1.8468970    1.5680281   -2.6182616  
C    0.0204048   -0.0169962   -2.9515657  
C    0.9913432   -0.8414463   -2.2514966  
O    1.8134438   -1.5393313   -2.8306413  
C    0.9816000   -0.8335600   -0.6895596  
O    1.7941464   -1.5239205   -0.0892022  
C    0.0000000    0.0000000    0.0000000  
H   -2.2398128    1.9019692    0.6389226  
H    0.0228505   -0.0188682   -4.0327224  
H   -3.2980274    2.8011208   -1.6439460  
C   -2.9944360    5.2917968   -4.6950698  
C   -2.6271210    4.3716307   -3.7663887  
C   -2.5171246    3.1044899   -4.4498285  
C   -2.8528451    3.3637221   -5.8629388  
N   -3.1328596    4.7082299   -5.9452810  
C   -2.8638898    2.4183452   -6.8365122  
C   -2.5225473    1.0544606   -6.4679475  
O   -2.5040150    0.1319163   -7.2722293  
C   -2.1639332    0.7570748   -4.9770546  
O   -1.8751889   -0.3874979   -4.6548100  
C   -2.1863339    1.8592015   -4.0185833  
H   -2.4532652    4.5591049   -2.7217637  
H   -3.1129550    2.6295687   -7.8671732  
H   -3.3951886    5.1915314   -6.7847154  
C   -2.8055858    7.9567118   -1.1795337  
C   -2.7643088    6.8851060   -2.0126197  
C   -3.1230729    7.3604006   -3.3279975  
C   -3.3785504    8.8071283   -3.1919805  
N   -3.1692970    9.1056780   -1.8653411  
C   -3.7440247    9.6227199   -4.2132261  
C   -3.8961152    9.0364844   -5.5344877  
O   -4.2219770    9.6874456   -6.5185433  
C   -3.6308504    7.5062835   -5.7015916  
O   -3.7560442    7.0014559   -6.8091727  
C   -3.2418554    6.7309589   -4.5262591  
H   -2.5115763    5.8767292   -1.7370914  
H   -3.9264983   10.6814646   -4.0920961  
H   -2.6011109    8.0037026   -0.1222393  
H   -3.2640233   10.0180989   -1.4584490  
C    2.5528530    2.1414826    2.8079335  
C    2.0663498    1.7338582    4.0032312  
C    0.9804344    0.8229586    3.6752840  
C    0.9495562    0.7966882    2.1971295  
N    1.8690446    1.5676019    1.6831036  
C    0.0000000    0.0000000    1.4700000  
C   -0.8785127   -0.7372425    2.1869543  
O   -1.8187535   -1.5261249    1.6395491  
C   -0.8723269   -0.7321790    3.6796354  
O   -1.7010379   -1.4274584    4.2670412  
C    0.1115397    0.0933559    4.4024240  
H    2.4028853    2.0163452    4.9860947  
H   -2.2861435   -1.9184361    2.3990168  
H    0.0832434    0.0693689    5.4835595  
H    3.3664920    2.8238276    2.6198634  
