58

C   -3.2572830   -0.0232444   -1.5109398  
C   -2.5378817   -0.0181672   -0.3591974  
C   -1.1434731   -0.0082956   -0.7338502  
C   -1.1092305   -0.0080067   -2.2088479  
N   -2.4226898   -0.0176966   -2.6182622  
C    0.0265527    0.0004444   -2.9515660  
C    1.3002704    0.0096596   -2.2514971  
O    2.3786151    0.0176009   -2.8306408  
C    1.2877401    0.0092738   -0.6895599  
O    2.3539370    0.0166785   -0.0892023  
C    0.0000000    0.0000000    0.0000000  
H   -2.9383324   -0.0211950    0.6389222  
H    0.0296280    0.0006228   -4.0327229  
H   -2.7279857   -0.0183709   -3.5742125  
C   -5.6461989   -0.0410305   -0.7029989  
C   -4.7160130   -0.0335333   -1.6923281  
C   -5.4338487   -0.0379004   -2.9451366  
C   -6.8687767   -0.0486041   -2.6021261  
N   -6.9297056   -0.0504169   -1.2276537  
C   -7.8765537   -0.0549280   -3.5109994  
C   -7.5244508   -0.0511510   -4.9211571  
O   -8.3594182   -0.0563226   -5.8162015  
C   -6.0109935   -0.0400922   -5.3073318  
O   -5.7023816   -0.0371357   -6.4913966  
C   -5.0158695   -0.0337218   -4.2379678  
H   -3.9701151   -0.0258690   -4.5137579  
H   -5.5020423   -0.0407051    0.3652274  
H   -7.7761899   -0.0555106   -0.6886865  
C  -10.0831661    2.0342915   -0.3409265  
C  -11.3319945    1.5610974   -0.5870770  
C  -11.2285636    0.6675092   -1.7165185  
C   -9.8069108    0.6588102   -2.1110032  
N   -9.1663680    1.5077320   -1.2381197  
C   -9.2989802   -0.0653933   -3.1401974  
C  -10.2135612   -0.8912345   -3.9109524  
O   -9.8533305   -1.5798929   -4.8566187  
C  -11.7234638   -0.8970980   -3.5109950  
O  -12.5029779   -1.5882815   -4.1527760  
C  -12.1516313   -0.0748585   -2.3820815  
H  -12.2238886    1.8098013   -0.0400078  
H  -13.1987171   -0.0846574   -2.1114541  
H   -9.7554925    2.7235478    0.4202868  
H   -8.1838517    1.7116365   -1.2496478  
C    0.0000000    0.0000000    1.4700000  
C    1.0662921    0.0000102    2.3034270  
C    0.4961870   -0.0000064    3.6418889  
C   -0.9663858    0.0000850    3.4240247  
N   -1.2632773    0.0000084    2.1528658  
C   -1.8985362    0.0000517    4.5177257  
C   -1.3925775   -0.0004564    5.7720543  
O   -2.1456383   -0.0005410    6.8851312  
C    0.0786232   -0.0009323    6.0245000  
O    0.4683759   -0.0012588    7.1921102  
C    1.0143166   -0.0008442    4.8859032  
H    2.1107198   -0.0000632    2.0421868  
H   -2.9622183    0.0003270    4.3293377  
H   -1.5042274   -0.0009692    7.6184419  
H    2.0724152   -0.0013148    5.1109744  
