58

C   -3.2798078   -0.0015997   -1.4499647  
C   -2.5571143   -0.0013472   -2.5996554  
C   -1.1637429   -0.0005146   -2.2210360  
C   -1.1336961   -0.0003305   -0.7459470  
N   -2.4483510   -0.0006140   -0.3402721  
C    0.0000000    0.0000000    0.0000000  
C    1.2757371    0.0004131   -0.6964418  
O    2.3524597    0.0007913   -0.1142320  
C    1.2676490    0.0004793   -2.2584085  
O    2.3355765    0.0011322   -2.8557300  
C   -0.0181559   -0.0001815   -2.9516298  
H   -2.9547349   -0.0015211   -3.5989103  
H   -0.0150791   -0.0003365   -4.0331631  
H   -2.7563620   -0.0021346    0.6148065  
C   -6.5739152   -0.0039047   -4.3537886  
C   -7.6280837   -0.0043055   -3.4977493  
C   -7.0842285   -0.0039640   -2.1601929  
C   -5.6162779   -0.0032976   -2.3082156  
N   -5.3720687   -0.0036925   -3.6621917  
C   -4.7390840   -0.0024266   -1.2727278  
C   -5.2766305   -0.0023514    0.0776719  
O   -4.5688481   -0.0016596    1.0763434  
C   -6.8281771   -0.0033018    0.2579686  
O   -7.2923821   -0.0035541    1.3901232  
C   -7.6713704   -0.0039178   -0.9348757  
H   -8.7446431   -0.0043691   -0.8014218  
H   -6.5739151   -0.0039633   -5.4316982  
H   -4.4610963   -0.0018473   -4.0831096  
C   -9.6909190   -2.1474165   -6.6819737  
C  -10.9710058   -1.7405477   -6.5164012  
C  -10.9313594   -0.8294890   -5.3828673  
C   -9.5099602   -0.8023094   -4.9760851  
N   -8.7779923   -1.5728701   -5.7340086  
C   -9.0494875   -0.0052109   -3.8725976  
C   -9.9672062    0.7315552   -3.2060376  
O   -9.6781357    1.5207376   -2.1573860  
C  -11.4089601    0.7255726   -3.5926500  
O  -12.1886887    1.4204574   -2.9412057  
C  -11.8564695   -0.1003686   -4.7282034  
H  -11.8353897   -2.0236267   -7.0924066  
H  -10.5319172    1.9125624   -1.8991571  
H  -12.9090943   -0.0770486   -4.9765337  
H   -9.3011759   -2.8296134   -7.4206758  
C    2.3971438    2.0127888    3.1728260  
C    1.9431056    1.6308205    1.9564670  
C    0.8496017    0.7127664    2.2356185  
C    0.7794028    0.6545384    3.7115134  
N    1.6840587    1.4146091    4.2663826  
C   -0.1885723   -0.1578550    4.3957118  
C   -1.0476298   -0.8789867    3.6398520  
O   -2.0015663   -1.6796266    4.1448486  
C   -1.0022026   -0.8410666    2.1483229  
O   -1.8147390   -1.5232959    1.5241687  
C    0.0000000    0.0000000    1.4700000  
H    2.3054237    1.9346118    0.9892483  
H   -0.2170646   -0.1815267    5.4753125  
H   -2.4487139   -2.0549881    3.3649027  
H    3.2048689    2.6911772    3.3971983  
