62

C   -2.3384684    2.3289293   -1.4738969  
C   -1.7878354    1.7806179   -2.6090736  
C   -0.8233392    0.8204289   -2.1820096  
C   -0.8297556    0.8265529   -0.7636135  
N   -1.7595778    1.7550665   -0.3662344  
C    0.0000000    0.0000000    0.0000000  
C    0.8515323   -0.8484033   -0.6806486  
O    1.6829481   -1.6771118    0.0157736  
C    0.8727765   -0.8687728   -2.0955513  
O    1.7755135   -1.7677020   -2.6250193  
C    0.0546735   -0.0534416   -2.8495193  
H   -1.9924181    1.9724778    0.5858680  
H    2.1844879   -2.1763216   -0.6418827  
H    1.7265695   -1.7184494   -3.5845931  
H    0.0933326   -0.0910876   -3.9319087  
H   -3.0973204    3.0849809   -1.3667116  
C   -2.7047908    5.6927134   -4.5697779  
C   -2.3795324    4.7156299   -3.6576475  
C   -2.3883568    3.4729085   -4.3577660  
C   -2.7284159    3.7567414   -5.7052545  
N   -2.9157328    5.1134710   -5.7991394  
C   -2.8305100    2.7641923   -6.6846478  
C   -2.5845438    1.4614178   -6.2967598  
O   -2.6700182    0.4532470   -7.2128923  
C   -2.2442636    1.1581952   -4.9569526  
O   -2.0298676   -0.1853519   -4.7283483  
C   -2.1436289    2.1368304   -3.9901688  
H   -2.1636647    4.8784084   -2.6155835  
H   -3.1556949    5.6094960   -6.6384002  
H   -3.0894239    2.9739670   -7.7133171  
H   -2.4640237   -0.3635870   -6.7400140  
H   -1.8052285   -0.3039273   -3.8004039  
C   -2.2136826    8.2640903   -1.0441330  
C   -2.4879050    9.4698300   -1.6054431  
C   -2.7761438    9.2293470   -2.9996891  
C   -2.6464668    7.7742311   -3.2061167  
N   -2.3034354    7.2471105   -1.9824488  
C   -2.8408071    7.1457031   -4.3930830  
C   -3.2015656    7.9565074   -5.5441630  
O   -3.3977585    7.4843615   -6.6563174  
C   -3.3441462    9.4996316   -5.3486009  
O   -3.6471674   10.1925561   -6.3105227  
C   -3.1098688   10.0614142   -4.0206829  
H   -2.4880517   10.4193604   -1.1004623  
H   -3.2108067   11.1307094   -3.8936258  
H   -1.9533673    8.0329175   -0.0239934  
H   -2.1448970    6.2733601   -1.7988103  
C    2.3971438    2.0127888    3.1728260  
C    1.9431056    1.6308205    1.9564670  
C    0.8496017    0.7127664    2.2356185  
C    0.7794028    0.6545384    3.7115134  
N    1.6840587    1.4146091    4.2663826  
C   -0.1885723   -0.1578550    4.3957118  
C   -1.0476298   -0.8789867    3.6398520  
O   -2.0015663   -1.6796266    4.1448486  
C   -1.0022026   -0.8410666    2.1483229  
O   -1.8147390   -1.5232959    1.5241687  
C    0.0000000    0.0000000    1.4700000  
H    2.3054237    1.9346118    0.9892483  
H   -0.2170646   -0.1815267    5.4753125  
H   -2.4487139   -2.0549881    3.3649027  
H    3.2048689    2.6911772    3.3971983  
