60

C   -3.3003526   -0.0035222   -1.4738992  
C   -2.5232794   -0.0026393   -2.6090750  
C   -1.1623190   -0.0009229   -2.1820104  
C   -1.1711884   -0.0011211   -0.7636141  
N   -2.4852306   -0.0007631   -0.3662362  
C    0.0000000    0.0000000    0.0000000  
C    1.2020373    0.0010386   -0.6806474  
O    2.3759243    0.0018063    0.0157751  
C    1.2314657    0.0016283   -2.0955506  
O    2.5054375    0.0030767   -2.6250173  
C    0.0764515    0.0007963   -2.8495192  
H   -2.8919940   -0.0020623   -3.6205304  
H   -2.8036173   -0.0113619    0.5858658  
H    3.0835634    0.0027629   -0.6418813  
H    2.4360039    0.0033627   -3.5845915  
H    0.1304089    0.0014601   -3.9319085  
C   -4.7630475   -0.0047973   -1.3275412  
C   -5.7197888   -0.0067901   -2.2912411  
C   -6.9965511   -0.0072674   -1.6169173  
C   -6.7031120   -0.0053463   -0.1709988  
N   -5.3315492   -0.0043072   -0.0628096  
C   -7.6461186   -0.0047617    0.8049324  
C   -9.0433272   -0.0063409    0.4045073  
O   -9.9665684   -0.0060304    1.2082034  
C   -9.3772040   -0.0086392   -1.1213781  
O  -10.5499505   -0.0102888   -1.4705544  
C   -8.2742368   -0.0087980   -2.0791442  
H   -5.5504459   -0.0079919   -3.3532840  
H   -8.5138854   -0.0101898   -3.1337961  
H   -4.8220255   -0.0013802    0.8017275  
C   -6.3026933    0.7252566    2.8299375  
C   -6.2637274    0.5102570    4.1702106  
C   -7.3263687   -0.4173025    4.4788549  
C   -7.9923721   -0.7273121    3.1993533  
N   -7.3244743   -0.0026599    2.2393105  
C   -9.0486934   -1.5688808    3.0664928  
C   -9.5641917   -2.2120908    4.2636045  
O  -10.5121311   -2.9863473    4.2481242  
C   -8.8743896   -1.8981552    5.6294089  
O   -9.2998308   -2.4335215    6.6441227  
C   -7.7431409   -0.9741147    5.6460732  
H   -5.5698891    0.9512673    4.8635448  
H   -9.5225891   -1.7827175    2.1185443  
H   -7.2709640   -0.7622073    6.5957406  
H   -5.6710652    1.3543930    2.2240304  
C    2.3971438    2.0127888    3.1728260  
C    1.9431056    1.6308205    1.9564670  
C    0.8496017    0.7127664    2.2356185  
C    0.7794028    0.6545384    3.7115134  
N    1.6840587    1.4146091    4.2663826  
C   -0.1885723   -0.1578550    4.3957118  
C   -1.0476298   -0.8789867    3.6398520  
O   -2.0015663   -1.6796266    4.1448486  
C   -1.0022026   -0.8410666    2.1483229  
O   -1.8147390   -1.5232959    1.5241687  
C    0.0000000    0.0000000    1.4700000  
H    2.3054237    1.9346118    0.9892483  
H   -0.2170646   -0.1815267    5.4753125  
H   -2.4487139   -2.0549881    3.3649027  
H    3.2048689    2.6911772    3.3971983  
