60

C    3.2573672   -0.0002920   -1.5109380  
C    2.5379470   -0.0001710   -0.3591959  
C    1.1435044    0.0000331   -0.7338498  
C    1.1092609   -0.0000083   -2.2088475  
N    2.4227564    0.0001909   -2.6182609  
C   -0.0265532   -0.0002524   -2.9515660  
C   -1.3003037   -0.0002640   -2.2514978  
O   -2.3786783   -0.0004133   -2.8306423  
C   -1.2877723    0.0000311   -0.6895608  
O   -2.3539957    0.0003306   -0.0892035  
C    0.0000000    0.0000000    0.0000000  
H    2.9384091   -0.0000368    0.6389235  
H    2.7280494   -0.0013407   -3.5742112  
C    5.6463488    0.0002323   -0.7029957  
C    4.7161333   -0.0005436   -1.6923256  
C    5.4339829   -0.0013633   -2.9451332  
C    6.8689507   -0.0010281   -2.6021223  
N    6.9298903    0.0003445   -1.2276501  
C    7.8767475   -0.0019861   -3.5109952  
C    7.5246271   -0.0032187   -4.9211533  
O    8.3596101   -0.0040804   -5.8161967  
C    6.0111303   -0.0033416   -5.3073282  
O    5.7025051   -0.0040680   -6.4913938  
C    5.0159852   -0.0025215   -4.2379655  
H    8.9229469   -0.0018485   -3.2382757  
H    3.9702016   -0.0028179   -4.5137561  
H    5.5021933    0.0009485    0.3652306  
H    7.7763888   -0.0006784   -0.6886822  
C    0.7844859   -0.6865739   -5.2559748  
C   -0.0307352   -0.0004647   -4.4215603  
C   -0.9220584    0.7449731   -5.2969825  
C   -0.4921387    0.3808398   -6.6641549  
N    0.5077999   -0.4580874   -6.6464474  
C   -1.1351039    0.9171357   -7.8320886  
C   -2.1611771    1.7777670   -7.6428215  
O   -2.8513795    2.3540676   -8.6415895  
C   -2.6186494    2.1645130   -6.2755955  
O   -3.5588185    2.9530733   -6.1782529  
C   -1.9428992    1.6008219   -5.0934198  
H   -0.8000284    0.6338054   -8.8191842  
H   -3.5146113    2.9110795   -8.1954797  
H   -2.3043669    1.9060010   -4.1205702  
H    1.5867285   -1.3589153   -4.9964798  
C    0.8576279    0.7185626    2.2703808  
C    0.0000000    0.0000000    1.4700000  
C   -0.8668858   -0.7285659    2.3373528  
C   -0.4876752   -0.4117774    3.6669281  
N    0.5635254    0.4678311    3.5902241  
C   -1.1297612   -0.9515493    4.7854808  
C   -2.1738724   -1.8268314    4.5576857  
O   -2.8357962   -2.3827064    5.6140350  
C   -2.5667212   -2.1555554    3.2384331  
O   -3.6226318   -3.0413663    3.1773122  
C   -1.9335634   -1.6236449    2.1344818  
H    1.0363952    0.8769718    4.3757045  
H   -0.8454472   -0.7142436    5.8013813  
H   -3.5178062   -2.9546422    5.2385129  
H   -3.8247440   -3.2102924    2.2519915  
H   -2.2566033   -1.8942483    1.1360343  
H    1.6567807    1.3889844    2.0042067  
