58

C    1.0965512    0.0001357   -0.8010303  
C    0.0000000    0.0000000    0.0000000  
C   -1.1546567    0.0001469   -0.8669506  
C   -0.6372019    0.0003519   -2.2486281  
N    0.7342867    0.0007337   -2.1395011  
C   -1.4147747    0.0001350   -3.3608708  
C   -2.8576058   -0.0001049   -3.1854449  
O   -3.6427791   -0.0002494   -4.1244897  
C   -3.4275844   -0.0000726   -1.7311658  
O   -4.6406826    0.0000332   -1.5710050  
C   -2.4891869   -0.0001092   -0.6116739  
H   -1.0150457    0.0001614   -4.3654239  
H   -2.8919120   -0.0002920    0.3920866  
H    2.1388267    0.0000663   -0.5261646  
C    4.4892970   -2.1441338   -2.6751664  
C    4.8760701   -1.7381812   -3.9069083  
C    3.8307835   -0.8270018   -4.3469397  
C    2.8653298   -0.7987569   -3.2272586  
N    3.2460490   -1.5688474   -2.2444043  
C    1.6707634   -0.0012345   -3.2725973  
C    1.4508813    0.7349193   -4.3857299  
O    0.3779847    1.5243966   -4.5636592  
C    2.4065716    0.7278581   -5.5323626  
O    2.1425161    1.4222295   -6.5138633  
C    3.6247981   -0.0985001   -5.4617875  
H    5.7614096   -2.0219348   -4.4498022  
H    0.5018298    1.9156224   -5.4472639  
H    4.9961449   -2.8261075   -2.0110952  
C    5.8546721   -3.3205588   -7.3679606  
C    6.4963460   -2.6708456   -8.3668141  
C    6.0820158   -1.2822407   -8.2379474  
C    5.1648277   -1.2730714   -7.0780917  
N    5.0277262   -2.4650597   -6.5639358  
C    4.5311094   -0.0678772   -6.6187497  
C    4.8016764    1.0762199   -7.2874571  
O    4.2805891    2.2731939   -6.9684552  
C    5.7232424    1.0994624   -8.4614834  
O    5.9235732    2.1767201   -9.0223788  
C    6.3609542   -0.1499628   -8.9133521  
H    7.1679673   -3.0829759   -9.1003992  
H    4.6576478    2.8898179   -7.6217200  
H    7.0221121   -0.0908867   -9.7675235  
H    5.8977474   -4.3699062   -7.1230368  
C    2.5528530    2.1414826    2.8079335  
C    2.0663498    1.7338582    4.0032312  
C    0.9804344    0.8229586    3.6752840  
C    0.9495562    0.7966882    2.1971295  
N    1.8690446    1.5676019    1.6831036  
C    0.0000000    0.0000000    1.4700000  
C   -0.8785127   -0.7372425    2.1869543  
O   -1.8187535   -1.5261249    1.6395491  
C   -0.8723269   -0.7321790    3.6796354  
O   -1.7010379   -1.4274584    4.2670412  
C    0.1115397    0.0933559    4.4024240  
H    2.4028853    2.0163452    4.9860947  
H   -2.2861435   -1.9184361    2.3990168  
H    0.0832434    0.0693689    5.4835595  
H    3.3664920    2.8238276    2.6198634  
