60

C   -3.3003551   -0.0028503   -1.4738957  
C   -2.5232834   -0.0021257   -2.6090724  
C   -1.1623227   -0.0006863   -2.1820091  
C   -1.1711895   -0.0008826   -0.7636129  
N   -2.4852315   -0.0002571   -0.3662339  
C    0.0000000    0.0000000    0.0000000  
C    1.2020373    0.0007939   -0.6806491  
O    2.3759234    0.0013225    0.0157722  
C    1.2314624    0.0013777   -2.0955521  
O    2.5054347    0.0025666   -2.6250202  
C    0.0764478    0.0007808   -2.8495194  
H   -2.8919989   -0.0014735   -3.6205275  
H   -2.8036197   -0.0107913    0.5858688  
H    3.0835618    0.0021352   -0.6418847  
H    2.4359995    0.0028668   -3.5845943  
H    0.1304052    0.0014336   -3.9319088  
C   -4.7630509   -0.0038276   -1.3275358  
C   -5.7197932   -0.0056258   -2.2912351  
C   -6.9965550   -0.0058430   -1.6169097  
C   -6.7031138   -0.0039818   -0.1709913  
N   -5.3315507   -0.0032219   -0.0628039  
C   -7.6461193   -0.0032052    0.8049406  
C   -9.0433290   -0.0045000    0.4045173  
O   -9.9665687   -0.0040015    1.2082141  
C   -9.3772065   -0.0067303   -1.1213681  
O  -10.5499535   -0.0081411   -1.4705437  
C   -8.2742412   -0.0071136   -2.0791355  
H   -5.5504516   -0.0068620   -3.3532783  
H   -7.4095533   -0.0017075    1.8599023  
H   -4.8220256   -0.0003985    0.8017328  
C   -8.5999679   -0.0089389   -3.5125927  
C   -7.7616877   -0.0098124   -4.5809372  
C   -8.5884024   -0.0115331   -5.7647340  
C   -9.9870630   -0.0115617   -5.2951185  
N   -9.9251836   -0.0103493   -3.9206879  
C  -11.0718980   -0.0125627   -6.1104933  
C  -10.8469399   -0.0139132   -7.5464348  
O  -11.7584156   -0.0149432   -8.3634471  
C   -9.3739118   -0.0141599   -8.0660452  
O   -9.1721129   -0.0155992   -9.2729158  
C   -8.2873659   -0.0127204   -7.0896910  
H   -6.6868644   -0.0094911   -4.5439387  
H  -12.0896074   -0.0124340   -5.7455598  
H   -7.2703446   -0.0126963   -7.4576477  
H  -10.7202445   -0.0085088   -3.3083789  
C    0.8175213    0.6860729    2.3021913  
C    0.0000000    0.0000000    1.4700000  
C   -0.8887526   -0.7456559    2.3478473  
C   -0.4549825   -0.3816753    3.7138435  
N    0.5448156    0.4573574    3.6934124  
C   -1.0945674   -0.9182058    4.8835240  
C   -2.1210866   -1.7789155    4.6970523  
O   -2.8083856   -2.3554314    5.6976972  
C   -2.5824069   -2.1655116    3.3310774  
O   -3.5227682   -2.9541547    3.2362962  
C   -1.9100805   -1.6015804    2.1470656  
H   -0.7567140   -0.6349833    5.8697035  
H   -3.4728268   -2.9124471    5.2533954  
H   -2.2742832   -1.9066565    1.1752040  
H    1.6189533    1.3585343    2.0405121  
