58

C    3.2573674   -0.0002918   -1.5109377  
C    2.5379467   -0.0001707   -0.3591955  
C    1.1435041    0.0000334   -0.7338492  
C    1.1092607   -0.0000078   -2.2088471  
N    2.4227563    0.0001914   -2.6182602  
C   -0.0265529   -0.0002519   -2.9515657  
C   -1.3003036   -0.0002636   -2.2514976  
O   -2.3786783   -0.0004128   -2.8306423  
C   -1.2877729    0.0000314   -0.6895603  
O   -2.3539953    0.0003307   -0.0892034  
C    0.0000000    0.0000000    0.0000000  
H    2.9384089   -0.0000366    0.6389244  
H   -0.0296290   -0.0004080   -4.0327227  
H    4.3270394   -0.0004764   -1.6439434  
C    5.6729071   -2.0145375   -4.9077641  
C    4.8700832   -1.6312625   -3.8878850  
C    3.9127041   -0.7149582   -4.4881447  
C    4.2947940   -0.6590675   -5.9155434  
N    5.3258964   -1.4188900   -6.1675113  
C    3.5802908    0.1511099   -6.8632691  
C    2.5315064    0.8723550   -6.4058944  
O    1.7758673    1.6710695   -7.1786208  
C    2.1210488    0.8367662   -4.9711754  
O    1.1566751    1.5189644   -4.6250402  
C    2.8699643   -0.0020520   -4.0185819  
H    4.9211863   -1.9331395   -2.8557345  
H    1.1123787    2.0470800   -6.5723600  
H    6.5110723   -2.6922906   -4.8745382  
C    5.0075735   -2.8656904   -9.8172874  
C    4.5660441   -2.3062518   -8.6667830  
C    4.3964149   -0.8950255   -8.9768900  
C    4.7917262   -0.7752938  -10.3967403  
N    5.1508807   -1.9272380  -10.8947590  
C    4.7633094    0.4826192  -11.0909556  
C    4.3580160    1.5713583  -10.3983372  
O    4.2828162    2.8076039  -10.9199524  
C    3.9524382    1.4827736   -8.9645238  
O    3.5945016    2.5145158   -8.3965362  
C    3.9902788    0.1810336   -8.2746208  
H    4.3785258   -2.7913472   -7.7241302  
H    5.0578127    0.5410276  -12.1286287  
H    3.9640607    3.3664392  -10.1883446  
H    5.2527991   -3.8995385  -10.0016664  
C    2.3971438    2.0127888    3.1728260  
C    1.9431056    1.6308205    1.9564670  
C    0.8496017    0.7127664    2.2356185  
C    0.7794028    0.6545384    3.7115134  
N    1.6840587    1.4146091    4.2663826  
C   -0.1885723   -0.1578550    4.3957118  
C   -1.0476298   -0.8789867    3.6398520  
O   -2.0015663   -1.6796266    4.1448486  
C   -1.0022026   -0.8410666    2.1483229  
O   -1.8147390   -1.5232959    1.5241687  
C    0.0000000    0.0000000    1.4700000  
H    2.3054237    1.9346118    0.9892483  
H   -0.2170646   -0.1815267    5.4753125  
H   -2.4487139   -2.0549881    3.3649027  
H    3.2048689    2.6911772    3.3971983  
