58

C    3.1301135   -0.0010310   -1.7028268  
C    2.5367760   -0.0002766   -0.4864678  
C    1.1089896    0.0001028   -0.7656187  
C    1.0177856   -0.0004146   -2.2415137  
N    2.1993556   -0.0011609   -2.7963831  
C   -0.2459230   -0.0002875   -2.9257117  
C   -1.3675329   -0.0000603   -2.1698517  
O   -2.6129323    0.0000868   -2.6748480  
C   -1.3083600    0.0000911   -0.6783224  
O   -2.3693274    0.0004207   -0.0541677  
C    0.0000000    0.0000000    0.0000000  
H    3.0096013   -0.0001008    0.4807507  
H   -0.2829655   -0.0004685   -4.0053123  
H   -3.1967443    0.0002095   -1.8949021  
C    6.8847539    0.0010457    0.6986546  
C    5.5715649    0.0014847    0.3713743  
C    5.5475437   -0.0003218   -1.0832457  
C    6.9721645   -0.0016281   -1.4795249  
N    7.7607277   -0.0009151   -0.4392566  
C    7.3784650   -0.0036303   -2.8579307  
C    6.4057851   -0.0046862   -3.7977325  
O    6.6406148   -0.0065621   -5.1209457  
C    4.9592078   -0.0037853   -3.4295291  
O    4.1279690   -0.0047101   -4.3374177  
C    4.5679448   -0.0016852   -2.0086725  
H    4.7238874    0.0027738    1.0350893  
H    5.7562694   -0.0069354   -5.5297079  
H    7.3236793    0.0019889    1.6837014  
C   10.7190430   -2.1437036   -1.0556757  
C   11.7616239   -1.7374932   -1.8169881  
C   11.1814619   -0.8277664   -2.7928512  
C    9.7396037   -0.8005573   -2.4659137  
N    9.4625678   -1.5699539   -1.4484320  
C    8.8049629   -0.0046032   -3.2129005  
C    9.2888055    0.7310404   -4.2395744  
O    8.5308166    1.5190816   -5.0209096  
C   10.7388045    0.7249969   -4.5940112  
O   11.1089447    1.4188268   -5.5410157  
C   11.6775092   -0.0997571   -3.8126408  
H   12.7965724   -2.0201998   -1.7273543  
H    9.1550764    1.9102919   -5.6584106  
H   12.7198255   -0.0765218   -4.1012016  
H   10.7327857   -2.8248827   -0.2197453  
C    2.5528530    2.1414826    2.8079335  
C    2.0663498    1.7338582    4.0032312  
C    0.9804344    0.8229586    3.6752840  
C    0.9495562    0.7966882    2.1971295  
N    1.8690446    1.5676019    1.6831036  
C    0.0000000    0.0000000    1.4700000  
C   -0.8785127   -0.7372425    2.1869543  
O   -1.8187535   -1.5261249    1.6395491  
C   -0.8723269   -0.7321790    3.6796354  
O   -1.7010379   -1.4274584    4.2670412  
C    0.1115397    0.0933559    4.4024240  
H    2.4028853    2.0163452    4.9860947  
H   -2.2861435   -1.9184361    2.3990168  
H    0.0832434    0.0693689    5.4835595  
H    3.3664920    2.8238276    2.6198634  
