58

C    2.0060356   -2.0933383   -5.2079949  
C    1.0681399   -1.6309435   -4.3416121  
C    0.2140995   -0.7346501   -5.0846521  
C    0.7350365   -0.7126398   -6.4648438  
N    1.8215801   -1.5565851   -6.4731475  
C    0.2009232    0.0171136   -7.4767176  
C   -0.9646761    0.8356538   -7.1870525  
O   -1.5183198    1.5285630   -8.0306496  
C   -1.5330619    0.8277889   -5.7321707  
O   -2.5138750    1.5132041   -5.4762944  
C   -0.8712826    0.0001710   -4.7267111  
H    0.9842754   -1.8882190   -3.3007522  
H    2.8165827   -2.7808933   -5.0286313  
H    2.3914345   -1.7539296   -7.2752498  
C    1.8284949   -3.1848715  -10.0447388  
C    1.2877137   -2.4785324   -9.0187198  
C    1.1978752   -1.1049090   -9.4545219  
C    1.7344666   -1.0686317  -10.8284004  
N    2.0996837   -2.3611200  -11.1266956  
C    1.8217632    0.0509149  -11.5904369  
C    1.3563620    1.3037980  -11.0192792  
O    1.3929953    2.3665227  -11.6255577  
C    0.7844970    1.2887909   -9.5658180  
O    0.3899298    2.3375759   -9.0742601  
C    0.7413086    0.0196741   -8.8437865  
H    0.9863253   -2.8745331   -8.0653250  
H    2.2185609    0.0557992  -12.5961398  
H    2.0519277   -4.2378461  -10.1014116  
H    2.4995604   -2.6603073  -11.9971167  
C    1.0965514    0.0001359   -0.8010305  
C    0.0000000    0.0000000    0.0000000  
C   -1.1546563    0.0001470   -0.8669513  
C   -0.6372014    0.0003519   -2.2486282  
N    0.7342871    0.0007337   -2.1395014  
C   -1.4147739    0.0001352   -3.3608717  
C   -2.8576049   -0.0001048   -3.1854462  
O   -3.6427779   -0.0002494   -4.1244907  
C   -3.4275840   -0.0000725   -1.7311666  
O   -4.6406831    0.0000333   -1.5710060  
C   -2.4891867   -0.0001091   -0.6116744  
H   -2.8919122   -0.0002918    0.3920866  
H    2.1388272    0.0000663   -0.5261648  
H    1.3735872   -0.0006099   -2.9130262  
C    2.3971438    2.0127888    3.1728260  
C    1.9431056    1.6308205    1.9564670  
C    0.8496017    0.7127664    2.2356185  
C    0.7794028    0.6545384    3.7115134  
N    1.6840587    1.4146091    4.2663826  
C   -0.1885723   -0.1578550    4.3957118  
C   -1.0476298   -0.8789867    3.6398520  
O   -2.0015663   -1.6796266    4.1448486  
C   -1.0022026   -0.8410666    2.1483229  
O   -1.8147390   -1.5232959    1.5241687  
C    0.0000000    0.0000000    1.4700000  
H    2.3054237    1.9346118    0.9892483  
H   -0.2170646   -0.1815267    5.4753125  
H   -2.4487139   -2.0549881    3.3649027  
H    3.2048689    2.6911772    3.3971983  
