64

C   -4.4706939    2.1246866   -0.3281851  
C   -5.6599768    1.6264304   -0.8075738  
C   -5.3396884    0.7516505   -1.8877474  
C   -3.9276469    0.7558732   -2.0220870  
N   -3.4313251    1.6012783   -1.0610604  
C   -3.2578655    0.0024282   -2.9908505  
C   -4.0275338   -0.7695742   -3.8392613  
O   -3.4247952   -1.5249624   -4.8031637  
C   -5.4377033   -0.7867283   -3.7211785  
O   -6.0624940   -1.6048442   -4.6396918  
C   -6.0991482   -0.0434781   -2.7658792  
H   -2.4588253    1.7971332   -0.9065741  
H   -4.1336024   -1.9789337   -5.2772594  
H   -7.0119842   -1.5590476   -4.4914521  
H   -7.1803457   -0.0766721   -2.6996332  
H   -4.2816954    2.8131213    0.4776039  
C   -7.3986837    3.1973295    0.1356179  
C   -8.7015307    3.1285613    0.5718843  
C   -9.1231051    1.7752440    0.4124869  
C   -8.0256545    1.0585414   -0.1296066  
N   -6.9955847    1.9522773   -0.2871163  
C   -8.0832398   -0.3083436   -0.4178739  
C   -9.2702228   -0.9637232   -0.1538116  
O   -9.3809349   -2.2986333   -0.4160549  
C  -10.3764376   -0.2658774    0.3866671  
O  -11.4867468   -1.0583731    0.5928440  
C  -10.3204281    1.0826473    0.6710448  
H   -9.2775928    3.9526857    0.9565449  
H   -7.2503860   -0.8603232   -0.8312447  
H  -10.2777406   -2.5532101   -0.1626872  
H  -12.1876744   -0.5105306    0.9591388  
H  -11.1840702    1.5902970    1.0844362  
H   -6.7255351    4.0362928    0.0912133  
C    0.0000000    0.0000000    0.0000000  
C    1.0521666   -0.0011982   -0.8862343  
C    0.4917215   -0.0011996   -2.1979132  
C   -0.9187429    0.0003215   -2.0478682  
N   -1.1833171   -0.0009323   -0.7007913  
C   -1.7951703    0.0010483   -3.1372089  
C   -1.2375841    0.0005313   -4.4010422  
O   -2.0474218    0.0015510   -5.4997578  
C    0.1673576   -0.0013585   -4.5711963  
O    0.5673520   -0.0020735   -5.8915554  
C    1.0325768   -0.0023493   -3.4969892  
H    2.0953056   -0.0030808   -0.6200564  
H   -2.0989778    0.0102529   -0.2891822  
H   -1.4634888    0.0006601   -6.2693595  
H    1.5290707   -0.0033271   -5.9180047  
H    2.1042146   -0.0039770   -3.6584456  
C    3.1301144    0.0010313    3.1728260  
C    2.5367765    0.0002768    1.9564670  
C    1.1089900   -0.0001027    2.2356185  
C    1.0177864    0.0004150    3.7115134  
N    2.1993570    0.0011613    4.2663826  
C   -0.2459220    0.0002880    4.3957118  
C   -1.3675327    0.0000606    3.6398520  
O   -2.6129319   -0.0000866    4.1448486  
C   -1.3083589   -0.0000910    2.1483229  
O   -2.3693264   -0.0004206    1.5241687  
C    0.0000000    0.0000000    1.4700000  
H    3.0096015    0.0001008    0.9892483  
H   -0.2829642    0.0004689    5.4753125  
H   -3.1967446   -0.0002093    3.3649027  
H    4.1849273    0.0015113    3.3971983  
