58

C    3.0593704   -2.1180899   -7.2626550  
C    4.1115374   -2.9616877   -7.1492216  
C    4.7229685   -2.9783018   -8.4692112  
C    3.8885899   -2.0638188   -9.2779869  
N    2.9119067   -1.5564930   -8.5760624  
C    4.1679291   -1.8040087  -10.6634669  
C    5.2326498   -2.4290415  -11.2157686  
O    5.6093761   -2.2792637  -12.4970511  
C    6.0940863   -3.3573531  -10.4256256  
O    7.0467381   -3.8916672  -10.9932382  
C    5.7868458   -3.6075137   -9.0061368  
H    4.4330933   -3.5054550   -6.2774445  
H    3.5412871   -1.1312459  -11.2305823  
H    6.3951935   -2.8471921  -12.5924511  
H    6.4351039   -4.2864696   -8.4685393  
C    2.0485056   -2.1404844   -4.9352587  
C    2.0920574   -1.7327545   -6.2250031  
C    0.9665700   -0.8221936   -6.3687260  
C    0.3351121   -0.7962141   -5.0318749  
N    0.9649965   -1.5669928   -4.1874018  
C   -0.8287665    0.0000939   -4.7555305  
C   -1.3384139    0.7372506   -5.7685426  
O   -2.4204375    1.5257894   -5.6524726  
C   -0.7235765    0.7324746   -7.1287316  
O   -1.2406162    1.4276558   -8.0031529  
C    0.4698624   -0.0926721   -7.3871122  
H   -2.5373015    1.9181275   -6.5365349  
H    0.8852523   -0.0684851   -8.3856595  
H    2.7147574   -2.8226587   -4.4315531  
C    1.0672569   -0.0000698   -0.8321910  
C    0.0000000    0.0000000    0.0000000  
C   -1.1601223   -0.0000736   -0.8778472  
C   -0.5938729   -0.0000768   -2.2438435  
N    0.7113367   -0.0001553   -2.2234123  
C   -1.4286985   -0.0001877   -3.4135239  
C   -2.7683113   -0.0006798   -3.2270524  
O   -3.6653902   -0.0008302   -4.2276970  
C   -3.3702024   -0.0010610   -1.8610774  
O   -4.5974910   -0.0013779   -1.7662963  
C   -2.4926825   -0.0008943   -0.6770658  
H   -4.5324245   -0.0012258   -3.7833954  
H   -2.9677772   -0.0012974    0.2947961  
H    2.1134391   -0.0000547   -0.5705119  
C    0.0000000    0.0000000    1.4700000  
C    1.0662921    0.0000102    2.3034270  
C    0.4961870   -0.0000064    3.6418889  
C   -0.9663858    0.0000850    3.4240247  
N   -1.2632773    0.0000084    2.1528658  
C   -1.8985362    0.0000517    4.5177257  
C   -1.3925775   -0.0004564    5.7720543  
O   -2.1456383   -0.0005410    6.8851312  
C    0.0786232   -0.0009323    6.0245000  
O    0.4683759   -0.0012588    7.1921102  
C    1.0143166   -0.0008442    4.8859032  
H    2.1107198   -0.0000632    2.0421868  
H   -2.9622183    0.0003270    4.3293377  
H   -1.5042274   -0.0009692    7.6184419  
H    2.0724152   -0.0013148    5.1109744  
