60

C   -3.3041260    0.0033774   -1.5420424  
C   -2.5845355    0.0032119   -0.3695849  
C   -1.2040001    0.0012743   -0.7283588  
C   -1.1422383    0.0006046   -2.1454367  
N   -2.4348661   -0.0000353   -2.6077461  
C    0.0655164   -0.0009491   -2.8497919  
C    1.2321751   -0.0015358   -2.1101403  
O    2.4392791   -0.0026949   -2.7472524  
C    1.1911196   -0.0012592   -0.6955267  
O    2.4371513   -0.0023461   -0.1032866  
C    0.0000000    0.0000000    0.0000000  
H   -3.0031518    0.0032428    0.6222587  
H   -2.7054547    0.0099717   -3.5745256  
H    0.1193526   -0.0016107   -3.9297469  
H    3.1132966   -0.0032284   -2.0551792  
H    2.3200274   -0.0020471    0.8516405  
C   -6.7370815    0.0079519    1.2348673  
C   -5.4910136    0.0065016    0.6950639  
C   -5.6537408    0.0057471   -0.7396327  
C   -7.1071751    0.0069142   -0.9932415  
N   -7.7077059    0.0078259    0.2446002  
C   -7.6723898    0.0070501   -2.2270312  
C   -6.7903701    0.0057489   -3.3822686  
O   -7.2023940    0.0056975   -4.5348911  
C   -5.2477315    0.0042475   -3.1371777  
O   -4.4952278    0.0028380   -4.1020597  
C   -4.7577205    0.0045199   -1.7610453  
H   -4.5636942    0.0058333    1.2397584  
H   -8.7410224    0.0080446   -2.3911450  
H   -8.6984691    0.0102847    0.4040666  
C   -4.2863301    0.0082150    4.8378265  
C   -5.2200420    0.0100331    5.8174991  
C   -6.4963325    0.0106944    5.1192275  
C   -6.1364770    0.0091588    3.6849733  
N   -4.8423770    0.0076210    3.5138226  
C   -7.1337728    0.0092248    2.6503299  
C   -8.4315698    0.0103662    3.0311923  
O   -9.4656630    0.0105734    2.1728850  
C   -8.8266853    0.0115575    4.4706515  
O  -10.0268147    0.0126873    4.7443463  
C   -7.7850551    0.0115085    5.5132120  
H   -5.0621964    0.0107372    6.8824684  
H  -10.2581867    0.0114466    2.7395047  
H   -8.1125273    0.0122769    6.5442270  
H   -3.2130878    0.0072209    4.9432935  
C    0.8175213    0.6860729    2.3021913  
C    0.0000000    0.0000000    1.4700000  
C   -0.8887526   -0.7456559    2.3478473  
C   -0.4549825   -0.3816753    3.7138435  
N    0.5448156    0.4573574    3.6934124  
C   -1.0945674   -0.9182058    4.8835240  
C   -2.1210866   -1.7789155    4.6970523  
O   -2.8083856   -2.3554314    5.6976972  
C   -2.5824069   -2.1655116    3.3310774  
O   -3.5227682   -2.9541547    3.2362962  
C   -1.9100805   -1.6015804    2.1470656  
H   -0.7567140   -0.6349833    5.8697035  
H   -3.4728268   -2.9124471    5.2533954  
H   -2.2742832   -1.9066565    1.1752040  
H    1.6189533    1.3585343    2.0405121  
