58

C    3.2573672   -0.0002919   -1.5109385  
C    2.5379469   -0.0001709   -0.3591960  
C    1.1435042    0.0000332   -0.7338501  
C    1.1092609   -0.0000081   -2.2088478  
N    2.4227564    0.0001910   -2.6182612  
C   -0.0265531   -0.0002522   -2.9515666  
C   -1.3003034   -0.0002639   -2.2514984  
O   -2.3786783   -0.0004131   -2.8306432  
C   -1.2877725    0.0000312   -0.6895615  
O   -2.3539954    0.0003306   -0.0892041  
C    0.0000000    0.0000000    0.0000000  
H    2.9384086   -0.0000368    0.6389241  
H    4.3270398   -0.0004763   -1.6439447  
H    2.7280492   -0.0013405   -3.5742116  
C   -0.0307350   -0.0004644   -4.4215608  
C    1.0331817   -0.0004856   -5.2580176  
C    0.4592712   -0.0007208   -6.5948523  
C   -1.0026758   -0.0009309   -6.3728279  
N   -1.2959498   -0.0007011   -5.1008299  
C   -1.9379339   -0.0011512   -7.4638727  
C   -1.4355456   -0.0007723   -8.7196355  
O   -2.1917698   -0.0009257   -9.8305658  
C    0.0349309   -0.0001819   -8.9762659  
O    0.4213604    0.0000160  -10.1449798  
C    0.9738596   -0.0000095   -7.8403358  
H    2.0783489   -0.0002673   -4.9997497  
H   -1.5524478   -0.0005376  -10.5656982  
H    2.0313134    0.0005372   -8.0684163  
C   -4.0590480    0.6841045   -6.2512636  
C   -3.3846720   -0.0016373   -7.2033949  
C   -4.4058773   -0.7475229   -7.9226264  
C   -5.6735093   -0.3840236   -7.2536259  
N   -5.4765042    0.4549476   -6.2731642  
C   -6.9378441   -0.9208973   -7.6758955  
C   -6.9359480   -1.7814752   -8.7193205  
O   -8.0423638   -2.3582751   -9.2185058  
C   -5.6732118   -2.1675882   -9.4154348  
O   -5.7463113   -2.9561358  -10.3578092  
C   -4.3889797   -1.6033112   -8.9634778  
H   -7.8486403   -0.6380240   -7.1686060  
H   -7.7226546   -2.9150987   -9.9512309  
H   -3.4969367   -1.9080410   -9.4941651  
H   -3.6597102    1.3565978   -5.5087975  
C    2.5528530    2.1414826    2.8079335  
C    2.0663498    1.7338582    4.0032312  
C    0.9804344    0.8229586    3.6752840  
C    0.9495562    0.7966882    2.1971295  
N    1.8690446    1.5676019    1.6831036  
C    0.0000000    0.0000000    1.4700000  
C   -0.8785127   -0.7372425    2.1869543  
O   -1.8187535   -1.5261249    1.6395491  
C   -0.8723269   -0.7321790    3.6796354  
O   -1.7010379   -1.4274584    4.2670412  
C    0.1115397    0.0933559    4.4024240  
H    2.4028853    2.0163452    4.9860947  
H   -2.2861435   -1.9184361    2.3990168  
H    0.0832434    0.0693689    5.4835595  
H    3.3664920    2.8238276    2.6198634  
