62

C    2.8233682   -0.7205532   -3.3382294  
C    3.4268672   -0.4842899   -4.5516693  
C    2.5842319    0.4170854   -5.2672726  
C    1.4720823    0.6983442   -4.4330401  
N    1.6478443   -0.0100055   -3.2702994  
C    0.4355942    1.5542942   -4.8175280  
C    0.5235655    2.1371665   -6.0668070  
O   -0.4609061    2.9814402   -6.4922838  
C    1.6251323    1.8686433   -6.9137210  
O    1.5672602    2.5248823   -8.1258862  
C    2.6478793    1.0241206   -6.5351767  
H   -0.4148265    1.7726469   -4.1864108  
H   -0.2071935    3.2724202   -7.3778499  
H    2.3476186    2.2892328   -8.6368799  
H    3.4787742    0.8374032   -7.2054214  
H    3.1377269   -1.3408174   -2.5163967  
C    1.1188647    0.0008252   -0.8003807  
C    0.0000000    0.0000000    0.0000000  
C   -1.1323854    0.0008867   -0.8673533  
C   -0.6382658    0.0019661   -2.1969280  
N    0.7324021    0.0038501   -2.1202238  
C   -1.4770906    0.0027278   -3.3154811  
C   -2.8395469    0.0020868   -3.0876860  
O   -3.7039189    0.0024327   -4.1440356  
C   -3.3517866    0.0013841   -1.7684334  
O   -4.7300490    0.0012234   -1.7073130  
C   -2.5248543    0.0009055   -0.6644820  
H   -1.1067559    0.0036958   -4.3313815  
H   -4.5940023    0.0021703   -3.7685138  
H   -4.9934599    0.0007124   -0.7819922  
H   -2.9462580    0.0005524    0.3339655  
H    2.1619899    0.0009412   -0.5342062  
C    5.3737828   -4.4816081   -4.2427899  
C    4.4724656   -3.4804634   -4.1127311  
C    5.0793733   -2.3401120   -4.7818809  
C    6.3805426   -2.8442359   -5.2711680  
N    6.5586552   -4.0989566   -4.9582129  
C    7.2961528   -2.0079183   -5.9973340  
C    6.9284373   -0.7263502   -6.2247161  
O    7.6841925    0.1648281   -6.8885502  
C    5.6217600   -0.1880855   -5.7440633  
O    5.3526376    0.9882868   -5.9868440  
C    4.6998385   -1.0658295   -5.0013986  
H    3.5140860   -3.5119526   -3.6232491  
H    8.2404436   -2.4026166   -6.3429338  
H    7.1580873    0.9848081   -6.8886533  
H    5.2982162   -5.4944750   -3.8803481  
C    2.3971438    2.0127888    3.1728260  
C    1.9431056    1.6308205    1.9564670  
C    0.8496017    0.7127664    2.2356185  
C    0.7794028    0.6545384    3.7115134  
N    1.6840587    1.4146091    4.2663826  
C   -0.1885723   -0.1578550    4.3957118  
C   -1.0476298   -0.8789867    3.6398520  
O   -2.0015663   -1.6796266    4.1448486  
C   -1.0022026   -0.8410666    2.1483229  
O   -1.8147390   -1.5232959    1.5241687  
C    0.0000000    0.0000000    1.4700000  
H    2.3054237    1.9346118    0.9892483  
H   -0.2170646   -0.1815267    5.4753125  
H   -2.4487139   -2.0549881    3.3649027  
H    3.2048689    2.6911772    3.3971983  
