58

C    1.0965515    0.0001360   -0.8010308  
C    0.0000000    0.0000000    0.0000000  
C   -1.1546564    0.0001471   -0.8669508  
C   -0.6372017    0.0003523   -2.2486281  
N    0.7342869    0.0007340   -2.1395010  
C   -1.4147743    0.0001358   -3.3608713  
C   -2.8576053   -0.0001041   -3.1854457  
O   -3.6427783   -0.0002487   -4.1244897  
C   -3.4275844   -0.0000721   -1.7311659  
O   -4.6406833    0.0000338   -1.5710048  
C   -2.4891866   -0.0001089   -0.6116742  
H   -2.8919120   -0.0002916    0.3920871  
H    2.1388274    0.0000662   -0.5261648  
H    1.3735868   -0.0006095   -2.9130264  
C    2.0080273   -2.0907786   -5.2072025  
C    1.0696920   -1.6289492   -4.3409950  
C    0.2147981   -0.7337511   -5.0843737  
C    0.7357140   -0.7117675   -6.4645744  
N    1.8230605   -1.5546808   -6.4725584  
C    0.2009059    0.0170936   -7.4767238  
C   -0.9654722    0.8346328   -7.1873681  
O   -1.5197756    1.5266949   -8.0312280  
C   -1.5338504    0.8267780   -5.7324835  
O   -2.5153155    1.5113557   -5.4768668  
C   -0.8712831    0.0001717   -4.7267108  
H    0.9860726   -1.8859101   -3.3000373  
H    2.8192288   -2.7774938   -5.0275787  
H    2.3931030   -1.7517866   -7.2745860  
C    1.7777795   -3.2586632   -9.8788867  
C    2.1130946   -2.6317545  -11.0304630  
C    1.7608385   -1.2368508  -10.8144557  
C    1.2110899   -1.1994589   -9.4422452  
N    1.2185479   -2.3816647   -8.8887807  
C    0.7412885    0.0196508   -8.8437940  
C    0.8175890    1.1500903   -9.5824544  
O    0.4158478    2.3575481   -9.1503773  
C    1.3677036    1.1448340  -10.9700802  
O    1.4068956    2.2109054  -11.5842274  
C    1.8431910   -0.1184251  -11.5616995  
H    2.5460946   -3.0626617  -11.9169762  
H    0.5954563    2.9596885   -9.8949047  
H    2.2347364   -0.0799891  -12.5693926  
H    1.8823444   -4.3044478   -9.6372794  
C    0.8175213    0.6860729    2.3021913  
C    0.0000000    0.0000000    1.4700000  
C   -0.8887526   -0.7456559    2.3478473  
C   -0.4549825   -0.3816753    3.7138435  
N    0.5448156    0.4573574    3.6934124  
C   -1.0945674   -0.9182058    4.8835240  
C   -2.1210866   -1.7789155    4.6970523  
O   -2.8083856   -2.3554314    5.6976972  
C   -2.5824069   -2.1655116    3.3310774  
O   -3.5227682   -2.9541547    3.2362962  
C   -1.9100805   -1.6015804    2.1470656  
H   -0.7567140   -0.6349833    5.8697035  
H   -3.4728268   -2.9124471    5.2533954  
H   -2.2742832   -1.9066565    1.1752040  
H    1.6189533    1.3585343    2.0405121  
