58

C    3.2573669   -0.0002925   -1.5109380  
C    2.5379467   -0.0001713   -0.3591961  
C    1.1435042    0.0000333   -0.7338503  
C    1.1092608   -0.0000082   -2.2088473  
N    2.4227562    0.0001908   -2.6182610  
C   -0.0265531   -0.0002522   -2.9515663  
C   -1.3003036   -0.0002637   -2.2514982  
O   -2.3786784   -0.0004128   -2.8306429  
C   -1.2877725    0.0000313   -0.6895608  
O   -2.3539961    0.0003311   -0.0892037  
C    0.0000000    0.0000000    0.0000000  
H    2.9384087   -0.0000372    0.6389241  
H    4.3270394   -0.0004769   -1.6439441  
H    2.7280494   -0.0013410   -3.5742113  
C    2.3639620   -2.0106297   -6.1309155  
C    1.9129291   -1.6290292   -4.9133235  
C    0.8175376   -0.7123245   -5.1894926  
C    0.7430708   -0.6543936   -6.6651897  
N    1.6470534   -1.4134615   -7.2225231  
C   -0.2278186    0.1567425   -7.3467461  
C   -1.0855848    0.8769545   -6.5885470  
O   -2.0419119    1.6763796   -7.0909407  
C   -1.0358694    0.8393044   -5.0971476  
O   -1.8474430    1.5206514   -4.4707809  
C   -0.0307353   -0.0004644   -4.4215606  
H    2.2783608   -1.9322472   -3.9470967  
H   -0.2594103    0.1802240   -8.4262646  
H   -2.4872875    2.0513188   -6.3097785  
C    5.2490238   -4.4213079   -3.7372796  
C    4.2418243   -3.5776233   -4.0618182  
C    4.2191107   -3.5626035   -5.5163828  
C    5.3096227   -4.4780080   -5.9156335  
N    5.9168874   -4.9844569   -4.8770147  
C    5.6168599   -4.7394757   -7.2948825  
C    4.8684358   -4.1151460   -8.2326506  
O    5.0444119   -4.2664614   -9.5563485  
C    3.7607693   -3.1859361   -7.8614288  
O    3.1209362   -2.6523391   -8.7675791  
C    3.4652154   -2.9340769   -6.4397611  
H    3.5942001   -3.0328362   -3.3963365  
H    6.4195075   -5.4128827   -7.5579205  
H    4.3652952   -3.6986825   -9.9632633  
H    5.5882623   -4.7030594   -2.7531520  
C    0.0000000    0.0000000    1.4700000  
C    1.0662921    0.0000102    2.3034270  
C    0.4961870   -0.0000064    3.6418889  
C   -0.9663858    0.0000850    3.4240247  
N   -1.2632773    0.0000084    2.1528658  
C   -1.8985362    0.0000517    4.5177257  
C   -1.3925775   -0.0004564    5.7720543  
O   -2.1456383   -0.0005410    6.8851312  
C    0.0786232   -0.0009323    6.0245000  
O    0.4683759   -0.0012588    7.1921102  
C    1.0143166   -0.0008442    4.8859032  
H    2.1107198   -0.0000632    2.0421868  
H   -2.9622183    0.0003270    4.3293377  
H   -1.5042274   -0.0009692    7.6184419  
H    2.0724152   -0.0013148    5.1109744  
