58

C   -3.2798079    0.0004304   -1.4499660  
C   -2.5571136    0.0002357   -2.5996563  
C   -1.1637425    0.0002059   -2.2210365  
C   -1.1336961    0.0003712   -0.7459474  
N   -2.4483509    0.0009014   -0.3402733  
C    0.0000000    0.0000000    0.0000000  
C    1.2757374   -0.0003764   -0.6964417  
O    2.3524598   -0.0006646   -0.1142307  
C    1.2676503   -0.0003051   -2.2584081  
O    2.3355768   -0.0003131   -2.8557292  
C   -0.0181553   -0.0001700   -2.9516298  
H   -2.9547342    0.0003080   -3.5989116  
H   -0.0150778   -0.0003268   -4.0331631  
H   -2.7563630   -0.0004285    0.6148048  
C   -6.6317371    0.0026356   -4.3241612  
C   -5.4016576    0.0021794   -3.7488536  
C   -5.6054517    0.0014002   -2.3194121  
C   -7.0655604    0.0014108   -2.1075794  
N   -7.6303538    0.0025757   -3.3621301  
C   -7.6659170    0.0003885   -0.8905027  
C   -6.8173813   -0.0005755    0.2895481  
O   -7.2622823   -0.0014702    1.4298832  
C   -5.2683491   -0.0003524    0.0887878  
O   -4.5438182   -0.0008508    1.0748485  
C   -4.7390843    0.0005067   -1.2727296  
H   -4.4591021    0.0025499   -4.2667365  
H   -8.7388165    0.0002862   -0.7570955  
H   -8.6161394    0.0013133   -3.5499389  
C   -4.0786929    0.0041475   -7.8553737  
C   -4.9839336    0.0044390   -8.8614143  
C   -6.2797194    0.0042486   -8.2000227  
C   -5.9611331    0.0037196   -6.7560401  
N   -4.6724713    0.0037388   -6.5478558  
C   -6.9876832    0.0034424   -5.7504159  
C   -8.2740273    0.0040717   -6.1683309  
O   -9.3323043    0.0038995   -5.3400249  
C   -8.6277099    0.0049870   -7.6185264  
O   -9.8194992    0.0054017   -7.9265177  
C   -7.5566167    0.0052116   -8.6307937  
H   -4.7956196    0.0048358   -9.9214205  
H  -10.1082571    0.0045033   -5.9291346  
H   -7.8543943    0.0059972   -9.6707738  
H   -3.0028674    0.0041751   -7.9300256  
C    2.3971438    2.0127888    3.1728260  
C    1.9431056    1.6308205    1.9564670  
C    0.8496017    0.7127664    2.2356185  
C    0.7794028    0.6545384    3.7115134  
N    1.6840587    1.4146091    4.2663826  
C   -0.1885723   -0.1578550    4.3957118  
C   -1.0476298   -0.8789867    3.6398520  
O   -2.0015663   -1.6796266    4.1448486  
C   -1.0022026   -0.8410666    2.1483229  
O   -1.8147390   -1.5232959    1.5241687  
C    0.0000000    0.0000000    1.4700000  
H    2.3054237    1.9346118    0.9892483  
H   -0.2170646   -0.1815267    5.4753125  
H   -2.4487139   -2.0549881    3.3649027  
H    3.2048689    2.6911772    3.3971983  
