62

C    1.1243405    0.0100270   -0.7919011  
C    0.7474059    0.0234779   -2.1148551  
C   -0.6787398    0.0234286   -2.1414701  
C   -1.1201753    0.0098251   -0.7935549  
N    0.0000000    0.0000000    0.0000000  
C   -2.4730820    0.0062951   -0.4408238  
C   -3.3971968    0.0169942   -1.4675055  
O   -4.7313528    0.0144810   -1.1793456  
C   -2.9763670    0.0302601   -2.8186319  
O   -4.0166500    0.0393890   -3.7247613  
C   -1.6418584    0.0334762   -3.1673481  
H    1.4178693    0.0311414   -2.9571219  
H   -2.8160168   -0.0041972    0.5845969  
H   -5.1938835    0.0229277   -2.0274373  
H   -3.6464704    0.0481183   -4.6127336  
H    2.1062462    0.0053469   -0.3505421  
C   -0.2201715   -0.6516354   -5.1344353  
C   -1.2456361    0.0471353   -4.5828766  
C   -1.8642321    0.7990473   -5.6490858  
C   -1.1097058    0.4787363   -6.8758216  
N   -0.1264542   -0.4053972   -6.4958036  
C   -1.3840484    0.9897602   -8.1027263  
C   -2.4965753    1.9173118   -8.2230091  
O   -2.8231685    2.4316773   -9.2846429  
C   -3.3092978    2.2709620   -6.9368442  
O   -4.2479088    3.0509437   -7.0257222  
C   -2.9183445    1.6560857   -5.6707739  
H   -0.8181874    0.7416387   -8.9899390  
H   -3.4863015    1.9060251   -4.7849528  
H    0.4751036   -1.3255995   -4.6608804  
C    1.5580139   -4.4869695   -6.7452299  
C    2.3995252   -4.2649939   -7.8106182  
C    2.2376137   -2.9000266   -8.1917327  
C    1.2763660   -2.3344196   -7.3153666  
N    0.8828731   -3.3255633   -6.4508345  
C    0.8690474   -0.9995833   -7.3995840  
C    1.4427748   -0.2214698   -8.3862727  
O    1.0814723    1.0886645   -8.5128518  
C    2.4033135   -0.7677492   -9.2704455  
O    2.8811553    0.1344118  -10.1984095  
C    2.8054166   -2.0845867   -9.1881170  
H    3.0492456   -4.9971383   -8.2587489  
H    0.2157577   -3.2169880   -5.7084399  
H    1.5929894    1.4427834   -9.2519158  
H    3.5242229   -0.3143857  -10.7557675  
H    3.5430356   -2.4749808   -9.8794838  
H    1.3849244   -5.3822380   -6.1729593  
C    2.5528530    2.1414826    2.8079335  
C    2.0663498    1.7338582    4.0032312  
C    0.9804344    0.8229586    3.6752840  
C    0.9495562    0.7966882    2.1971295  
N    1.8690446    1.5676019    1.6831036  
C    0.0000000    0.0000000    1.4700000  
C   -0.8785127   -0.7372425    2.1869543  
O   -1.8187535   -1.5261249    1.6395491  
C   -0.8723269   -0.7321790    3.6796354  
O   -1.7010379   -1.4274584    4.2670412  
C    0.1115397    0.0933559    4.4024240  
H    2.4028853    2.0163452    4.9860947  
H   -2.2861435   -1.9184361    2.3990168  
H    0.0832434    0.0693689    5.4835595  
H    3.3664920    2.8238276    2.6198634  
