60

C    3.3003554    0.0005275   -1.4738974  
C    2.5232826    0.0003498   -2.6090738  
C    1.1623213   -0.0001318   -2.1820099  
C    1.1711890    0.0000584   -0.7636139  
N    2.4852302   -0.0014918   -0.3662349  
C    0.0000000    0.0000000    0.0000000  
C   -1.2020378    0.0000521   -0.6806491  
O   -2.3759246    0.0003495    0.0157732  
C   -1.2314647   -0.0005109   -2.0955517  
O   -2.5054373   -0.0008032   -2.6250193  
C   -0.0764502   -0.0007270   -2.8495196  
H    2.8036265    0.0088179    0.5858675  
H   -3.0835636    0.0000352   -0.6418829  
H   -2.4360027   -0.0011521   -3.5845936  
H   -0.1304075   -0.0013417   -3.9319090  
H    4.3715556    0.0004894   -1.3667119  
C    4.0912600   -0.7049384   -4.4540724  
C    3.0267456   -0.0008951   -3.9901691  
C    2.4918056    0.7392289   -5.1086016  
C    3.3379779    0.4062540   -6.2704577  
N    4.2890172   -0.4732103   -5.8068229  
C    3.1585259    0.9039811   -7.5201654  
C    2.0587118    1.8295632   -7.7352064  
O    1.8145075    2.3323680   -8.8241749  
C    1.1499717    2.1964773   -6.5189122  
O    0.2211209    2.9749320   -6.6877457  
C    1.4426664    1.5953885   -5.2201156  
H    0.8086049    1.8544580   -4.3831132  
H    4.7480580   -1.3734088   -3.9214817  
H    5.0137610   -0.8850252   -6.3655735  
C    4.0179321    0.5541866   -8.6603257  
C    5.0841180   -0.2792373   -8.6755195  
C    5.5570929   -0.2581567  -10.0511467  
C    4.6355605    0.6647427  -10.7480098  
N    3.7312509    1.1441133   -9.9378134  
C    4.7688778    0.9597172  -12.1481182  
C    5.7772132    0.3602773  -12.8213671  
O    6.0191262    0.5440124  -14.1304740  
C    6.7238797   -0.5756951  -12.1461347  
O    7.6183136   -1.0854256  -12.8209559  
C    6.5662060   -0.8621388  -10.7091194  
H    5.4985082   -0.8390925   -7.8545940  
H    4.0810450    1.6378776  -12.6317457  
H    6.7963553   -0.0121871  -14.3194438  
H    7.2725702   -1.5455521  -10.2572061  
C    2.3971438    2.0127888    3.1728260  
C    1.9431056    1.6308205    1.9564670  
C    0.8496017    0.7127664    2.2356185  
C    0.7794028    0.6545384    3.7115134  
N    1.6840587    1.4146091    4.2663826  
C   -0.1885723   -0.1578550    4.3957118  
C   -1.0476298   -0.8789867    3.6398520  
O   -2.0015663   -1.6796266    4.1448486  
C   -1.0022026   -0.8410666    2.1483229  
O   -1.8147390   -1.5232959    1.5241687  
C    0.0000000    0.0000000    1.4700000  
H    2.3054237    1.9346118    0.9892483  
H   -0.2170646   -0.1815267    5.4753125  
H   -2.4487139   -2.0549881    3.3649027  
H    3.2048689    2.6911772    3.3971983  
