58

C   -4.7390831   -0.0017692   -1.2727316  
C   -5.7159767   -0.0026886   -2.2159989  
C   -6.9782040   -0.0029322   -1.5148440  
C   -6.6542730   -0.0020439   -0.0754491  
N   -5.2807301   -0.0017650    0.0037314  
C   -7.5764452   -0.0015790    0.9201930  
C   -8.9818047   -0.0022063    0.5493835  
O   -9.8878550   -0.0019202    1.3724109  
C   -9.3478536   -0.0034026   -0.9691062  
O  -10.5277173   -0.0042452   -1.2934223  
C   -8.2653734   -0.0035336   -1.9499675  
H   -5.5691159   -0.0033265   -3.2813835  
H   -8.5272566   -0.0041592   -2.9993196  
H   -4.7530489    0.0003755    0.8573095  
C   -3.2798069   -0.0011447   -1.4499674  
C   -2.5571117   -0.0009924   -2.5996573  
C   -1.1637412   -0.0003531   -2.2210371  
C   -1.1336957   -0.0001732   -0.7459479  
N   -2.4483507   -0.0002745   -0.3402739  
C    0.0000000    0.0000000    0.0000000  
C    1.2757377    0.0002363   -0.6964406  
O    2.3524595    0.0004651   -0.1142296  
C    1.2676511    0.0003036   -2.2584073  
O    2.3355789    0.0008085   -2.8557276  
C   -0.0181539   -0.0001788   -2.9516295  
H   -2.9547325   -0.0011111   -3.5989132  
H   -0.0150757   -0.0003342   -4.0331633  
H   -2.7563623   -0.0017523    0.6148041  
C   -4.4899989    2.0136993    3.4255762  
C   -5.2219099    1.6308151    2.3535287  
C   -6.2165662    0.7128724    2.8869513  
C   -5.9314123    0.6557046    4.3367798  
N   -4.9204268    1.4162508    4.6584438  
C   -6.7072567   -0.1562745    5.2333521  
C   -7.7220925   -0.8780231    4.7055995  
O   -8.5272056   -1.6783769    5.4248114  
C   -8.0350354   -0.8411765    3.2465347  
O   -8.9731844   -1.5239237    2.8354958  
C   -7.2245590   -0.0005172    2.3474543  
H   -5.1017339    1.9339377    1.3274926  
H   -6.4764812   -0.1791688    6.2884012  
H   -9.1479609   -2.0543389    4.7748349  
H   -3.6522195    2.6923164    3.4496107  
C    2.5528530    2.1414826    2.8079335  
C    2.0663498    1.7338582    4.0032312  
C    0.9804344    0.8229586    3.6752840  
C    0.9495562    0.7966882    2.1971295  
N    1.8690446    1.5676019    1.6831036  
C    0.0000000    0.0000000    1.4700000  
C   -0.8785127   -0.7372425    2.1869543  
O   -1.8187535   -1.5261249    1.6395491  
C   -0.8723269   -0.7321790    3.6796354  
O   -1.7010379   -1.4274584    4.2670412  
C    0.1115397    0.0933559    4.4024240  
H    2.4028853    2.0163452    4.9860947  
H   -2.2861435   -1.9184361    2.3990168  
H    0.0832434    0.0693689    5.4835595  
H    3.3664920    2.8238276    2.6198634  
