60

C    0.0000000    0.0000000    0.0000000  
C    1.0521663   -0.0011902   -0.8862345  
C    0.4917215   -0.0011956   -2.1979133  
C   -0.9187430    0.0003149   -2.0478683  
N   -1.1833172   -0.0009411   -0.7007910  
C   -1.7951704    0.0010351   -3.1372088  
C   -1.2375840    0.0005226   -4.4010423  
O   -2.0474221    0.0015361   -5.4997580  
C    0.1673576   -0.0013565   -4.5711965  
O    0.5673516   -0.0020685   -5.8915550  
C    1.0325767   -0.0023411   -3.4969892  
H    2.0953056   -0.0030649   -0.6200563  
H   -2.0989778    0.0102372   -0.2891821  
H   -1.4634890    0.0006499   -6.2693592  
H    1.5290706   -0.0033151   -5.9180044  
C   -4.5107109    2.0951262   -0.3556529  
C   -3.4200327    1.6321237   -1.0190716  
C   -3.9000923    0.7371431   -2.0454186  
C   -5.3703974    0.7165654   -1.9247124  
N   -5.6767109    1.5600024   -0.8817956  
C   -6.1968238   -0.0117002   -2.7173996  
C   -5.5982295   -0.8300369   -3.7588149  
O   -6.2574696   -1.5216542   -4.5239093  
C   -4.0430710   -0.8236734   -3.9045791  
O   -3.5277074   -1.5089321   -4.7775519  
C   -3.2578654    0.0024039   -2.9908502  
H   -2.3960548    1.8881711   -0.8128614  
H   -7.2728546   -0.0125482   -2.6122019  
H   -4.5607733    2.7820760    0.4734932  
H   -6.6045203    1.7580522   -0.5546969  
C    4.5241608   -2.0197577   -1.5987499  
C    3.2542962   -1.6359931   -1.8666084  
C    3.3687702   -0.7184083   -2.9897440  
C    4.8178192   -0.6623894   -3.2790566  
N    5.5001553   -1.4232463   -2.4669579  
C    5.3513656    0.1489353   -4.3383806  
C    4.4770186    0.8711558   -5.0754354  
O    4.8354373    1.6709955   -6.0941765  
C    3.0088485    0.8354670   -4.8082941  
O    2.2716109    1.5185904   -5.5189582  
C    2.4861696   -0.0045381   -3.7159924  
H    2.3514049   -1.9383216   -1.3641542  
H    6.4147068    0.1709922   -4.5274021  
H    3.9981313    2.0475014   -6.4202367  
H    4.8653676   -2.6984429   -0.8332843  
C    3.3321173   -0.0004715    2.8079335  
C    2.6974184   -0.0000116    4.0032312  
C    1.2800439    0.0002118    3.6752840  
C    1.2395035   -0.0000644    2.1971295  
N    2.4394063   -0.0005460    1.6831036  
C    0.0000000    0.0000000    1.4700000  
C   -1.1468701   -0.0000635    2.1869543  
O   -2.3742202   -0.0000073    1.6395491  
C   -1.1388768   -0.0001607    3.6796354  
O   -2.2206231   -0.0000905    4.2670412  
C    0.1454524   -0.0001816    4.4024240  
H    3.1367986    0.0000651    4.9860947  
H   -2.9844344   -0.0001026    2.3990168  
H    0.1083576   -0.0003682    5.4835595  
H    4.3940039   -0.0007619    2.6198634  
