58

C    6.8847521   -0.0023785    0.6986611  
C    5.5715632   -0.0012904    0.3713798  
C    5.5475443   -0.0015350   -1.0832412  
C    6.9721656   -0.0027414   -1.4795200  
N    7.7607267   -0.0033210   -0.4392506  
C    7.3784668   -0.0033612   -2.8579266  
C    6.4057885   -0.0031903   -3.7977300  
O    6.6406195   -0.0037039   -5.1209441  
C    4.9592109   -0.0023543   -3.4295277  
O    4.1279730   -0.0021183   -4.3374177  
C    4.5679461   -0.0016854   -2.0086701  
H    4.7238856   -0.0005185    1.0350950  
H    8.4267357   -0.0040357   -3.1187772  
H    5.7562748   -0.0034384   -5.5297074  
C    7.4830558   -0.0026655    2.0413944  
C    6.8482926   -0.0019232    3.2366575  
C    7.9138063   -0.0026571    4.2272024  
C    9.1610815   -0.0039613    3.4329192  
N    8.9148966   -0.0038913    2.1509750  
C   10.4576768   -0.0049415    4.0525379  
C   10.5060462   -0.0042440    5.4042013  
O   11.6469426   -0.0050230    6.1144102  
C    9.2649649   -0.0025548    6.2335840  
O    9.3841839   -0.0021217    7.4587395  
C    7.9468609   -0.0016176    5.5743988  
H    5.7879601   -0.0009025    3.4231260  
H   11.3525932   -0.0060929    3.4475313  
H   11.3595278   -0.0041875    7.0452936  
H    7.0719750   -0.0002828    6.2106399  
C    3.1301149   -0.0010311   -1.7028252  
C    2.5367768   -0.0002767   -0.4864665  
C    1.1089904    0.0001028   -0.7656183  
C    1.0177872   -0.0004148   -2.2415132  
N    2.1993578   -0.0011611   -2.7963820  
C   -0.2459209   -0.0002877   -2.9257118  
C   -1.3675319   -0.0000605   -2.1698524  
O   -2.6129313    0.0000867   -2.6748490  
C   -1.3083584    0.0000910   -0.6783232  
O   -2.3693261    0.0004206   -0.0541692  
C    0.0000000    0.0000000    0.0000000  
H    3.0096017   -0.0001007    0.4807525  
H   -0.2829630   -0.0004687   -4.0053125  
H   -3.1967441    0.0002094   -1.8949034  
C    2.3971438    2.0127888    3.1728260  
C    1.9431056    1.6308205    1.9564670  
C    0.8496017    0.7127664    2.2356185  
C    0.7794028    0.6545384    3.7115134  
N    1.6840587    1.4146091    4.2663826  
C   -0.1885723   -0.1578550    4.3957118  
C   -1.0476298   -0.8789867    3.6398520  
O   -2.0015663   -1.6796266    4.1448486  
C   -1.0022026   -0.8410666    2.1483229  
O   -1.8147390   -1.5232959    1.5241687  
C    0.0000000    0.0000000    1.4700000  
H    2.3054237    1.9346118    0.9892483  
H   -0.2170646   -0.1815267    5.4753125  
H   -2.4487139   -2.0549881    3.3649027  
H    3.2048689    2.6911772    3.3971983  
