58

C    0.8518586   -0.7041560   -5.2251428  
C    0.0139741    0.0003876   -4.4216236  
C   -0.8729887    0.7427330   -5.2859478  
C   -0.4803619    0.4105167   -6.6687950  
N    0.5709014   -0.4706743   -6.5627858  
C   -1.0793694    0.9102637   -7.7792669  
C   -2.1843879    1.8373745   -7.6005628  
O   -2.7886792    2.3420368   -8.5378192  
C   -2.6168949    2.2035199   -6.1449943  
O   -3.5457345    2.9832466   -5.9820777  
C   -1.8948201    1.6002141   -5.0276394  
H   -0.7759751    0.6535194   -8.7847240  
H   -2.2006129    1.8587644   -4.0229668  
H    1.6510908   -1.3741285   -4.9526464  
C    2.1199231   -4.5275292   -7.2153196  
C    2.6483439   -4.3693998   -8.4562232  
C    2.4081473   -2.9996333   -8.8446568  
C    1.6913610   -2.3681756   -7.7202600  
N    1.5475387   -3.3476294   -6.7648156  
C    1.2838548   -1.0739005   -7.6980018  
C    1.5701458   -0.2477249   -8.8590385  
O    1.2442939    0.9296819   -8.9354214  
C    2.3279696   -0.8957583  -10.0613545  
O    2.5743055   -0.2101229  -11.0444529  
C    2.7162880   -2.3009039   -9.9684746  
H    3.1490711   -5.1260171   -9.0336450  
H    3.2408466   -2.7419965  -10.8051341  
H    2.1003012   -5.4068089   -6.5921247  
H    1.0979951   -3.2237956   -5.8762085  
C    3.2798085    0.0005853   -1.4499648  
C    2.5571144    0.0005562   -2.5996554  
C    1.1637436    0.0001546   -2.2210360  
C    1.1336965   -0.0000201   -0.7459470  
N    2.4483513   -0.0001430   -0.3402717  
C    0.0000000    0.0000000    0.0000000  
C   -1.2757367   -0.0000188   -0.6964414  
O   -2.3524597   -0.0000640   -0.1142313  
C   -1.2676494   -0.0000875   -2.2584081  
O   -2.3355762   -0.0004102   -2.8557294  
C    0.0181562    0.0001757   -2.9516296  
H    2.9547357    0.0006072   -3.5989105  
H    4.3498550    0.0008609   -1.3200021  
H    2.7563627    0.0012824    0.6148063  
C    2.3971438    2.0127888    3.1728260  
C    1.9431056    1.6308205    1.9564670  
C    0.8496017    0.7127664    2.2356185  
C    0.7794028    0.6545384    3.7115134  
N    1.6840587    1.4146091    4.2663826  
C   -0.1885723   -0.1578550    4.3957118  
C   -1.0476298   -0.8789867    3.6398520  
O   -2.0015663   -1.6796266    4.1448486  
C   -1.0022026   -0.8410666    2.1483229  
O   -1.8147390   -1.5232959    1.5241687  
C    0.0000000    0.0000000    1.4700000  
H    2.3054237    1.9346118    0.9892483  
H   -0.2170646   -0.1815267    5.4753125  
H   -2.4487139   -2.0549881    3.3649027  
H    3.2048689    2.6911772    3.3971983  
