58

C   -1.0547456    0.2998953   -0.8010305  
C    0.0000000    0.0000000    0.0000000  
C    1.1105557   -0.3160646   -0.8669513  
C    0.6127905   -0.1746817   -2.2486280  
N   -0.7064683    0.2002017   -2.1395010  
C    1.3607508   -0.3872233   -3.3608717  
C    2.7485910   -0.7817632   -3.1854462  
O    3.5038421   -0.9964538   -4.1244910  
C    3.2968117   -0.9377457   -1.7311670  
O    4.4635906   -1.2697611   -1.5710063  
C    2.3942318   -0.6809569   -0.6116750  
H    0.9762674   -0.2778792   -4.3654242  
H    2.7816404   -0.7909706    0.3920860  
H   -2.0572302    0.5851375   -0.5261644  
C   -3.8097758    3.2611810   -2.8440010  
C   -2.8222860    2.4984681   -2.3080835  
C   -2.5047473    1.4779108   -3.2788909  
C   -3.3945475    1.7102599   -4.4326065  
N   -4.1607534    2.8051962   -4.1056004  
C   -3.4035712    0.9560640   -5.5607961  
C   -2.4750959   -0.1590619   -5.6442439  
O   -2.4065511   -0.8972941   -6.6182132  
C   -1.5237104   -0.4237429   -4.4340311  
O   -0.7379337   -1.3598915   -4.4926969  
C   -1.6066721    0.4583229   -3.2725972  
H   -2.3682675    2.6350705   -1.3427749  
H   -4.0643399    1.1436055   -6.3957349  
H   -4.8648926    3.2117884   -4.6937484  
C   -3.3325861    5.3256735    1.0022308  
C   -4.2712293    6.2958279    0.8545000  
C   -4.8744498    6.1038599   -0.4432324  
C   -4.2055195    4.9339360   -1.0437329  
N   -3.2814353    4.5090184   -0.1172325  
C   -4.4930295    4.4295095   -2.2703528  
C   -5.5303931    5.0825718   -3.0513277  
O   -5.8620909    4.7038747   -4.1670635  
C   -6.2518215    6.3234044   -2.4351447  
O   -7.1266527    6.8816577   -3.0834383  
C   -5.8549066    6.7738878   -1.1034631  
H   -4.5132801    7.0589649    1.5725862  
H   -6.3594298    7.6336163   -0.6838846  
H   -2.6737644    5.1387312    1.8346348  
H   -2.6661871    3.7250514   -0.2351848  
C    0.8175213    0.6860729    2.3021913  
C    0.0000000    0.0000000    1.4700000  
C   -0.8887526   -0.7456559    2.3478473  
C   -0.4549825   -0.3816753    3.7138435  
N    0.5448156    0.4573574    3.6934124  
C   -1.0945674   -0.9182058    4.8835240  
C   -2.1210866   -1.7789155    4.6970523  
O   -2.8083856   -2.3554314    5.6976972  
C   -2.5824069   -2.1655116    3.3310774  
O   -3.5227682   -2.9541547    3.2362962  
C   -1.9100805   -1.6015804    2.1470656  
H   -0.7567140   -0.6349833    5.8697035  
H   -3.4728268   -2.9124471    5.2533954  
H   -2.2742832   -1.9066565    1.1752040  
H    1.6189533    1.3585343    2.0405121  
