58

C    3.3321170    0.0004717   -1.3379335  
C    2.6974181    0.0000120   -2.5332313  
C    1.2800438   -0.0002115   -2.2052841  
C    1.2395035    0.0000644   -0.7271295  
N    2.4394058    0.0005461   -0.2131037  
C    0.0000000    0.0000000    0.0000000  
C   -1.1468696    0.0000635   -0.7169542  
O   -2.3742196    0.0000073   -0.1695489  
C   -1.1388776    0.0001609   -2.2096354  
O   -2.2206240    0.0000906   -2.7970413  
C    0.1454525    0.0001819   -2.9324240  
H    3.1367984   -0.0000647   -3.5160948  
H   -2.9844335    0.0001027   -0.9290165  
H    0.1083574    0.0003685   -4.0135595  
C    7.0021996   -0.0017276   -3.8667538  
C    5.7010056   -0.0020353   -3.4946356  
C    5.7268793   -0.0004762   -2.0400467  
C    7.1642513    0.0005580   -1.6928524  
N    7.9166786   -0.0000883   -2.7595493  
C    7.6175802    0.0022644   -0.3291892  
C    6.6776993    0.0032973    0.6434144  
O    6.9577656    0.0049114    1.9577970  
C    5.2193465    0.0026667    0.3250320  
O    4.4197292    0.0035537    1.2608909  
C    4.7795906    0.0008676   -1.0815724  
H    4.8310669   -0.0030887   -4.1288922  
H    6.0879572    0.0053406    2.3966440  
H    7.4070883   -0.0025637   -4.8662724  
C    9.0554116    0.0029721   -0.0233442  
C   10.0924505    0.0021613   -0.8929005  
C   11.2830070    0.0034426   -0.0567943  
C   10.7656103    0.0051055    1.3284428  
N    9.4604989    0.0047573    1.3543628  
C   11.6414351    0.0066672    2.4677467  
C   12.9735846    0.0061831    2.2338342  
O   13.9056232    0.0074975    3.2019992  
C   13.5266009    0.0041424    0.8473533  
O   14.7497509    0.0039312    0.7090608  
C   12.6075995    0.0026098   -0.3047571  
H   10.0542291    0.0007650   -1.9688248  
H   11.2358630    0.0080710    3.4689552  
H   14.7563373    0.0066871    2.7271967  
H   13.0478913    0.0010347   -1.2928716  
C    0.0000000    0.0000000    1.4700000  
C    1.0662921    0.0000102    2.3034270  
C    0.4961870   -0.0000064    3.6418889  
C   -0.9663858    0.0000850    3.4240247  
N   -1.2632773    0.0000084    2.1528658  
C   -1.8985362    0.0000517    4.5177257  
C   -1.3925775   -0.0004564    5.7720543  
O   -2.1456383   -0.0005410    6.8851312  
C    0.0786232   -0.0009323    6.0245000  
O    0.4683759   -0.0012588    7.1921102  
C    1.0143166   -0.0008442    4.8859032  
H    2.1107198   -0.0000632    2.0421868  
H   -2.9622183    0.0003270    4.3293377  
H   -1.5042274   -0.0009692    7.6184419  
H    2.0724152   -0.0013148    5.1109744  
