64

C    1.6071931   -2.0691457   -5.4061230  
C    0.7600335   -1.6164453   -4.4213127  
C   -0.1612455   -0.7224869   -5.0431512  
C    0.1755311   -0.6690404   -6.4199773  
N    1.2548206   -1.4967870   -6.6059514  
C   -0.5252826    0.1165519   -7.3400286  
C   -1.5855717    0.8615308   -6.8615196  
O   -2.3042733    1.6457779   -7.7167607  
C   -1.9367274    0.8217439   -5.4911458  
O   -3.0155710    1.6195945   -5.1704046  
C   -1.2456329    0.0471727   -4.5828766  
H    0.8017174   -1.8952903   -3.3823224  
H    1.7089804   -1.6697413   -7.4844764  
H   -0.2735270    0.1617574   -8.3906377  
H   -2.9880783    2.0738677   -7.1853335  
H   -3.1866799    1.5350662   -4.2274410  
C    3.3534193   -4.2923876   -2.0051274  
C    4.3494703   -4.9319254   -2.7060845  
C    4.2348901   -4.5158696   -4.0656316  
C    3.1418889   -3.6144512   -4.1343316  
N    2.6280411   -3.5026556   -2.8662307  
C    2.7386332   -3.0041860   -5.3258640  
C    3.4519366   -3.3092242   -6.4688114  
O    3.1010428   -2.7411399   -7.6592597  
C    4.5452581   -4.2065192   -6.4205545  
O    5.1533195   -4.4080046   -7.6424413  
C    4.9434678   -4.8091375   -5.2454773  
H    5.0693190   -5.6152143   -2.2890372  
H    1.8514344   -2.9230313   -2.6037455  
H    3.7185292   -3.0844267   -8.3181458  
H    5.8807367   -5.0260260   -7.5219466  
H    5.7846907   -5.4923564   -5.2394678  
H    3.1021254   -4.3381901   -0.9593203  
C    1.1243410    0.0099923   -0.7919003  
C    0.7474076    0.0234544   -2.1148543  
C   -0.6787381    0.0234490   -2.1414700  
C   -1.1201745    0.0098592   -0.7935546  
N    0.0000000    0.0000000    0.0000000  
C   -2.4730816    0.0063709   -0.4408240  
C   -3.3971958    0.0170982   -1.4675058  
O   -4.7313517    0.0146259   -1.1793471  
C   -2.9763648    0.0303504   -2.8186324  
O   -4.0166480    0.0395118   -3.7247624  
C   -1.6418562    0.0335260   -3.1673481  
H    1.4178717    0.0310972   -2.9571209  
H   -2.8160166   -0.0041111    0.5845966  
H   -5.1938818    0.0230867   -2.0274384  
H   -3.6464675    0.0482293   -4.6127343  
H    2.1062467    0.0052819   -0.3505407  
C    2.3971438    2.0127888    3.1728260  
C    1.9431056    1.6308205    1.9564670  
C    0.8496017    0.7127664    2.2356185  
C    0.7794028    0.6545384    3.7115134  
N    1.6840587    1.4146091    4.2663826  
C   -0.1885723   -0.1578550    4.3957118  
C   -1.0476298   -0.8789867    3.6398520  
O   -2.0015663   -1.6796266    4.1448486  
C   -1.0022026   -0.8410666    2.1483229  
O   -1.8147390   -1.5232959    1.5241687  
C    0.0000000    0.0000000    1.4700000  
H    2.3054237    1.9346118    0.9892483  
H   -0.2170646   -0.1815267    5.4753125  
H   -2.4487139   -2.0549881    3.3649027  
H    3.2048689    2.6911772    3.3971983  
