58

C   -3.2573605   -0.0065335   -1.5109380  
C   -2.5379415   -0.0051471   -0.3591960  
C   -1.1435019   -0.0024293   -0.7338498  
C   -1.1092587   -0.0023161   -2.2088473  
N   -2.4227506   -0.0052676   -2.6182608  
C    0.0265529    0.0003080   -2.9515662  
C    1.3003009    0.0029887   -2.2514979  
O    2.3786720    0.0053976   -2.8306424  
C    1.2877697    0.0026672   -0.6895606  
O    2.3539918    0.0046020   -0.0892037  
C    0.0000000    0.0000000    0.0000000  
H   -2.9384026   -0.0061204    0.6389238  
H    0.0296281    0.0004706   -4.0327233  
H   -2.7280460   -0.0043757   -3.5742108  
C   -5.6463360   -0.0120636   -0.7029957  
C   -4.7161240   -0.0093387   -1.6923253  
C   -5.4339737   -0.0100232   -2.9451334  
C   -6.8689375   -0.0133652   -2.6021223  
N   -6.9298739   -0.0148654   -1.2276498  
C   -7.8767342   -0.0145190   -3.5109952  
C   -7.5246171   -0.0125484   -4.9211527  
O   -8.3596007   -0.0134364   -5.8161964  
C   -6.0111238   -0.0092542   -5.3073282  
O   -5.7025013   -0.0078811   -6.4913938  
C   -5.0159792   -0.0079891   -4.2379647  
H   -8.9229312   -0.0168488   -3.2382756  
H   -3.9701986   -0.0055013   -4.5137555  
H   -5.5021789   -0.0124778    0.3652307  
C   -8.3950216    0.6886534    0.7006676  
C   -8.1698656   -0.0159654   -0.4381443  
C   -9.3754787   -0.7594227   -0.7185090  
C  -10.3283117   -0.4277771    0.3580175  
N   -9.6726852    0.4541788    1.1857838  
C  -11.5860464   -0.9285923    0.4528446  
C  -12.0309055   -1.8563326   -0.5737678  
O  -13.1456386   -2.3619625   -0.5768348  
C  -11.0383255   -2.2218903   -1.7230978  
O  -11.4015602   -3.0021392   -2.5928864  
C   -9.7084927   -1.6174302   -1.7180398  
H  -12.2691908   -0.6722511    1.2506619  
H   -9.0273019   -1.8755795   -2.5174532  
H   -7.7349940    1.3593232    1.2264576  
H  -10.0630013    0.8658383    2.0135737  
C    0.8175213    0.6860729    2.3021913  
C    0.0000000    0.0000000    1.4700000  
C   -0.8887526   -0.7456559    2.3478473  
C   -0.4549825   -0.3816753    3.7138435  
N    0.5448156    0.4573574    3.6934124  
C   -1.0945674   -0.9182058    4.8835240  
C   -2.1210866   -1.7789155    4.6970523  
O   -2.8083856   -2.3554314    5.6976972  
C   -2.5824069   -2.1655116    3.3310774  
O   -3.5227682   -2.9541547    3.2362962  
C   -1.9100805   -1.6015804    2.1470656  
H   -0.7567140   -0.6349833    5.8697035  
H   -3.4728268   -2.9124471    5.2533954  
H   -2.2742832   -1.9066565    1.1752040  
H    1.6189533    1.3585343    2.0405121  
