58

C    3.2798086    0.0005852   -1.4499643  
C    2.5571145    0.0005560   -2.5996550  
C    1.1637436    0.0001543   -2.2210361  
C    1.1336959   -0.0000201   -0.7459466  
N    2.4483512   -0.0001430   -0.3402720  
C    0.0000000    0.0000000    0.0000000  
C   -1.2757364   -0.0000188   -0.6964421  
O   -2.3524600   -0.0000640   -0.1142311  
C   -1.2676494   -0.0000874   -2.2584082  
O   -2.3355759   -0.0004101   -2.8557296  
C    0.0181562    0.0001756   -2.9516298  
H    0.0150791    0.0003313   -4.0331628  
H    4.3498548    0.0008605   -1.3200017  
H    2.7563624    0.0012823    0.6148064  
C    5.9816657   -2.0880618   -4.4453412  
C    5.0429436   -1.6267506   -3.5792758  
C    4.1873010   -0.7324980   -4.3229312  
C    4.7081985   -0.7105040   -5.7031384  
N    5.7962505   -1.5525092   -5.7108626  
C    4.1727807    0.0175968   -6.7155126  
C    3.0057187    0.8342487   -6.4264095  
O    2.4508362    1.5255863   -7.2704822  
C    2.4373471    0.8263667   -4.9715218  
O    1.4553090    1.5102015   -4.7161159  
C    3.1006058    0.0006255   -3.9654945  
H    4.9595393   -1.8834605   -2.5382396  
H    4.5702217    0.0195003   -7.7209711  
H    6.7934415   -2.7740420   -4.2655055  
C    7.5606578   -5.3054643   -7.0486571  
C    8.2073572   -4.9301072   -8.1766933  
C    7.9491454   -3.5037130   -8.3000855  
C    7.1074213   -3.1747069   -7.1296831  
N    6.8764302   -4.2268773   -6.3924110  
C    6.6315174   -1.8409022   -6.8856220  
C    6.9809441   -0.8794018   -7.7703549  
O    6.6077822    0.4074660   -7.6666124  
C    7.8295822   -1.1799070   -8.9610140  
O    8.1085825   -0.2556012   -9.7245839  
C    8.3052514   -2.5559463   -9.1894429  
H    8.7879881   -5.5451911   -8.8427377  
H    7.0085335    0.8449049   -8.4393979  
H    8.9178392   -2.7323651  -10.0634241  
H    7.5077401   -6.2889857   -6.6095002  
C    0.8175213    0.6860729    2.3021913  
C    0.0000000    0.0000000    1.4700000  
C   -0.8887526   -0.7456559    2.3478473  
C   -0.4549825   -0.3816753    3.7138435  
N    0.5448156    0.4573574    3.6934124  
C   -1.0945674   -0.9182058    4.8835240  
C   -2.1210866   -1.7789155    4.6970523  
O   -2.8083856   -2.3554314    5.6976972  
C   -2.5824069   -2.1655116    3.3310774  
O   -3.5227682   -2.9541547    3.2362962  
C   -1.9100805   -1.6015804    2.1470656  
H   -0.7567140   -0.6349833    5.8697035  
H   -3.4728268   -2.9124471    5.2533954  
H   -2.2742832   -1.9066565    1.1752040  
H    1.6189533    1.3585343    2.0405121  
