58

C    3.2798092    0.0005853   -1.4499641  
C    2.5571153    0.0005564   -2.5996549  
C    1.1637442    0.0001546   -2.2210359  
C    1.1336968   -0.0000202   -0.7459473  
N    2.4483517   -0.0001428   -0.3402717  
C    0.0000000    0.0000000    0.0000000  
C   -1.2757366   -0.0000188   -0.6964415  
O   -2.3524593   -0.0000641   -0.1142317  
C   -1.2676490   -0.0000878   -2.2584088  
O   -2.3355752   -0.0004107   -2.8557304  
C    0.0181569    0.0001754   -2.9516298  
H    2.9547363    0.0006071   -3.5989100  
H    4.3498554    0.0008610   -1.3200013  
H    2.7563629    0.0012825    0.6148062  
C    0.8301006   -0.6844019   -5.2562386  
C    0.0139751    0.0003870   -4.4216240  
C   -0.8783311    0.7449044   -5.2968288  
C   -0.4479313    0.3817380   -6.6641075  
N    0.5531134   -0.4558745   -6.6466447  
C   -1.0916036    0.9175263   -7.8318844  
C   -2.1188114    1.7767477   -7.6423661  
O   -2.8097737    2.3524293   -8.6409666  
C   -2.5767931    2.1624902   -6.2750270  
O   -3.5180018    2.9497812   -6.1774546  
C   -1.9002999    1.5993458   -5.0930163  
H   -3.4737397    2.9084352   -8.1946942  
H   -2.2621699    1.9037632   -4.1200773  
H    1.6332295   -1.3557602   -4.9969400  
C    0.2258644   -2.9351048   -9.4765273  
C    0.4924746   -2.5552601  -10.7527373  
C    0.2002681   -1.1440425  -10.8417098  
C   -0.2617181   -0.7298851   -9.5031161  
N   -0.2233996   -1.8619014   -8.7221167  
C   -0.6351198    0.5329609   -9.1752506  
C   -0.5784118    1.5522279  -10.2098589  
O   -0.8939043    2.7185684  -10.0138600  
C   -0.0924226    1.1359721  -11.6347630  
O   -0.0407930    1.9853942  -12.5140106  
C    0.2838953   -0.2562740  -11.8668982  
H    0.8525507   -3.1911360  -11.5418004  
H    0.6195097   -0.5362824  -12.8561819  
H    0.3195854   -3.9087980   -9.0237273  
H   -0.4801206   -1.9018228   -7.7528135  
C    0.0000000    0.0000000    1.4700000  
C    1.0662921    0.0000102    2.3034270  
C    0.4961870   -0.0000064    3.6418889  
C   -0.9663858    0.0000850    3.4240247  
N   -1.2632773    0.0000084    2.1528658  
C   -1.8985362    0.0000517    4.5177257  
C   -1.3925775   -0.0004564    5.7720543  
O   -2.1456383   -0.0005410    6.8851312  
C    0.0786232   -0.0009323    6.0245000  
O    0.4683759   -0.0012588    7.1921102  
C    1.0143166   -0.0008442    4.8859032  
H    2.1107198   -0.0000632    2.0421868  
H   -2.9622183    0.0003270    4.3293377  
H   -1.5042274   -0.0009692    7.6184419  
H    2.0724152   -0.0013148    5.1109744  
