58

C    1.0965515    0.0001356   -0.8010307  
C    0.0000000    0.0000000    0.0000000  
C   -1.1546563    0.0001468   -0.8669512  
C   -0.6372016    0.0003517   -2.2486279  
N    0.7342870    0.0007334   -2.1395011  
C   -1.4147742    0.0001349   -3.3608716  
C   -2.8576053   -0.0001051   -3.1854457  
O   -3.6427781   -0.0002497   -4.1244906  
C   -3.4275840   -0.0000727   -1.7311662  
O   -4.6406828    0.0000330   -1.5710056  
C   -2.4891866   -0.0001093   -0.6116745  
H   -1.0150453    0.0001612   -4.3654247  
H   -2.8919122   -0.0002920    0.3920863  
H    2.1388274    0.0000661   -0.5261649  
C    4.5298623   -2.1105790   -2.7870400  
C    4.8358777   -1.6476832   -4.0264580  
C    3.7723835   -0.7519991   -4.4157721  
C    2.8148500   -0.7308474   -3.2935098  
N    3.3319992   -1.5752944   -2.3383367  
C    1.6707642   -0.0012348   -3.2725975  
C    1.3617418    0.8177029   -4.4329343  
O    0.3555482    1.5104306   -4.5104138  
C    2.3615446    0.8103613   -5.6329952  
O    2.1118346    1.4956444   -6.6154883  
C    3.5619266   -0.0167206   -5.5388085  
H    5.7070853   -1.9045233   -4.6023437  
H    4.2491891   -0.0160716   -6.3739092  
H    2.9059923   -1.7708750   -1.4510300  
C    6.4527950   -3.6623070   -2.2094656  
C    5.2781144   -3.0478945   -1.9370644  
C    4.9085891   -3.5164485   -0.6102606  
C    6.0023835   -4.4319262   -0.2202619  
N    6.9105223   -4.5213664   -1.1536825  
C    6.0103413   -5.1120858    1.0455994  
C    4.9729583   -4.8875785    1.8839118  
O    4.8510854   -5.4550356    3.0960090  
C    3.8542835   -3.9690198    1.5192498  
O    2.9425305   -3.8119348    2.3311924  
C    3.8690480   -3.2831187    0.2149317  
H    6.8224620   -5.7756925    1.3044349  
H    4.0149776   -5.1033244    3.4515020  
H    3.0402229   -2.6258020   -0.0113729  
H    7.0558063   -3.5776449   -3.0995122  
C    2.3971438    2.0127888    3.1728260  
C    1.9431056    1.6308205    1.9564670  
C    0.8496017    0.7127664    2.2356185  
C    0.7794028    0.6545384    3.7115134  
N    1.6840587    1.4146091    4.2663826  
C   -0.1885723   -0.1578550    4.3957118  
C   -1.0476298   -0.8789867    3.6398520  
O   -2.0015663   -1.6796266    4.1448486  
C   -1.0022026   -0.8410666    2.1483229  
O   -1.8147390   -1.5232959    1.5241687  
C    0.0000000    0.0000000    1.4700000  
H    2.3054237    1.9346118    0.9892483  
H   -0.2170646   -0.1815267    5.4753125  
H   -2.4487139   -2.0549881    3.3649027  
H    3.2048689    2.6911772    3.3971983  
