58

C   -1.1316571    0.0246538   -0.8009266  
C   -0.7968582    0.0149676   -2.1169403  
C    0.6450786   -0.0185176   -2.1842664  
C    1.1263457   -0.0276400   -0.7896021  
N    0.0000000    0.0000000    0.0000000  
C    2.4339276   -0.0577887   -0.4276286  
C    3.4340172   -0.0827046   -1.4820176  
O    4.6371450   -0.1105367   -1.2583903  
C    2.9469888   -0.0733307   -2.9661066  
O    3.7797802   -0.0937972   -3.8623766  
C    1.5108547   -0.0403151   -3.2312118  
H   -1.4818305    0.0297913   -2.9459195  
H    2.7657135   -0.0641024    0.6013452  
H   -2.1098872    0.0479451   -0.3488062  
C    1.0637180   -0.0320377   -4.6315336  
C   -0.2052775   -0.0042792   -5.1010637  
C   -0.0694615   -0.0090859   -6.5495220  
C    1.3896979   -0.0418450   -6.7869345  
N    2.0590964   -0.0554988   -5.6663508  
C    1.9447592   -0.0558748   -8.1123765  
C    1.0813606   -0.0383799   -9.1533238  
O    1.4599703   -0.0484796  -10.4427400  
C   -0.3965430   -0.0056239   -8.9462283  
O   -1.1228905    0.0090517   -9.9399204  
C   -0.9413211    0.0082844   -7.5769410  
H   -1.1204830    0.0167590   -4.5344659  
H    0.6260553   -0.0309099  -10.9461591  
H   -2.0174779    0.0319596   -7.4694440  
C    5.0203587   -2.2626061   -5.9540154  
C    6.1487389   -1.8806471   -6.5962345  
C    5.6989725   -0.9610703   -7.6299599  
C    4.2308565   -0.9022127   -7.4633630  
N    3.8272615   -1.6630420   -6.4824251  
C    3.4012545   -0.0882411   -8.3085242  
C    4.0106396    0.6343937   -9.2758831  
O    3.3601817    1.4365898  -10.1357824  
C    5.4903213    0.5964562   -9.4689199  
O    5.9770694    1.2799135  -10.3695769  
C    6.3195653   -0.2463125   -8.5891351  
H    7.1612551   -2.1852260   -6.3934587  
H    4.0589488    1.8128058  -10.7008829  
H    7.3875215   -0.2460920   -8.7614723  
H    4.9275521   -2.9419014   -5.1215987  
C    2.3971438    2.0127888    3.1728260  
C    1.9431056    1.6308205    1.9564670  
C    0.8496017    0.7127664    2.2356185  
C    0.7794028    0.6545384    3.7115134  
N    1.6840587    1.4146091    4.2663826  
C   -0.1885723   -0.1578550    4.3957118  
C   -1.0476298   -0.8789867    3.6398520  
O   -2.0015663   -1.6796266    4.1448486  
C   -1.0022026   -0.8410666    2.1483229  
O   -1.8147390   -1.5232959    1.5241687  
C    0.0000000    0.0000000    1.4700000  
H    2.3054237    1.9346118    0.9892483  
H   -0.2170646   -0.1815267    5.4753125  
H   -2.4487139   -2.0549881    3.3649027  
H    3.2048689    2.6911772    3.3971983  
