58

C    0.0000000    0.0000000    0.0000000  
C    0.5727669    0.8849918   -0.8560391  
C    0.2772395    0.4284380   -2.1935957  
C   -0.5203930   -0.8039017   -2.0455737  
N   -0.6527236   -1.0091502   -0.6915974  
C   -0.9973754   -1.5400796   -3.0810617  
C   -0.7055005   -1.0886761   -4.4314612  
O   -1.0903468   -1.6826870   -5.4301324  
C    0.1377635    0.2137087   -4.6117577  
O    0.3900806    0.6033528   -5.7439119  
C    0.5960624    0.9214769   -3.4189131  
H    1.1379581    1.7578974   -0.5817982  
H   -1.5806567   -2.4410228   -2.9507071  
H   -1.1489315   -1.7731220   -0.2706798  
C    2.4674133    2.5519381   -2.8909325  
C    1.3886650    2.1461318   -3.6003003  
C    1.1772122    3.1898997   -4.5914295  
C    2.2479963    4.1753928   -4.3291140  
N    3.0074916    3.8067855   -3.3334807  
C    2.3859407    5.3746518   -5.1087515  
C    1.4949210    5.5798793   -6.1053958  
O    1.5049997    6.6550635   -6.9115703  
C    0.4033402    4.6038181   -6.3950792  
O   -0.3720418    4.8552636   -7.3174557  
C    0.2828374    3.3811470   -5.5811506  
H    0.7538666    6.5182542   -7.5167437  
H   -0.5213820    2.6992586   -5.8229964  
H    2.9438712    2.0521598   -2.0625708  
C    6.5446797    4.6718373   -4.0140181  
C    7.0208809    5.9315714   -3.8802987  
C    5.8870369    6.7943552   -4.1744107  
C    4.7778716    5.8632557   -4.4733937  
N    5.1573614    4.6176962   -4.3808878  
C    3.4635016    6.3312248   -4.8176648  
C    3.2660574    7.6685661   -4.8608940  
O    2.0910907    8.2442585   -5.1676049  
C    4.3652580    8.6338278   -4.5639308  
O    4.1139383    9.8374219   -4.6224223  
C    5.7047152    8.1289995   -4.2133203  
H    8.0183559    6.2375369   -3.6147727  
H    2.2631069    9.2017909   -5.1156959  
H    6.4737929    8.8606911   -4.0050477  
H    7.0761503    3.7431810   -3.8794460  
C    3.3321173   -0.0004715    2.8079335  
C    2.6974184   -0.0000116    4.0032312  
C    1.2800439    0.0002118    3.6752840  
C    1.2395035   -0.0000644    2.1971295  
N    2.4394063   -0.0005460    1.6831036  
C    0.0000000    0.0000000    1.4700000  
C   -1.1468701   -0.0000635    2.1869543  
O   -2.3742202   -0.0000073    1.6395491  
C   -1.1388768   -0.0001607    3.6796354  
O   -2.2206231   -0.0000905    4.2670412  
C    0.1454524   -0.0001816    4.4024240  
H    3.1367986    0.0000651    4.9860947  
H   -2.9844344   -0.0001026    2.3990168  
H    0.1083576   -0.0003682    5.4835595  
H    4.3940039   -0.0007619    2.6198634  
