60

C   -3.3002320   -0.0285289   -1.4738976  
C   -2.5231883   -0.0217580   -2.6090739  
C   -1.1622799   -0.0097295   -2.1820099  
C   -1.1711460   -0.0099952   -0.7636137  
N   -2.4851535   -0.0195937   -0.3662349  
C    0.0000000    0.0000000    0.0000000  
C    1.2019955    0.0101465   -0.6806482  
O    2.3758423    0.0198089    0.0157738  
C    1.2314163    0.0109595   -2.0955512  
O    2.5053411    0.0220609   -2.6250187  
C    0.0764420    0.0013760   -2.8495194  
H   -2.8034508   -0.0326048    0.5858670  
H    3.0834531    0.0261274   -0.6418821  
H    2.4359061    0.0218208   -3.5845928  
H    0.1303923    0.0024486   -3.9319086  
H   -4.3713939   -0.0375792   -1.3667124  
C   -3.0266435   -0.0247848   -3.9901693  
C   -4.3138414   -0.0357853   -4.4079954  
C   -4.2366436   -0.0335883   -5.8607638  
C   -2.7879700   -0.0202992   -6.1569935  
N   -2.0736910   -0.0151705   -5.0643966  
C   -2.2868100   -0.0144590   -7.5038012  
C   -3.1917345   -0.0219601   -8.5089828  
O   -2.8654613   -0.0177722   -9.8126582  
C   -4.6603541   -0.0357801   -8.2422886  
O   -5.4264069   -0.0419081   -9.2057955  
C   -5.1494669   -0.0415040   -6.8520870  
H   -5.2055895   -0.0444251   -3.8048477  
H   -3.7191995   -0.0253014  -10.2819416  
H   -6.2206098   -0.0516614   -6.7011574  
C    1.0438767   -2.0934368   -5.5371504  
C    2.0758387   -1.6187734   -6.2813439  
C    1.5096227   -0.7277453   -7.2663842  
C    0.0527542   -0.7221499   -7.0333743  
N   -0.1643857   -1.5702421   -5.9720169  
C   -0.8391400   -0.0009390   -7.7586910  
C   -0.3302660    0.8247261   -8.8412157  
O   -1.0530135    1.5108046   -9.5520138  
C    1.2090885    0.8338455   -9.1059986  
O    1.6491464    1.5249111  -10.0148651  
C    2.0701903    0.0146829   -8.2566883  
H    3.1150829   -1.8648949   -6.1548177  
H    3.1348840    0.0267254   -8.4464406  
H    1.0643671   -2.7816013   -4.7077535  
H   -1.0620757   -1.7757378   -5.5733051  
C    2.5528530    2.1414826    2.8079335  
C    2.0663498    1.7338582    4.0032312  
C    0.9804344    0.8229586    3.6752840  
C    0.9495562    0.7966882    2.1971295  
N    1.8690446    1.5676019    1.6831036  
C    0.0000000    0.0000000    1.4700000  
C   -0.8785127   -0.7372425    2.1869543  
O   -1.8187535   -1.5261249    1.6395491  
C   -0.8723269   -0.7321790    3.6796354  
O   -1.7010379   -1.4274584    4.2670412  
C    0.1115397    0.0933559    4.4024240  
H    2.4028853    2.0163452    4.9860947  
H   -2.2861435   -1.9184361    2.3990168  
H    0.0832434    0.0693689    5.4835595  
H    3.3664920    2.8238276    2.6198634  
