58

C    2.5049806   -2.0931565   -5.9399561  
C    1.9571820   -1.6308521   -4.7865848  
C    0.8879546   -0.7344215   -5.1580690  
C    0.8574975   -0.7122319   -6.6329826  
N    1.8627391   -1.5562152   -7.0453792  
C   -0.0149277    0.0176855   -7.3731166  
C   -0.9887732    0.8362264   -6.6701578  
O   -1.8166674    1.5292762   -7.2468494  
C   -0.9745395    0.8281733   -5.1082557  
O   -1.7894804    1.5135872   -4.5054785  
C    0.0139741    0.0003876   -4.4216236  
H    2.2669046   -1.8882735   -3.7893789  
H   -0.0204604    0.0196986   -8.4542617  
H    2.0929225   -1.7534655   -8.0020166  
C    4.3378323   -3.6282905   -5.1374465  
C    3.6218743   -3.0308848   -6.1246574  
C    4.1677328   -3.4927002   -7.3790896  
C    5.2682636   -4.4147592   -7.0393412  
N    5.3197424   -4.4530723   -5.6650149  
C    6.0371425   -5.0630819   -7.9504983  
C    5.7625768   -4.8375125   -9.3598476  
O    6.3991631   -5.3746944  -10.2567841  
C    4.6018979   -3.8648131   -9.7425830  
O    4.3616231   -3.6668434  -10.9259415  
C    3.8430795   -3.2247506   -8.6709640  
H    6.8395078   -5.7354171   -7.6801575  
H    3.0409218   -2.5528037   -8.9443773  
H    4.2308931   -3.5352458   -4.0688982  
H    5.9691270   -4.9979855   -5.1279712  
C    3.2798085    0.0005853   -1.4499648  
C    2.5571144    0.0005562   -2.5996554  
C    1.1637436    0.0001546   -2.2210360  
C    1.1336965   -0.0000201   -0.7459470  
N    2.4483513   -0.0001430   -0.3402717  
C    0.0000000    0.0000000    0.0000000  
C   -1.2757367   -0.0000188   -0.6964414  
O   -2.3524597   -0.0000640   -0.1142313  
C   -1.2676494   -0.0000875   -2.2584081  
O   -2.3355762   -0.0004102   -2.8557294  
C    0.0181562    0.0001757   -2.9516296  
H    2.9547357    0.0006072   -3.5989105  
H    4.3498550    0.0008609   -1.3200021  
H    2.7563627    0.0012824    0.6148063  
C    2.5528530    2.1414826    2.8079335  
C    2.0663498    1.7338582    4.0032312  
C    0.9804344    0.8229586    3.6752840  
C    0.9495562    0.7966882    2.1971295  
N    1.8690446    1.5676019    1.6831036  
C    0.0000000    0.0000000    1.4700000  
C   -0.8785127   -0.7372425    2.1869543  
O   -1.8187535   -1.5261249    1.6395491  
C   -0.8723269   -0.7321790    3.6796354  
O   -1.7010379   -1.4274584    4.2670412  
C    0.1115397    0.0933559    4.4024240  
H    2.4028853    2.0163452    4.9860947  
H   -2.2861435   -1.9184361    2.3990168  
H    0.0832434    0.0693689    5.4835595  
H    3.3664920    2.8238276    2.6198634  
