58

C    2.5092656   -2.0880353   -5.9399693  
C    1.9605203   -1.6268618   -4.7865946  
C    0.8894578   -0.7326227   -5.1580735  
C    0.8589550   -0.7104865   -6.6329869  
N    1.8659249   -1.5524051   -7.0453890  
C   -0.0149645    0.0176455   -7.3731171  
C   -0.9904860    0.8341841   -6.6701527  
O   -1.8197990    1.5255387   -7.2468404  
C   -0.9762357    0.8261507   -5.1082508  
O   -1.7925801    1.5098889   -4.5054695  
C    0.0139726    0.0003889   -4.4216240  
H    2.2707701   -1.8836538   -3.7893907  
H   -0.0205013    0.0196538   -8.4542619  
H    2.0965121   -1.7491772   -8.0020280  
C    3.2798081    0.0005857   -1.4499659  
C    2.5571137    0.0005571   -2.5996563  
C    1.1637428    0.0001552   -2.2210365  
C    1.1336960   -0.0000198   -0.7459477  
N    2.4483511   -0.0001427   -0.3402723  
C    0.0000000    0.0000000    0.0000000  
C   -1.2757371   -0.0000185   -0.6964413  
O   -2.3524601   -0.0000635   -0.1142308  
C   -1.2676503   -0.0000868   -2.2584078  
O   -2.3355773   -0.0004091   -2.8557293  
C    0.0181552    0.0001766   -2.9516299  
H    2.9547345    0.0006081   -3.5989116  
H    4.3498543    0.0008613   -1.3200039  
H    2.7563627    0.0012823    0.6148054  
C    3.6280794   -3.0234711   -6.1246756  
C    4.3662461   -3.6384927   -5.1715564  
C    5.3294300   -4.4449456   -5.9053205  
C    5.0211044   -4.1902514   -7.3289254  
N    4.0247612   -3.3577170   -7.4637416  
C    5.7627501   -4.8121920   -8.3911112  
C    6.7670210   -5.6501671   -8.0467710  
O    7.5408893   -6.2986176   -8.9337214  
C    7.1027539   -5.9272577   -6.6189524  
O    8.0295896   -6.7009627   -6.3790009  
C    6.3272486   -5.2770714   -5.5476107  
H    4.2691889   -3.5551224   -4.1025823  
H    5.5155911   -4.6080669   -9.4226902  
H    8.1617568   -6.8158591   -8.3895364  
H    6.6019077   -5.5039460   -4.5261803  
C    2.5528530    2.1414826    2.8079335  
C    2.0663498    1.7338582    4.0032312  
C    0.9804344    0.8229586    3.6752840  
C    0.9495562    0.7966882    2.1971295  
N    1.8690446    1.5676019    1.6831036  
C    0.0000000    0.0000000    1.4700000  
C   -0.8785127   -0.7372425    2.1869543  
O   -1.8187535   -1.5261249    1.6395491  
C   -0.8723269   -0.7321790    3.6796354  
O   -1.7010379   -1.4274584    4.2670412  
C    0.1115397    0.0933559    4.4024240  
H    2.4028853    2.0163452    4.9860947  
H   -2.2861435   -1.9184361    2.3990168  
H    0.0832434    0.0693689    5.4835595  
H    3.3664920    2.8238276    2.6198634  
