60

C    3.3041272    0.0001175   -1.5420435  
C    2.5845371   -0.0004783   -0.3695853  
C    1.2040006   -0.0000009   -0.7283590  
C    1.1422372    0.0006035   -2.1454375  
N    2.4348637    0.0026107   -2.6077467  
C   -0.0655185    0.0008795   -2.8497920  
C   -1.2321771    0.0002323   -2.1101398  
O   -2.4392814    0.0001144   -2.7472513  
C   -1.1911211   -0.0000008   -0.6955259  
O   -2.4371530   -0.0002319   -0.1032851  
C    0.0000000    0.0000000    0.0000000  
H    3.0031536   -0.0000662    0.6222579  
H   -0.1193552    0.0014841   -3.9297469  
H   -3.1132988   -0.0000648   -2.0551785  
H   -2.3200282   -0.0004071    0.8516417  
H    4.3686621    0.0004070   -1.7024297  
C    5.6515792   -2.1002976   -4.7819019  
C    4.8081953   -1.6310299   -3.8266184  
C    3.8761256   -0.7467205   -4.4854643  
C    4.2482777   -0.7392326   -5.9131329  
N    5.3319456   -1.5792872   -6.0265390  
C    3.6067587   -0.0234896   -6.8711881  
C    2.4743151    0.7942200   -6.4693699  
O    1.8313252    1.4750508   -7.2576178  
C    2.0627995    0.8015928   -4.9625836  
O    1.1111835    1.4864535   -4.6123650  
C    2.8310660   -0.0116222   -4.0232754  
H    4.8359708   -1.8762190   -2.7798496  
H    6.4798585   -2.7827408   -4.6813314  
H    5.8148552   -1.7840908   -6.8820513  
C    4.4035205   -1.1198892   -8.9979423  
C    3.9997301   -0.0352238   -8.2876403  
C    4.0320623    1.0933158   -9.1877449  
C    4.4910519    0.5734837  -10.4900095  
N    4.6992846   -0.7742316  -10.3078214  
C    4.6537867    1.3291930  -11.6054133  
C    4.3572890    2.7493600  -11.5173793  
O    4.4724778    3.5139394  -12.4663000  
C    3.8700373    3.3214647  -10.1480406  
O    3.6176547    4.5156653  -10.0617382  
C    3.7329215    2.4076196   -9.0166973  
H    4.9914441    0.9281048  -12.5509424  
H    3.3948095    2.8116199   -8.0721399  
H    4.5101186   -2.1426312   -8.6746385  
H    5.0152899   -1.4093069  -11.0176578  
C    2.5528530    2.1414826    2.8079335  
C    2.0663498    1.7338582    4.0032312  
C    0.9804344    0.8229586    3.6752840  
C    0.9495562    0.7966882    2.1971295  
N    1.8690446    1.5676019    1.6831036  
C    0.0000000    0.0000000    1.4700000  
C   -0.8785127   -0.7372425    2.1869543  
O   -1.8187535   -1.5261249    1.6395491  
C   -0.8723269   -0.7321790    3.6796354  
O   -1.7010379   -1.4274584    4.2670412  
C    0.1115397    0.0933559    4.4024240  
H    2.4028853    2.0163452    4.9860947  
H   -2.2861435   -1.9184361    2.3990168  
H    0.0832434    0.0693689    5.4835595  
H    3.3664920    2.8238276    2.6198634  
