60

C    3.3003544    0.0005276   -1.4738986  
C    2.5232813    0.0003499   -2.6090753  
C    1.1623200   -0.0001317   -2.1820106  
C    1.1711882    0.0000584   -0.7636145  
N    2.4852301   -0.0014919   -0.3662360  
C    0.0000000    0.0000000    0.0000000  
C   -1.2020382    0.0000521   -0.6806480  
O   -2.3759251    0.0003495    0.0157747  
C   -1.2314658   -0.0005110   -2.0955508  
O   -2.5054388   -0.0008034   -2.6250183  
C   -0.0764517   -0.0007269   -2.8495194  
H    2.8919952   -0.0005616   -3.6205303  
H    2.8036263    0.0088183    0.5858660  
H   -3.0835640    0.0000347   -0.6418822  
H   -2.4360050   -0.0011524   -3.5845918  
H    4.3715549    0.0004896   -1.3667134  
C    2.2697432   -2.0933927   -5.9499310  
C    1.7761647   -1.6308843   -4.7724157  
C    0.6896458   -0.7359134   -5.0938796  
C    0.5899535   -0.7148026   -6.5657511  
N    1.5756960   -1.5579531   -7.0243345  
C   -0.3170960    0.0136146   -7.2645886  
C   -1.2578063    0.8315633   -6.5172208  
O   -2.1126589    1.5232786   -7.0548621  
C   -1.1702522    0.8246325   -4.9577039  
O   -1.9567836    1.5095615   -4.3177811  
C   -0.1496416   -0.0015609   -4.3176961  
H    2.1326582   -1.8872532   -3.7906824  
H   -0.3733819    0.0148557   -8.3442835  
H    3.0822590   -2.7801821   -6.1232167  
C    2.6554246   -5.1911310   -9.3692537  
C    2.3377832   -4.3811986   -8.3325794  
C    2.1638718   -3.0640255   -8.9252934  
C    2.4213891   -3.2671981  -10.3671637  
N    2.7099613   -4.5121150  -10.6334285  
C    2.3479521   -2.1875361  -11.3126916  
C    2.0312574   -0.9607501  -10.8393686  
O    1.9276556    0.1366197  -11.6081902  
C    1.7654332   -0.7237886   -9.3897657  
O    1.4827409    0.4187967   -9.0294824  
C    1.8470515   -1.8475097   -8.4397581  
H    2.2341889   -4.6450238   -7.2939555  
H    2.5412078   -2.3646309  -12.3606424  
H    1.6914678    0.8513123  -10.9896570  
H    2.8631996   -6.2490831   -9.3460160  
C    2.3971438    2.0127888    3.1728260  
C    1.9431056    1.6308205    1.9564670  
C    0.8496017    0.7127664    2.2356185  
C    0.7794028    0.6545384    3.7115134  
N    1.6840587    1.4146091    4.2663826  
C   -0.1885723   -0.1578550    4.3957118  
C   -1.0476298   -0.8789867    3.6398520  
O   -2.0015663   -1.6796266    4.1448486  
C   -1.0022026   -0.8410666    2.1483229  
O   -1.8147390   -1.5232959    1.5241687  
C    0.0000000    0.0000000    1.4700000  
H    2.3054237    1.9346118    0.9892483  
H   -0.2170646   -0.1815267    5.4753125  
H   -2.4487139   -2.0549881    3.3649027  
H    3.2048689    2.6911772    3.3971983  
