64

C    4.5752184   -2.1495109   -2.8853793  
C    3.4163831   -1.6761088   -2.3148898  
C    2.8181925   -0.7912314   -3.2602788  
C    3.6642154   -0.7644045   -4.3984574  
N    4.7226623   -1.5985804   -4.1368127  
C    3.3839931    0.0059366   -5.5310828  
C    2.2285124    0.7627520   -5.5145395  
O    1.9066023    1.5330068   -6.5943986  
C    1.3718856    0.7495042   -4.3881154  
O    0.2611649    1.5562973   -4.5249651  
C    1.6478437   -0.0100096   -3.2702997  
H    3.0481322   -1.9356768   -1.3371325  
H    4.0247914    0.0308438   -6.4016905  
H    1.0742674    1.9728891   -6.3776317  
H   -0.2638781    1.4898367   -3.7215243  
H    5.3089836   -2.8354586   -2.4980508  
C    6.9448196   -5.3495108   -5.1278702  
C    6.0704424   -4.4346786   -4.5884142  
C    6.3637021   -3.1743727   -5.1886043  
C    7.4352757   -3.3838415   -6.0940211  
N    7.7651351   -4.7149486   -6.0310648  
C    7.9866375   -2.3554254   -6.8641830  
C    7.4462090   -1.0926057   -6.7178866  
O    7.9465198   -0.0521275   -7.4459717  
C    6.3770701   -0.8636083   -5.8193766  
O    5.9495065    0.4476791   -5.7868478  
C    5.8328225   -1.8776411   -5.0590757  
H    5.3149910   -4.6490922   -3.8519952  
H    8.4845764   -5.1607428   -6.5711146  
H    8.8034848   -2.5085221   -7.5559356  
H    7.4344808    0.7277428   -7.1952072  
H    5.2263541    0.5162310   -5.1560110  
H    7.0491725   -6.4041739   -4.9387747  
C    1.1188642    0.0008224   -0.8003808  
C    0.0000000    0.0000000    0.0000000  
C   -1.1323861    0.0008899   -0.8673529  
C   -0.6382661    0.0019681   -2.1969282  
N    0.7324017    0.0038483   -2.1202240  
C   -1.4770912    0.0027320   -3.3154810  
C   -2.8395474    0.0020946   -3.0876860  
O   -3.7039199    0.0024426   -4.1440353  
C   -3.3517867    0.0013927   -1.7684331  
O   -4.7300496    0.0012363   -1.7073125  
C   -2.5248543    0.0009121   -0.6644818  
H   -1.1067568    0.0036992   -4.3313814  
H   -4.5940031    0.0021828   -3.7685133  
H   -4.9934602    0.0007260   -0.7819919  
H   -2.9462579    0.0005600    0.3339656  
H    2.1619896    0.0009357   -0.5342065  
C    2.3971438    2.0127888    3.1728260  
C    1.9431056    1.6308205    1.9564670  
C    0.8496017    0.7127664    2.2356185  
C    0.7794028    0.6545384    3.7115134  
N    1.6840587    1.4146091    4.2663826  
C   -0.1885723   -0.1578550    4.3957118  
C   -1.0476298   -0.8789867    3.6398520  
O   -2.0015663   -1.6796266    4.1448486  
C   -1.0022026   -0.8410666    2.1483229  
O   -1.8147390   -1.5232959    1.5241687  
C    0.0000000    0.0000000    1.4700000  
H    2.3054237    1.9346118    0.9892483  
H   -0.2170646   -0.1815267    5.4753125  
H   -2.4487139   -2.0549881    3.3649027  
H    3.2048689    2.6911772    3.3971983  
