58

C    1.1319243    0.0015678   -0.8009267  
C    0.7969910    0.0034958   -2.1169402  
C   -0.6453345    0.0035698   -2.1842666  
C   -1.1266834    0.0015411   -0.7896024  
N    0.0000000    0.0000000    0.0000000  
C   -2.4346133    0.0013916   -0.4276285  
C   -3.4350116    0.0031339   -1.4820169  
O   -4.6384614    0.0030880   -1.2583901  
C   -2.9478966    0.0050444   -2.9661061  
O   -3.7809389    0.0062140   -3.8623764  
C   -1.5113834    0.0053060   -3.2312118  
H   -2.7664564    0.0000178    0.6013455  
H   -1.1823541    0.0068383   -4.2614841  
H    2.1104314    0.0009434   -0.3488059  
C    4.5548732   -2.1353177   -2.6566585  
C    4.9411004   -1.7265161   -3.8876292  
C    3.8945926   -0.8159074   -4.3259367  
C    2.9291030   -0.7910765   -3.2062057  
N    3.3108553   -1.5625151   -2.2248102  
C    1.7334685    0.0049281   -3.2500365  
C    1.5125986    0.7428921   -4.3617741  
O    0.4386444    1.5312657   -4.5382103  
C    2.4682964    0.7392828   -5.5084165  
O    2.2033094    1.4351560   -6.4886015  
C    3.6876298   -0.0855736   -5.4394039  
H    5.8268191   -2.0080542   -4.4310577  
H    0.5619641    1.9243290   -5.4210726  
H    5.0626354   -2.8178671   -1.9938786  
C    4.5938981   -0.0515457   -6.5963045  
C    5.7605896   -0.7173599   -6.7609331  
C    6.2367017   -0.3200684   -8.0769789  
C    5.2068215    0.6145298   -8.5794295  
N    4.2413941    0.7759179   -7.7157779  
C    5.3103672    1.2387845   -9.8696501  
C    6.3937176    0.9431279  -10.6234895  
O    6.6188897    1.4528042  -11.8464239  
C    7.4503913    0.0040812  -10.1441223  
O    8.4090373   -0.2190590  -10.8833293  
C    7.3213083   -0.6235312   -8.8169574  
H    6.2390626   -1.3944018   -6.0740898  
H    4.5428053    1.9176346  -10.2115871  
H    7.4639243    1.0579969  -12.1278421  
H    8.1081636   -1.2977951   -8.5063827  
C    0.8175213    0.6860729    2.3021913  
C    0.0000000    0.0000000    1.4700000  
C   -0.8887526   -0.7456559    2.3478473  
C   -0.4549825   -0.3816753    3.7138435  
N    0.5448156    0.4573574    3.6934124  
C   -1.0945674   -0.9182058    4.8835240  
C   -2.1210866   -1.7789155    4.6970523  
O   -2.8083856   -2.3554314    5.6976972  
C   -2.5824069   -2.1655116    3.3310774  
O   -3.5227682   -2.9541547    3.2362962  
C   -1.9100805   -1.6015804    2.1470656  
H   -0.7567140   -0.6349833    5.8697035  
H   -3.4728268   -2.9124471    5.2533954  
H   -2.2742832   -1.9066565    1.1752040  
H    1.6189533    1.3585343    2.0405121  
