58

C    3.2573672   -0.0002920   -1.5109380  
C    2.5379469   -0.0001709   -0.3591961  
C    1.1435040    0.0000331   -0.7338498  
C    1.1092607   -0.0000083   -2.2088474  
N    2.4227561    0.0001908   -2.6182610  
C   -0.0265531   -0.0002525   -2.9515662  
C   -1.3003047   -0.0002641   -2.2514977  
O   -2.3786789   -0.0004134   -2.8306425  
C   -1.2877729    0.0000311   -0.6895606  
O   -2.3539957    0.0003306   -0.0892034  
C    0.0000000    0.0000000    0.0000000  
H    2.9384086   -0.0000367    0.6389239  
H   -0.0296291   -0.0004087   -4.0327232  
H    2.7280494   -0.0013408   -3.5742114  
C    6.4550019   -0.0009257    1.4492357  
C    7.5628473   -0.0014712    0.6718960  
C    7.0625123   -0.0013727   -0.6941806  
C    5.5906518   -0.0008360   -0.5520172  
N    5.2286136   -0.0004914    0.7021430  
C    4.7161331   -0.0005435   -1.6923257  
C    5.2860928   -0.0003877   -2.9188983  
O    4.5914249   -0.0001201   -4.0693230  
C    6.7683529   -0.0005474   -3.0951524  
O    7.2177897   -0.0005153   -4.2411135  
C    7.6440949   -0.0008910   -1.9098252  
H    8.5924156   -0.0017984    0.9866399  
H    5.2697922   -0.0000403   -4.7685866  
H    6.3993983   -0.0008022    2.5262135  
C   10.0189919   -0.7059012   -1.4377752  
C    9.0957829   -0.0008794   -2.1411282  
C    9.8128046    0.7417361   -3.1507011  
C   11.2396486    0.4091571   -2.9766319  
N   11.2971941   -0.4724803   -1.9219786  
C   12.2443120    0.9090142   -3.7398483  
C   11.8971747    1.8366345   -4.8035925  
O   12.7298883    2.3414330   -5.5452588  
C   10.3923282    2.2031700   -5.0058109  
O   10.0879857    2.9833274   -5.8979942  
C    9.3998622    1.5997014   -4.1199847  
H   13.2845241    0.6519985   -3.5955869  
H    8.3600548    1.8585241   -4.2667364  
H    9.8731447   -1.3761870   -0.6063094  
H   12.1379880   -0.8846020   -1.5610506  
C    2.5528530    2.1414826    2.8079335  
C    2.0663498    1.7338582    4.0032312  
C    0.9804344    0.8229586    3.6752840  
C    0.9495562    0.7966882    2.1971295  
N    1.8690446    1.5676019    1.6831036  
C    0.0000000    0.0000000    1.4700000  
C   -0.8785127   -0.7372425    2.1869543  
O   -1.8187535   -1.5261249    1.6395491  
C   -0.8723269   -0.7321790    3.6796354  
O   -1.7010379   -1.4274584    4.2670412  
C    0.1115397    0.0933559    4.4024240  
H    2.4028853    2.0163452    4.9860947  
H   -2.2861435   -1.9184361    2.3990168  
H    0.0832434    0.0693689    5.4835595  
H    3.3664920    2.8238276    2.6198634  
