58

C    3.2798085    0.0005856   -1.4499646  
C    2.5571146    0.0005565   -2.5996553  
C    1.1637436    0.0001548   -2.2210360  
C    1.1336964   -0.0000200   -0.7459468  
N    2.4483512   -0.0001429   -0.3402719  
C    0.0000000    0.0000000    0.0000000  
C   -1.2757371   -0.0000187   -0.6964415  
O   -2.3524597   -0.0000640   -0.1142312  
C   -1.2676493   -0.0000873   -2.2584081  
O   -2.3355761   -0.0004101   -2.8557295  
C    0.0181561    0.0001759   -2.9516296  
H    2.9547354    0.0006074   -3.5989104  
H    2.7563628    0.0012823    0.6148064  
C    6.5739159    0.0018720   -4.3537888  
C    7.6280847    0.0019468   -3.4977494  
C    7.0842298    0.0017736   -2.1601930  
C    5.6162787    0.0015610   -2.3082157  
N    5.3720702    0.0020315   -3.6621917  
C    4.7390846    0.0009612   -1.2727278  
C    5.2766314    0.0007199    0.0776717  
O    4.5688488    0.0002469    1.0763435  
C    6.8281783    0.0011905    0.2579685  
O    7.2923834    0.0012993    1.3901232  
C    7.6713711    0.0015458   -0.9348758  
H    8.6679910    0.0022877   -3.7719906  
H    8.7446435    0.0016652   -0.8014218  
H    6.5739154    0.0019307   -5.4316984  
H    4.4610964    0.0004679   -4.0831096  
C    2.5632303   -2.1406389   -5.7671238  
C    2.0732865   -1.7328922   -6.9609732  
C    0.9882151   -0.8221518   -6.6298070  
C    0.9615395   -0.7960977   -5.1515667  
N    1.8825656   -1.5669907   -4.6402698  
C    0.0139740    0.0003878   -4.4216236  
C   -0.8666504    0.7376432   -5.1359692  
O   -1.8054110    1.5263499   -4.5857773  
C   -0.8647107    0.7327955   -6.6286625  
O   -1.6951607    1.4280743   -7.2136077  
C    0.1171803   -0.0925338   -7.3543661  
H    2.4070534   -2.0152030   -7.9448309  
H   -2.2750000    1.9187223   -5.3438559  
H    0.0858059   -0.0683938   -8.4354135  
H    3.3774709   -2.8229271   -5.5814675  
C    2.4951002    2.0940188    2.9809380  
C    1.9440701    1.6314916    1.8291961  
C    0.8759964    0.7350050    2.2038498  
C    0.8497377    0.7130254    3.6788474  
N    1.8560616    1.5571714    4.0882609  
C   -0.0205033   -0.0168748    4.4215661  
C   -0.9962600   -0.8356168    3.7214979  
O   -1.8224391   -1.5286685    4.3006425  
C   -0.9864710   -0.8277881    2.1595606  
O   -1.8030528   -1.5133726    1.5592035  
C    0.0000000    0.0000000    1.4700000  
H    2.2509283    1.8888011    0.8310761  
H   -0.0229599   -0.0187323    5.5027230  
H    3.3143982    2.7817323    3.1139444  
H    2.0889452    1.7545833    5.0442112  
