58

C    0.0000000    0.0000000    0.0000000  
C    1.0541693   -0.0001722   -0.8560389  
C    0.5103142   -0.0000453   -2.1935954  
C   -0.9576366    0.0002459   -2.0455734  
N   -1.2018458   -0.0001391   -0.6915972  
C   -1.8348302    0.0008316   -3.0810613  
C   -1.2972833    0.0009736   -4.4314608  
O   -2.0050657    0.0014265   -5.4301327  
C    0.2542633    0.0004184   -4.6117572  
O    0.7184683    0.0002257   -5.7439117  
C    1.0974566    0.0000874   -3.4189127  
H    2.0940757   -0.0005483   -0.5817980  
H    2.1707284   -0.0000911   -3.5523665  
H   -2.1128193    0.0014913   -0.2706797  
C   -4.4922140    2.0924789   -0.2420905  
C   -3.4155268    1.6303224   -0.9285536  
C   -3.9166419    0.7353626   -1.9448044  
C   -5.3840556    0.7138751   -1.7930606  
N   -5.6687576    1.5568187   -0.7436415  
C   -6.2266204   -0.0146456   -2.5683327  
C   -5.6496874   -0.8323159   -3.6224193  
O   -6.3245417   -1.5240967   -4.3736264  
C   -4.0979604   -0.8249839   -3.8010128  
O   -3.6007572   -1.5096761   -4.6848941  
C   -3.2941065    0.0012873   -2.9038248  
H   -2.3875708    1.8869172   -0.7439489  
H   -7.3001877   -0.0161647   -2.4404198  
H   -4.5251470    2.7791514    0.5881420  
C   -7.0175976    1.8459805   -0.2357877  
C   -7.3661981    2.6618138    0.7862072  
C   -8.8168319    2.5765516    0.8561492  
C   -9.1877199    1.6396146   -0.2260593  
N   -8.1371928    1.2080018   -0.8695582  
C  -10.5550588    1.2848547   -0.4899101  
C  -11.5085078    1.8405231    0.2920763  
O  -12.8237292    1.5990228    0.1582435  
C  -11.1659536    2.7892425    1.3924165  
O  -12.0851963    3.2569485    2.0643278  
C   -9.7560422    3.1373791    1.6431614  
H   -6.7188815    3.2488855    1.4150190  
H  -10.7973356    0.5977208   -1.2874429  
H  -13.2462474    2.1350730    0.8534279  
H   -9.5495892    3.8281656    2.4496481  
C    3.1301144    0.0010313    3.1728260  
C    2.5367765    0.0002768    1.9564670  
C    1.1089900   -0.0001027    2.2356185  
C    1.0177864    0.0004150    3.7115134  
N    2.1993570    0.0011613    4.2663826  
C   -0.2459220    0.0002880    4.3957118  
C   -1.3675327    0.0000606    3.6398520  
O   -2.6129319   -0.0000866    4.1448486  
C   -1.3083589   -0.0000910    2.1483229  
O   -2.3693264   -0.0004206    1.5241687  
C    0.0000000    0.0000000    1.4700000  
H    3.0096015    0.0001008    0.9892483  
H   -0.2829642    0.0004689    5.4753125  
H   -3.1967446   -0.0002093    3.3649027  
H    4.1849273    0.0015113    3.3971983  
