58

C    3.2798089    0.0005856   -1.4499646  
C    2.5571149    0.0005566   -2.5996552  
C    1.1637439    0.0001548   -2.2210361  
C    1.1336965   -0.0000200   -0.7459471  
N    2.4483514   -0.0001428   -0.3402718  
C    0.0000000    0.0000000    0.0000000  
C   -1.2757365   -0.0000186   -0.6964416  
O   -2.3524596   -0.0000639   -0.1142316  
C   -1.2676491   -0.0000873   -2.2584087  
O   -2.3355755   -0.0004099   -2.8557302  
C    0.0181562    0.0001760   -2.9516294  
H    0.0150795    0.0003319   -4.0331630  
H    4.3498551    0.0008612   -1.3200017  
H    2.7563627    0.0012822    0.6148065  
C    5.9736436   -2.1043580   -4.3829112  
C    5.8838299   -1.6403862   -5.6559934  
C    4.7509396   -0.7462252   -5.6992513  
C    4.1840563   -0.7271402   -4.3372414  
N    4.9705839   -1.5712081   -3.5876993  
C    3.1006062    0.0006262   -3.9654946  
C    2.4492231    0.8196157   -4.9742024  
O    1.4668602    1.5107652   -4.7384563  
C    3.0324371    0.8144455   -6.4232158  
O    2.4922738    1.4997915   -7.2809950  
C    4.2049283   -0.0107542   -6.7027910  
H    6.5365805   -1.8955559   -6.4717252  
H    6.6880814   -2.7910790   -3.9587849  
H    4.8377545   -1.7678913   -2.6126515  
C    5.7821370   -3.2859000   -9.1055669  
C    6.1176866   -2.6586843  -10.2569077  
C    5.7654379   -1.2638286  -10.0405810  
C    5.2154358   -1.2267974   -8.6684613  
N    5.2227513   -2.4091562   -8.1153222  
C    4.7455645   -0.0078373   -8.0697601  
C    4.8220401    1.1228037   -8.8080939  
O    4.4202596    2.3301556   -8.3757575  
C    5.3724118    1.1179124  -10.1956191  
O    5.4117534    2.1841523  -10.8094643  
C    5.8479663   -0.1451991  -10.7874994  
H    6.5508365   -3.0893609  -11.1434597  
H    4.6000261    2.9324957   -9.1200841  
H    6.2396999   -0.1064976  -11.7951092  
H    5.8866216   -4.3317548   -8.8642294  
C    2.5528530    2.1414826    2.8079335  
C    2.0663498    1.7338582    4.0032312  
C    0.9804344    0.8229586    3.6752840  
C    0.9495562    0.7966882    2.1971295  
N    1.8690446    1.5676019    1.6831036  
C    0.0000000    0.0000000    1.4700000  
C   -0.8785127   -0.7372425    2.1869543  
O   -1.8187535   -1.5261249    1.6395491  
C   -0.8723269   -0.7321790    3.6796354  
O   -1.7010379   -1.4274584    4.2670412  
C    0.1115397    0.0933559    4.4024240  
H    2.4028853    2.0163452    4.9860947  
H   -2.2861435   -1.9184361    2.3990168  
H    0.0832434    0.0693689    5.4835595  
H    3.3664920    2.8238276    2.6198634  
