58

C    3.2798084    0.0005860   -1.4499649  
C    2.5571141    0.0005569   -2.5996553  
C    1.1637434    0.0001550   -2.2210363  
C    1.1336962   -0.0000199   -0.7459473  
N    2.4483513   -0.0001427   -0.3402723  
C    0.0000000    0.0000000    0.0000000  
C   -1.2757367   -0.0000186   -0.6964414  
O   -2.3524598   -0.0000639   -0.1142315  
C   -1.2676494   -0.0000872   -2.2584084  
O   -2.3355762   -0.0004101   -2.8557298  
C    0.0181556    0.0001762   -2.9516295  
H    0.0150785    0.0003321   -4.0331632  
H    4.3498546    0.0008615   -1.3200022  
H    2.7563626    0.0012825    0.6148059  
C    5.9615633   -2.0068621   -4.6598587  
C    5.0892053   -1.6259401   -3.6978460  
C    4.1745232   -0.7102535   -4.3622063  
C    4.6548505   -0.6521083   -5.7595210  
N    5.7020996   -1.4101828   -5.9400261  
C    4.0067726    0.1582102   -6.7537375  
C    2.9276596    0.8774354   -6.3695954  
O    2.2263949    1.6760224   -7.1921086  
C    2.4184944    0.8395435   -4.9669281  
O    1.4313799    1.5199740   -4.6879304  
C    3.1006052    0.0006267   -3.9654951  
H    5.0688668   -1.9289886   -2.6649741  
H    1.5218038    2.0503734   -6.6330326  
H    6.7963915   -2.6834810   -4.5691842  
C    5.5508272   -3.0595606   -9.2536064  
C    5.8531956   -2.4088112  -10.4010719  
C    5.4952702   -1.0211016  -10.1507684  
C    4.9786358   -1.0135313   -8.7652667  
N    5.0088298   -2.2056092   -8.2342037  
C    4.5138532    0.1904083   -8.1331335  
C    4.5633146    1.3348339   -8.8522843  
O    4.1626332    2.5307505   -8.3883028  
C    5.0796880    1.3596791  -10.2526058  
O    5.0955762    2.4371511  -10.8476040  
C    5.5506686    0.1115210  -10.8788675  
H    6.2679889   -2.8197198  -11.3056027  
H    4.3193985    3.1479544   -9.1256203  
H    5.9173801    0.1717418  -11.8948038  
H    5.6694671   -4.1087017   -9.0340588  
C    2.3971438    2.0127888    3.1728260  
C    1.9431056    1.6308205    1.9564670  
C    0.8496017    0.7127664    2.2356185  
C    0.7794028    0.6545384    3.7115134  
N    1.6840587    1.4146091    4.2663826  
C   -0.1885723   -0.1578550    4.3957118  
C   -1.0476298   -0.8789867    3.6398520  
O   -2.0015663   -1.6796266    4.1448486  
C   -1.0022026   -0.8410666    2.1483229  
O   -1.8147390   -1.5232959    1.5241687  
C    0.0000000    0.0000000    1.4700000  
H    2.3054237    1.9346118    0.9892483  
H   -0.2170646   -0.1815267    5.4753125  
H   -2.4487139   -2.0549881    3.3649027  
H    3.2048689    2.6911772    3.3971983  
