62

C    1.1188635    0.0008230   -0.8003812  
C    0.0000000    0.0000000    0.0000000  
C   -1.1323869    0.0008899   -0.8673520  
C   -0.6382674    0.0019682   -2.1969276  
N    0.7324004    0.0038489   -2.1202243  
C   -1.4770932    0.0027322   -3.3154803  
C   -2.8395494    0.0020944   -3.0876841  
O   -3.7039219    0.0024426   -4.1440332  
C   -3.3517877    0.0013927   -1.7684319  
O   -4.7300505    0.0012356   -1.7073100  
C   -2.5248549    0.0009118   -0.6644807  
H   -1.1067591    0.0036995   -4.3313805  
H   -4.5940051    0.0021826   -3.7685106  
H   -4.9934603    0.0007250   -0.7819896  
H   -2.9462583    0.0005596    0.3339673  
H    2.1619887    0.0009364   -0.5342077  
C    2.8254802   -0.7379435   -3.3478744  
C    3.4453571   -0.5353471   -4.5390008  
C    2.6233053    0.3835452   -5.2904680  
C    1.4654085    0.7019859   -4.4333444  
N    1.6478417   -0.0100087   -3.2703005  
C    0.4564068    1.5390771   -4.7839136  
C    0.5146205    2.1682250   -6.0928519  
O   -0.3455857    2.9374869   -6.5009965  
C    1.7316009    1.8451748   -7.0171905  
O    1.7913120    2.3686840   -8.1215608  
C    2.7573620    0.9271118   -6.5284914  
H    4.3725554   -0.9791205   -4.8552011  
H   -0.3838664    1.7592661   -4.1402000  
H    3.1297774   -1.3579524   -2.5202983  
C    4.4852416   -0.6033894   -7.5669932  
C    3.8983574    0.6304241   -7.4065613  
C    4.6074460    1.5409472   -8.2448574  
C    5.6247209    0.7992008   -8.8982261  
N    5.5236398   -0.4987348   -8.4626077  
C    6.5195576    1.3776188   -9.8034825  
C    6.3848166    2.7293901  -10.0539560  
O    7.2319065    3.3447661  -10.9296074  
C    5.3763559    3.4864969   -9.4116051  
O    5.3717815    4.8198759   -9.7657553  
C    4.4934025    2.9165876   -8.5182280  
H    6.1078688   -1.2584597   -8.7617330  
H    7.2971503    0.8178079  -10.3046432  
H    6.9680138    4.2736565  -10.9577059  
H    4.6614493    5.2590097   -9.2880596  
H    3.7313348    3.5219501   -8.0415013  
H    4.2461939   -1.5494884   -7.1123369  
C    2.3971438    2.0127888    3.1728260  
C    1.9431056    1.6308205    1.9564670  
C    0.8496017    0.7127664    2.2356185  
C    0.7794028    0.6545384    3.7115134  
N    1.6840587    1.4146091    4.2663826  
C   -0.1885723   -0.1578550    4.3957118  
C   -1.0476298   -0.8789867    3.6398520  
O   -2.0015663   -1.6796266    4.1448486  
C   -1.0022026   -0.8410666    2.1483229  
O   -1.8147390   -1.5232959    1.5241687  
C    0.0000000    0.0000000    1.4700000  
H    2.3054237    1.9346118    0.9892483  
H   -0.2170646   -0.1815267    5.4753125  
H   -2.4487139   -2.0549881    3.3649027  
H    3.2048689    2.6911772    3.3971983  
