60

C    3.2573672   -0.0002920   -1.5109380  
C    2.5379470   -0.0001710   -0.3591959  
C    1.1435044    0.0000331   -0.7338498  
C    1.1092609   -0.0000083   -2.2088475  
N    2.4227564    0.0001909   -2.6182609  
C   -0.0265532   -0.0002524   -2.9515660  
C   -1.3003037   -0.0002640   -2.2514978  
O   -2.3786783   -0.0004133   -2.8306423  
C   -1.2877723    0.0000311   -0.6895608  
O   -2.3539957    0.0003306   -0.0892035  
C    0.0000000    0.0000000    0.0000000  
H    2.9384091   -0.0000368    0.6389235  
H    2.7280494   -0.0013407   -3.5742112  
C    6.5597225   -0.0008210    1.3835031  
C    7.6114516   -0.0009113    0.5244682  
C    7.0637934   -0.0009870   -0.8115355  
C    5.5962696   -0.0009038   -0.6593375  
N    5.3559138   -0.0012037    0.6953281  
C    4.7161333   -0.0005436   -1.6923256  
C    5.2498355   -0.0004422   -3.0442490  
O    4.5392149   -0.0001860   -4.0409028  
C    6.8008638   -0.0007796   -3.2289589  
O    7.2618459   -0.0010043   -4.3624299  
C    7.6474470   -0.0008761   -2.0385184  
H    8.6521337   -0.0011058    0.7957497  
H    8.7203357   -0.0009046   -2.1750253  
H    6.5627891   -0.0007239    2.4614087  
H    4.4461412    0.0003272    1.1188353  
C    2.3617619   -2.0132535   -6.1309085  
C    1.9111466   -1.6311560   -4.9133182  
C    0.8167583   -0.7132545   -5.1894899  
C    0.7423549   -0.6552469   -6.6651875  
N    1.6455069   -1.4153048   -7.2225185  
C   -0.2276464    0.1569483   -7.3467464  
C   -1.0846244    0.8781010   -6.5885496  
O   -2.0400762    1.6785701   -7.0909458  
C   -1.0349502    0.8404010   -5.0971504  
O   -1.8457778    1.5226371   -4.4707856  
C   -0.0307352   -0.0004647   -4.4215603  
H    2.2762462   -1.9347704   -3.9470902  
H   -0.2592124    0.1804612   -8.4262656  
H   -2.4850418    2.0539983   -6.3097847  
H    3.1689152   -2.6915914   -6.3574802  
C    0.8676693    0.7151171    2.2619005  
C    0.5875920    0.4624972    3.5848544  
C   -0.5048400   -0.4542819    3.6114698  
C   -0.8517165   -0.7276451    2.2635546  
N    0.0000000    0.0000000    1.4700000  
C   -1.8902865   -1.5946756    1.9108239  
C   -2.5912627   -2.1969500    2.9375057  
O   -3.6148162   -3.0527051    2.6493466  
C   -2.2603868   -1.9365747    4.2886322  
O   -3.0513550   -2.6123276    5.1947621  
C   -1.2361111   -1.0811317    4.6373480  
H    1.1060808    0.8876438    4.4271209  
H   -2.1597133   -1.8070987    0.8854031  
H   -3.9636755   -3.3565188    3.4974381  
H   -2.7621927   -2.3810384    6.0827341  
H   -1.0058879   -0.9010589    5.6809233  
H    1.6167816    1.3499334    1.8205408  
