58

C   -4.4924717    2.0950385   -0.2442173  
C   -3.4157277    1.6323169   -0.9302109  
C   -3.9167334    0.7362618   -1.9455501  
C   -5.3841436    0.7147474   -1.7937830  
N   -5.6689491    1.5587233   -0.7452220  
C   -6.2266195   -0.0146656   -2.5683129  
C   -5.6495861   -0.8333367   -3.6215676  
O   -6.3243554   -1.5259649   -4.3720696  
C   -4.0978604   -0.8259954   -3.8001700  
O   -3.6005731   -1.5115249   -4.6833546  
C   -3.2941076    0.0012878   -2.9038237  
H   -2.3878031    1.8892261   -0.7458683  
H   -4.5254891    2.7825515    0.5853161  
H   -6.5897791    1.7563627   -0.3987284  
C   -9.1236703    3.1882589   -1.6491820  
C   -7.9939151    2.4815472   -1.9104977  
C   -8.3928750    1.1080740   -2.1085840  
C   -9.8581775    1.0722909   -1.9400713  
N  -10.2392958    2.3648930   -1.6629093  
C  -10.6176685   -0.0469869   -2.0500511  
C   -9.9471476   -1.3000814   -2.3545030  
O  -10.5430912   -2.3625934   -2.4737500  
C   -8.3959059   -1.2855974   -2.5368314  
O   -7.8203461   -2.3345642   -2.7930756  
C   -7.6862933   -0.0167344   -2.3943930  
H   -6.9950481    2.8772068   -1.9587826  
H  -11.6913088   -0.0515091   -1.9228243  
H   -9.2350818    4.2412591   -1.4475192  
H  -11.1828069    2.6643947   -1.4981887  
C    0.0000000    0.0000000    0.0000000  
C    1.0541688   -0.0001723   -0.8560392  
C    0.5103136   -0.0000455   -2.1935956  
C   -0.9576373    0.0002461   -2.0455730  
N   -1.2018460   -0.0001389   -0.6915968  
C   -1.8348314    0.0008319   -3.0810607  
C   -1.2972851    0.0009739   -4.4314603  
O   -2.0050676    0.0014268   -5.4301316  
C    0.2542619    0.0004184   -4.6117572  
O    0.7184666    0.0002257   -5.7439122  
C    1.0974551    0.0000873   -3.4189129  
H    2.0940752   -0.0005484   -0.5817983  
H    2.1707276   -0.0000912   -3.5523673  
H   -2.1128194    0.0014915   -0.2706789  
C    1.0672568    0.0000697    2.3021913  
C    0.0000000    0.0000000    1.4700000  
C   -1.1601224    0.0000736    2.3478473  
C   -0.5938729    0.0000769    3.7138435  
N    0.7113367    0.0001554    3.6934124  
C   -1.4286986    0.0001879    4.8835240  
C   -2.7683114    0.0006799    4.6970523  
O   -3.6653903    0.0008304    5.6976972  
C   -3.3702025    0.0010610    3.3310774  
O   -4.5974910    0.0013779    3.2362962  
C   -2.4926826    0.0008943    2.1470656  
H   -0.9878360   -0.0000190    5.8697035  
H   -4.5324246    0.0012261    5.2533954  
H   -2.9677772    0.0012974    1.1752040  
H    2.1134392    0.0000545    2.0405121  
