58

C    0.0000000    0.0000000    0.0000000  
C    1.0541690   -0.0001720   -0.8560388  
C    0.5103143   -0.0000450   -2.1935956  
C   -0.9576364    0.0002460   -2.0455736  
N   -1.2018457   -0.0001391   -0.6915972  
C   -1.8348304    0.0008318   -3.0810614  
C   -1.2972842    0.0009740   -4.4314610  
O   -2.0050661    0.0014269   -5.4301325  
C    0.2542635    0.0004190   -4.6117575  
O    0.7184685    0.0002263   -5.7439121  
C    1.0974557    0.0000880   -3.4189128  
H    2.0940754   -0.0005479   -0.5817980  
H   -2.9081044    0.0011667   -2.9507069  
H   -2.1128195    0.0014909   -0.2706795  
C    4.5419742   -2.0086035   -1.4277087  
C    3.2788576   -1.6273097   -1.7289241  
C    3.4208773   -0.7114094   -2.8502879  
C    4.8768269   -0.6535599   -3.1021771  
N    5.5391402   -1.4119784   -2.2714351  
C    5.4362952    0.1568550   -4.1487474  
C    4.5801566    0.8764554   -4.9093636  
O    4.9635262    1.6751731   -5.9198676  
C    3.1056341    0.8388687   -4.6801665  
O    2.3859382    1.5196348   -5.4107936  
C    2.5562221   -0.0001544   -3.6003002  
H    2.3637602   -1.9302434   -1.2494410  
H    4.1343379    2.0498014   -6.2680824  
H    4.8643497   -2.6854718   -0.6525333  
C    6.8894166    0.1887508   -4.3685664  
C    7.8503278   -0.4767241   -3.6863840  
C    9.1001454   -0.0822016   -4.3178964  
C    8.6967854    0.8505888   -5.3920413  
N    7.4020683    1.0133897   -5.4265525  
C    9.6581193    1.4719038   -6.2608864  
C   10.9631188    1.1751631   -6.0652944  
O   11.9666291    1.6821319   -6.8014949  
C   11.4018015    0.2378868   -4.9895473  
O   12.6061274    0.0136196   -4.8690312  
C   10.3965399   -0.3867154   -4.1113429  
H    7.7263360   -1.1518705   -2.8569988  
H    9.3351541    2.1494823   -7.0377329  
H   12.7739966    1.2871928   -6.4255515  
H   10.7550649   -1.0597688   -3.3440824  
C    3.3321173   -0.0004715    2.8079335  
C    2.6974184   -0.0000116    4.0032312  
C    1.2800439    0.0002118    3.6752840  
C    1.2395035   -0.0000644    2.1971295  
N    2.4394063   -0.0005460    1.6831036  
C    0.0000000    0.0000000    1.4700000  
C   -1.1468701   -0.0000635    2.1869543  
O   -2.3742202   -0.0000073    1.6395491  
C   -1.1388768   -0.0001607    3.6796354  
O   -2.2206231   -0.0000905    4.2670412  
C    0.1454524   -0.0001816    4.4024240  
H    3.1367986    0.0000651    4.9860947  
H   -2.9844344   -0.0001026    2.3990168  
H    0.1083576   -0.0003682    5.4835595  
H    4.3940039   -0.0007619    2.6198634  
