58

C    2.4521484    0.0014842   -3.7217481  
C    3.4891871    0.0026165   -2.8521913  
C    4.6797438    0.0027985   -3.6882978  
C    4.1623480    0.0015425   -5.0735358  
N    2.8572365    0.0008489   -5.0994560  
C    5.0381741    0.0013700   -6.2128405  
C    6.3703211    0.0027939   -5.9789273  
O    7.3023599    0.0028121   -6.9470927  
C    6.9233377    0.0044557   -4.5924456  
O    8.1464873    0.0055754   -4.4541528  
C    6.0043347    0.0045566   -3.4403343  
H    3.4509646    0.0033402   -1.7762667  
H    4.6326017    0.0002347   -7.2140495  
H    8.1530728    0.0040285   -6.4722895  
H    6.4446259    0.0058990   -2.4522190  
C    0.0000000    0.0000000    0.0000000  
C    1.0662922   -0.0000101   -0.8334266  
C    0.4961875    0.0000066   -2.1718886  
C   -0.9663853   -0.0000848   -1.9540248  
N   -1.2632772   -0.0000083   -0.6828658  
C   -1.8985359   -0.0000514   -3.0477260  
C   -1.3925768    0.0004568   -4.3020543  
O   -2.1456378    0.0005413   -5.4151314  
C    0.0786238    0.0009327   -4.5544999  
O    0.4683768    0.0012594   -5.7221098  
C    1.0143171    0.0008446   -3.4159030  
H    2.1107199    0.0000634   -0.5721863  
H   -1.5042266    0.0009697   -6.1484425  
C   -4.6051150    2.0113808   -0.1334489  
C   -3.4864974    1.6298265   -0.7927594  
C   -3.9518793    0.7119511   -1.8210706  
C   -5.4173868    0.6533629   -1.6328207  
N   -5.8061463    1.4130854   -0.6450566  
C   -6.2597395   -0.1589838   -2.4668601  
C   -5.6651260   -0.8797265   -3.4447659  
O   -6.3285770   -1.6802772   -4.2962308  
C   -4.1885388   -0.8414366   -3.6601401  
O   -3.7155078   -1.5233212   -4.5692580  
C   -3.3460091   -0.0004261   -2.7913651  
H   -2.4709783    1.9337815   -0.6045899  
H   -7.3277601   -0.1829242   -2.3066449  
H   -5.6384839   -2.0553379   -4.8726459  
H   -4.6853289    2.6895275    0.7012105  
C    3.2798086   -0.0005857    2.9199648  
C    2.5571146   -0.0005566    4.0696553  
C    1.1637436   -0.0001548    3.6910360  
C    1.1336965    0.0000200    2.2159470  
N    2.4483514    0.0001428    1.8102719  
C    0.0000000    0.0000000    1.4700000  
C   -1.2757367    0.0000186    2.1664417  
O   -2.3524596    0.0000640    1.5842315  
C   -1.2676493    0.0000873    3.7284083  
O   -2.3355761    0.0004100    4.3257297  
C    0.0181563   -0.0001760    4.4216297  
H    2.9547357   -0.0006076    5.0689105  
H    0.0150794   -0.0003319    5.5031631  
H    4.3498549   -0.0008612    2.7900019  
H    2.7563627   -0.0012824    0.8551938  
