64

C    3.3041278    0.0001176   -1.5420426  
C    2.5845376   -0.0004780   -0.3695850  
C    1.2040010   -0.0000010   -0.7283582  
C    1.1422380    0.0006034   -2.1454369  
N    2.4348649    0.0026106   -2.6077462  
C   -0.0655171    0.0008790   -2.8497919  
C   -1.2321763    0.0002319   -2.1101404  
O   -2.4392806    0.0001139   -2.7472527  
C   -1.1911205   -0.0000009   -0.6955268  
O   -2.4371523   -0.0002323   -0.1032870  
C    0.0000000    0.0000000    0.0000000  
H    3.0031538   -0.0000658    0.6222586  
H   -0.1193539    0.0014835   -3.9297472  
H   -3.1132980   -0.0000655   -2.0551794  
H   -2.3200280   -0.0004072    0.8516406  
H    4.3686630    0.0004070   -1.7024285  
C    5.6718709   -2.1292830   -4.7374648  
C    5.4024595   -1.6450693   -5.9966001  
C    4.2795497   -0.7737667   -5.8761620  
C    3.9039380   -0.7655399   -4.5083998  
N    4.7686536   -1.6005167   -3.8453024  
C    2.8310675   -0.0116224   -4.0232746  
C    2.1246927    0.7480610   -4.9354655  
O    1.0681536    1.5033222   -4.5155604  
C    2.4839134    0.7526858   -6.3043176  
O    1.6833263    1.5594230   -7.0863532  
C    3.5420417    0.0089611   -6.7836551  
H    5.9474672   -1.8906002   -6.8919633  
H    4.7540942   -1.7863155   -2.8587691  
H    0.7213554    1.9477935   -5.3000613  
H    1.9931430    1.5056026   -7.9955950  
H    3.7934499    0.0324026   -7.8375628  
C    7.6562201   -3.6508541   -5.0946976  
C    8.4578035   -4.4718466   -4.3358156  
C    7.9882238   -4.3855546   -2.9916995  
C    6.8886998   -3.4894670   -2.9916715  
N    6.7152132   -3.0602951   -4.2840842  
C    6.1771057   -3.1655326   -1.8325819  
C    6.5826752   -3.7572024   -0.6520658  
O    5.9227078   -3.4763029    0.5092064  
C    7.6776284   -4.6535740   -0.6317457  
O    7.9588098   -5.1592848    0.6206670  
C    8.3802639   -4.9733938   -1.7747879  
H    9.2805461   -5.0596685   -4.7053478  
H    5.3382993   -2.4832125   -1.8258726  
H    6.3610160   -3.9865017    1.2026390  
H    8.7104790   -5.7551640    0.5463363  
H    9.2148062   -5.6632115   -1.7282179  
H    7.6821778   -3.4387088   -6.1498189  
C    2.5528530    2.1414826    2.8079335  
C    2.0663498    1.7338582    4.0032312  
C    0.9804344    0.8229586    3.6752840  
C    0.9495562    0.7966882    2.1971295  
N    1.8690446    1.5676019    1.6831036  
C    0.0000000    0.0000000    1.4700000  
C   -0.8785127   -0.7372425    2.1869543  
O   -1.8187535   -1.5261249    1.6395491  
C   -0.8723269   -0.7321790    3.6796354  
O   -1.7010379   -1.4274584    4.2670412  
C    0.1115397    0.0933559    4.4024240  
H    2.4028853    2.0163452    4.9860947  
H   -2.2861435   -1.9184361    2.3990168  
H    0.0832434    0.0693689    5.4835595  
H    3.3664920    2.8238276    2.6198634  
