58

C    2.4782025   -2.1081874   -5.8783636  
C    1.9212517   -1.6438938   -7.0265420  
C    0.8545987   -0.7486149   -6.6450156  
C    0.8356635   -0.7292244   -5.1698696  
N    1.8439056   -1.5742003   -4.7669393  
C   -0.0307351   -0.0004643   -4.4215601  
C   -1.0100800    0.8193484   -5.1153367  
O   -1.8333384    1.5114172   -4.5308818  
C   -1.0083719    0.8138724   -6.6773138  
O   -1.8284254    1.4999051   -7.2724038  
C   -0.0251094   -0.0124248   -7.3732162  
H    2.2230622   -1.8995536   -8.0266228  
H    3.2985199   -2.7956860   -5.7506350  
H    2.0835083   -1.7709322   -3.8125105  
C    3.2573670   -0.0002917   -1.5109381  
C    2.5379470   -0.0001710   -0.3591960  
C    1.1435042    0.0000333   -0.7338499  
C    1.1092609   -0.0000080   -2.2088472  
N    2.4227563    0.0001911   -2.6182609  
C   -0.0265532   -0.0002521   -2.9515660  
C   -1.3003035   -0.0002637   -2.2514976  
O   -2.3786783   -0.0004130   -2.8306422  
C   -1.2877725    0.0000313   -0.6895605  
O   -2.3539958    0.0003306   -0.0892030  
C    0.0000000    0.0000000    0.0000000  
H    2.9384091   -0.0000368    0.6389241  
H    4.3270395   -0.0004761   -1.6439445  
H    2.7280494   -0.0013403   -3.5742111  
C    0.1490016   -1.0593085   -9.6781764  
C   -0.0323589   -0.0097870   -8.8431957  
C   -0.2384379    1.1342293   -9.7179862  
C   -0.1467402    0.5790544  -11.0854499  
N    0.0801826   -0.7063274  -11.0684438  
C   -0.2977452    1.4032454  -12.2529229  
C   -0.5301901    2.7220361  -12.0629355  
O   -0.6912226    3.6072220  -13.0612114  
C   -0.6284626    3.3122431  -10.6953975  
O   -0.8416607    4.5206150  -10.5973955  
C   -0.4699100    2.4459919   -9.5137062  
H   -0.2257648    0.9709027  -13.2402466  
H   -0.8401474    4.4601855  -12.6146386  
H   -0.5481051    2.9120368   -8.5406090  
H    0.3321770   -2.0900247   -9.4192470  
C    2.3971438    2.0127888    3.1728260  
C    1.9431056    1.6308205    1.9564670  
C    0.8496017    0.7127664    2.2356185  
C    0.7794028    0.6545384    3.7115134  
N    1.6840587    1.4146091    4.2663826  
C   -0.1885723   -0.1578550    4.3957118  
C   -1.0476298   -0.8789867    3.6398520  
O   -2.0015663   -1.6796266    4.1448486  
C   -1.0022026   -0.8410666    2.1483229  
O   -1.8147390   -1.5232959    1.5241687  
C    0.0000000    0.0000000    1.4700000  
H    2.3054237    1.9346118    0.9892483  
H   -0.2170646   -0.1815267    5.4753125  
H   -2.4487139   -2.0549881    3.3649027  
H    3.2048689    2.6911772    3.3971983  
