58

C    0.0000000    0.0000000    0.0000000  
C    0.5729351    0.8848835   -0.8560385  
C    0.2773216    0.4283856   -2.1935953  
C   -0.5205440   -0.8038029   -2.0455735  
N   -0.6529141   -1.0090268   -0.6915974  
C   -0.9976652   -1.5398906   -3.0810616  
C   -0.7057045   -1.0885420   -4.4314611  
O   -1.0906628   -1.6824801   -5.4301328  
C    0.1378057    0.2136830   -4.6117572  
O    0.3901967    0.6032796   -5.7439117  
C    0.5962380    0.9213646   -3.4189125  
H    1.1382912    1.7576823   -0.5817976  
H   -1.5811171   -2.4407235   -2.9507074  
H   -1.1492664   -1.7729047   -0.2706800  
C    4.0777602    2.3622646   -1.2302353  
C    4.3479695    3.5288336   -1.8608563  
C    3.3343742    3.6376660   -2.8987771  
C    2.5130398    2.4174313   -2.7470486  
N    2.9439671    1.6659927   -1.7705081  
C    1.3890724    2.1458695   -3.6002995  
C    1.0985777    3.0523124   -4.5611884  
O    0.0787140    2.9271883   -5.4273657  
C    1.9083060    4.2936030   -4.7392316  
O    1.5864712    5.0745107   -5.6346787  
C    3.0564246    4.5494427   -3.8513721  
H    0.1279848    3.7243796   -5.9852281  
H    3.6175139    5.4601159   -4.0128766  
H    4.6031160    1.9194625   -0.3990309  
C    5.4260492    4.4849302   -1.5701281  
C    6.3771245    4.4022159   -0.6108605  
C    7.1770246    5.6068108   -0.7708947  
C    6.5511563    6.3220359   -1.9037345  
N    5.5242339    5.6692619   -2.3762879  
C    7.0561520    7.5795787   -2.3819084  
C    8.1370129    8.0991894   -1.7565450  
O    8.7132672    9.2644251   -2.0974225  
C    8.7907624    7.4015871   -0.6101926  
O    9.7710973    7.9327966   -0.0886750  
C    8.2540017    6.1127406   -0.1382933  
H    6.5183650    3.6203745    0.1156733  
H    6.5791442    8.0801632   -3.2118411  
H    9.4552385    9.3657582   -1.4742352  
H    8.7560157    5.6393809    0.6948588  
C    1.0672568    0.0000697    2.3021913  
C    0.0000000    0.0000000    1.4700000  
C   -1.1601224    0.0000736    2.3478473  
C   -0.5938729    0.0000769    3.7138435  
N    0.7113367    0.0001554    3.6934124  
C   -1.4286986    0.0001879    4.8835240  
C   -2.7683114    0.0006799    4.6970523  
O   -3.6653903    0.0008304    5.6976972  
C   -3.3702025    0.0010610    3.3310774  
O   -4.5974910    0.0013779    3.2362962  
C   -2.4926826    0.0008943    2.1470656  
H   -0.9878360   -0.0000190    5.8697035  
H   -4.5324246    0.0012261    5.2533954  
H   -2.9677772    0.0012974    1.1752040  
H    2.1134392    0.0000545    2.0405121  
