58

C    4.6190969   -2.0899188   -2.8279648  
C    3.4606683   -1.6280059   -2.2906058  
C    2.8761398   -0.7301695   -3.2586201  
C    3.7955633   -0.7067285   -4.4122677  
N    4.8319965   -1.5514033   -4.0878914  
C    3.5979912    0.0246975   -5.5381828  
C    2.3999526    0.8436572   -5.6190797  
O    2.1321345    1.5380346   -6.5908892  
C    1.4124499    0.8342974   -4.4088912  
O    0.4006156    1.5200497   -4.4654209  
C    1.7334695    0.0049281   -3.2500363  
H    3.0613134   -1.8865704   -1.3260992  
H    4.2848597    0.0276106   -6.3731161  
H    5.6204864   -1.7480986   -4.6766545  
C    4.7789659   -4.2534352    1.0178213  
C    4.4158726   -3.4604971   -0.0230856  
C    5.4442906   -3.5884128   -1.0284856  
C    6.4434446   -4.5276287   -0.4840998  
N    5.9814289   -4.8936456    0.7590667  
C    7.5716412   -4.9115490   -1.1333162  
C    7.8184162   -4.3629500   -2.4564470  
O    8.8058722   -4.6469211   -3.1217230  
C    6.7737581   -3.3662902   -3.0524040  
O    6.9709460   -2.8976721   -4.1654064  
C    5.5958113   -3.0286415   -2.2572387  
H    3.5289291   -2.8549361   -0.0800170  
H    8.2916383   -5.6018365   -0.7161604  
H    4.2693842   -4.4237962    1.9522697  
H    6.4451976   -5.5296157    1.3815679  
C    1.1319246    0.0015678   -0.8009268  
C    0.7969914    0.0034958   -2.1169401  
C   -0.6453340    0.0035696   -2.1842669  
C   -1.1266832    0.0015410   -0.7896025  
N    0.0000000    0.0000000    0.0000000  
C   -2.4346129    0.0013913   -0.4276292  
C   -3.4350111    0.0031335   -1.4820181  
O   -4.6384614    0.0030875   -1.2583914  
C   -2.9478961    0.0050442   -2.9661074  
O   -3.7809382    0.0062135   -3.8623773  
C   -1.5113825    0.0053055   -3.2312122  
H   -2.7664565    0.0000174    0.6013448  
H   -1.1823533    0.0068381   -4.2614848  
H    2.1104316    0.0009435   -0.3488059  
C    0.8175213    0.6860729    2.3021913  
C    0.0000000    0.0000000    1.4700000  
C   -0.8887526   -0.7456559    2.3478473  
C   -0.4549825   -0.3816753    3.7138435  
N    0.5448156    0.4573574    3.6934124  
C   -1.0945674   -0.9182058    4.8835240  
C   -2.1210866   -1.7789155    4.6970523  
O   -2.8083856   -2.3554314    5.6976972  
C   -2.5824069   -2.1655116    3.3310774  
O   -3.5227682   -2.9541547    3.2362962  
C   -1.9100805   -1.6015804    2.1470656  
H   -0.7567140   -0.6349833    5.8697035  
H   -3.4728268   -2.9124471    5.2533954  
H   -2.2742832   -1.9066565    1.1752040  
H    1.6189533    1.3585343    2.0405121  
