58

C    3.2573674   -0.0002918   -1.5109374  
C    2.5379470   -0.0001708   -0.3591959  
C    1.1435043    0.0000333   -0.7338494  
C    1.1092611   -0.0000081   -2.2088475  
N    2.4227567    0.0001910   -2.6182606  
C   -0.0265526   -0.0002524   -2.9515657  
C   -1.3003032   -0.0002640   -2.2514975  
O   -2.3786784   -0.0004132   -2.8306429  
C   -1.2877724    0.0000313   -0.6895609  
O   -2.3539950    0.0003306   -0.0892042  
C    0.0000000    0.0000000    0.0000000  
H    2.9384091   -0.0000366    0.6389244  
H   -0.0296283   -0.0004085   -4.0327228  
H    4.3270396   -0.0004763   -1.6439435  
C    5.7080853   -2.1452806   -4.5132710  
C    5.6084237   -1.7395369   -5.8005233  
C    4.4745339   -0.8282628   -5.8198380  
C    3.9954397   -0.7997401   -4.4211817  
N    4.7146929   -1.5697625   -3.6506432  
C    2.8699647   -0.0020524   -4.0185818  
C    2.2514684    0.7339940   -4.9699136  
O    1.1895409    1.5236027   -4.7356736  
C    2.7114674    0.7266531   -6.3899519  
O    2.1009859    1.4209398   -7.2026626  
C    3.8682957   -0.0998707   -6.7779355  
H    6.2279174   -2.0234849   -6.6339962  
H    0.9754917    1.9147005   -5.6019173  
H    6.4257012   -2.8272440   -4.0855715  
C    4.2786237   -0.0695218   -8.1891799  
C    5.2969438   -0.7292654   -8.7989644  
C    5.2682416   -0.3521364  -10.1924444  
C    4.1416668    0.5881637  -10.3455962  
N    3.5829160    0.7168150   -9.0949420  
C    3.7824495    1.1735725  -11.5160504  
C    4.5569531    0.8561966  -12.7043056  
O    4.3126448    1.3318995  -13.8053610  
C    5.7541883   -0.1373483  -12.5653727  
O    6.4133367   -0.4123655  -13.5589262  
C    6.0444964   -0.7039655  -11.2506416  
H    5.9890928   -1.4033372   -8.3265546  
H    2.9526662    1.8606978  -11.6067572  
H    6.8752400   -1.3909060  -11.1628801  
H    2.7928280    1.2946585   -8.8737953  
C    0.8175213    0.6860729    2.3021913  
C    0.0000000    0.0000000    1.4700000  
C   -0.8887526   -0.7456559    2.3478473  
C   -0.4549825   -0.3816753    3.7138435  
N    0.5448156    0.4573574    3.6934124  
C   -1.0945674   -0.9182058    4.8835240  
C   -2.1210866   -1.7789155    4.6970523  
O   -2.8083856   -2.3554314    5.6976972  
C   -2.5824069   -2.1655116    3.3310774  
O   -3.5227682   -2.9541547    3.2362962  
C   -1.9100805   -1.6015804    2.1470656  
H   -0.7567140   -0.6349833    5.8697035  
H   -3.4728268   -2.9124471    5.2533954  
H   -2.2742832   -1.9066565    1.1752040  
H    1.6189533    1.3585343    2.0405121  
