60

C   -3.2727231   -0.4544674   -1.5420440  
C   -2.5600509   -0.3549264   -0.3695864  
C   -1.1925632   -0.1655615   -0.7283595  
C   -1.1313037   -0.1576672   -2.1454379  
N   -2.4113746   -0.3374045   -2.6077472  
C    0.0650171    0.0081380   -2.8497926  
C    1.2205040    0.1692066   -2.1101404  
O    2.4161248    0.3353123   -2.7472522  
C    1.1798052    0.1637919   -0.6955269  
O    2.4139686    0.3353629   -0.1032864  
C    0.0000000    0.0000000    0.0000000  
H   -2.9746339   -0.4128984    0.6222578  
H    0.1184254    0.0149423   -3.9297475  
H    3.0837148    0.4281742   -2.0551784  
H    2.2979324    0.3194304    0.8516404  
H   -4.3271056   -0.6011384   -1.7024300  
C   -2.8057703   -0.3777886   -4.0232762  
C   -4.0399695   -0.5479479   -4.5635287  
C   -3.8805813   -0.5090772   -5.9980739  
C   -2.4420362   -0.3008597   -6.2511045  
N   -1.8461208   -0.2292712   -5.0131019  
C   -1.8839051   -0.2077211   -7.4846028  
C   -2.7584127   -0.3198233   -8.6401135  
O   -2.3518526   -0.2491355   -9.7925078  
C   -4.2853119   -0.5403086   -8.3956323  
O   -5.0314261   -0.6358696   -9.3607448  
C   -4.7687894   -0.6246410   -7.0197724  
H   -4.9573571   -0.6848678   -4.0192250  
H   -0.8261760   -0.0549984   -7.6482942  
H   -0.8649052   -0.0924516   -4.8532769  
C   -6.9650807   -0.2178582   -5.8159470  
C   -8.2604130   -0.6211828   -5.8752643  
C   -8.3594490   -1.5598484   -6.9679368  
C   -7.0059235   -1.6711409   -7.5444548  
N   -6.2075272   -0.8325443   -6.8013467  
C   -6.6817451   -2.4623500   -8.5983054  
C   -7.7363520   -3.2571990   -9.2053921  
O   -7.5451556   -4.0007510  -10.1587409  
C   -9.1772917   -3.1547512   -8.6112522  
O  -10.0734131   -3.8190030   -9.1142418  
C   -9.4036835   -2.2670974   -7.4734167  
H   -9.0557995   -0.2978791   -5.2276150  
H   -5.6825624   -2.5295488   -9.0057699  
H  -10.4041694   -2.2020142   -7.0678108  
H   -6.5002087    0.4768699   -5.1354054  
C    2.3971438    2.0127888    3.1728260  
C    1.9431056    1.6308205    1.9564670  
C    0.8496017    0.7127664    2.2356185  
C    0.7794028    0.6545384    3.7115134  
N    1.6840587    1.4146091    4.2663826  
C   -0.1885723   -0.1578550    4.3957118  
C   -1.0476298   -0.8789867    3.6398520  
O   -2.0015663   -1.6796266    4.1448486  
C   -1.0022026   -0.8410666    2.1483229  
O   -1.8147390   -1.5232959    1.5241687  
C    0.0000000    0.0000000    1.4700000  
H    2.3054237    1.9346118    0.9892483  
H   -0.2170646   -0.1815267    5.4753125  
H   -2.4487139   -2.0549881    3.3649027  
H    3.2048689    2.6911772    3.3971983  
