62

C    3.3041270    0.0001178   -1.5420432  
C    2.5845372   -0.0004779   -0.3695853  
C    1.2040007   -0.0000006   -0.7283591  
C    1.1422373    0.0006039   -2.1454374  
N    2.4348636    0.0026110   -2.6077466  
C   -0.0655186    0.0008800   -2.8497915  
C   -1.2321770    0.0002326   -2.1101397  
O   -2.4392818    0.0001149   -2.7472515  
C   -1.1911209   -0.0000006   -0.6955262  
O   -2.4371522   -0.0002319   -0.1032858  
C    0.0000000    0.0000000    0.0000000  
H    3.0031535   -0.0000661    0.6222580  
H    2.7054625   -0.0071097   -3.5745263  
H   -3.1132993   -0.0000646   -2.0551781  
H   -2.3200286   -0.0004070    0.8516413  
C    4.7577214    0.0005130   -1.7610465  
C    5.7612594   -0.0009797   -0.8461777  
C    7.0028643    0.0003067   -1.5832343  
C    6.6377953    0.0027174   -3.0127478  
N    5.2625468    0.0023276   -3.0525136  
C    7.5310403    0.0048719   -4.0344194  
C    8.9464544    0.0045861   -3.7040574  
O    9.8285345    0.0063486   -4.5527232  
C    9.3558925    0.0017971   -2.1966893  
O   10.5445699    0.0012259   -1.9063364  
C    8.3019806   -0.0000949   -1.1851958  
H    5.6450062   -0.0029591    0.2229782  
H    7.2422424    0.0067506   -5.0762934  
H    8.5938435   -0.0018161   -0.1437848  
H    4.7106076    0.0051848   -3.8906083  
C    0.6364680   -0.6837594   -5.1902200  
C   -0.1387086    0.0017020   -4.3179679  
C   -1.0701784    0.7476899   -5.1500536  
C   -0.7049032    0.3845507   -6.5361590  
N    0.2947985   -0.4543147   -6.5660078  
C   -1.4020130    0.9216209   -7.6722396  
C   -2.4181043    1.7820429   -7.4344017  
O   -3.1544588    2.3589952   -8.3992581  
C   -2.8109001    2.1677925   -6.0469326  
O   -3.7454947    2.9562145   -5.9050022  
C   -2.0803718    1.6033195   -4.8981843  
H   -1.1136369    0.6390103   -8.6741782  
H   -3.7960384    2.9156439   -7.9221098  
H   -2.3957805    1.9077871   -3.9092215  
H    1.4500361   -1.3562238   -4.9691494  
C    0.0000000    0.0000000    1.4700000  
C    1.0521667    0.0011902    2.3562342  
C    0.4917218    0.0011957    3.6679131  
C   -0.9187428   -0.0003148    3.5178682  
N   -1.1833171    0.0009411    2.1707914  
C   -1.7951701   -0.0010350    4.6072090  
C   -1.2375837   -0.0005224    5.8710424  
O   -2.0474215   -0.0015360    6.9697579  
C    0.1673580    0.0013566    6.0411963  
O    0.5673524    0.0020687    7.3615553  
C    1.0325770    0.0023412    4.9669890  
H    2.0953057    0.0030649    2.0900562  
H   -2.0989778   -0.0102372    1.7591824  
H   -2.8710934   -0.0020419    4.4995513  
H   -1.4634884   -0.0006497    7.7393593  
H    1.5290710    0.0033153    7.3880045  
H    2.1042148    0.0039609    5.1284455  
