58

C    3.2573669   -0.0002925   -1.5109380  
C    2.5379467   -0.0001713   -0.3591961  
C    1.1435042    0.0000333   -0.7338503  
C    1.1092608   -0.0000082   -2.2088473  
N    2.4227562    0.0001908   -2.6182610  
C   -0.0265531   -0.0002522   -2.9515663  
C   -1.3003036   -0.0002637   -2.2514982  
O   -2.3786784   -0.0004128   -2.8306429  
C   -1.2877725    0.0000313   -0.6895608  
O   -2.3539961    0.0003311   -0.0892037  
C    0.0000000    0.0000000    0.0000000  
H    2.9384087   -0.0000372    0.6389241  
H    4.3270394   -0.0004769   -1.6439441  
H    2.7280494   -0.0013410   -3.5742113  
C    2.3639620   -2.0106297   -6.1309155  
C    1.9129291   -1.6290292   -4.9133235  
C    0.8175376   -0.7123245   -5.1894926  
C    0.7430708   -0.6543936   -6.6651897  
N    1.6470534   -1.4134615   -7.2225231  
C   -0.2278186    0.1567425   -7.3467461  
C   -1.0855848    0.8769545   -6.5885470  
O   -2.0419119    1.6763796   -7.0909407  
C   -1.0358694    0.8393044   -5.0971476  
O   -1.8474430    1.5206514   -4.4707809  
C   -0.0307353   -0.0004644   -4.4215606  
H    2.2783608   -1.9322472   -3.9470967  
H   -0.2594103    0.1802240   -8.4262646  
H   -2.4872875    2.0513188   -6.3097785  
C    3.4652154   -2.9340769   -6.4397611  
C    4.2628967   -3.5996025   -5.5723738  
C    5.1729493   -4.3645036   -6.4109623  
C    4.7719382   -4.0329902   -7.7951133  
N    3.7714370   -3.1948683   -7.8183083  
C    5.4397885   -4.5959193   -8.9362411  
C    6.4620405   -5.4508549   -8.7051115  
O    7.1735502   -6.0497602   -9.6752182  
C    6.8906078   -5.8049463   -7.3197917  
O    7.8288886   -6.5900736   -7.1840544  
C    6.1896638   -5.2143270   -6.1657672  
H    4.2370048   -3.5744876   -4.4963745  
H    5.1255808   -4.3361709   -9.9365985  
H    7.8274467   -6.5954896   -9.2021944  
H    6.5305705   -5.4962264   -5.1785767  
C    0.0000000    0.0000000    1.4700000  
C    1.0662921    0.0000102    2.3034270  
C    0.4961870   -0.0000064    3.6418889  
C   -0.9663858    0.0000850    3.4240247  
N   -1.2632773    0.0000084    2.1528658  
C   -1.8985362    0.0000517    4.5177257  
C   -1.3925775   -0.0004564    5.7720543  
O   -2.1456383   -0.0005410    6.8851312  
C    0.0786232   -0.0009323    6.0245000  
O    0.4683759   -0.0012588    7.1921102  
C    1.0143166   -0.0008442    4.8859032  
H    2.1107198   -0.0000632    2.0421868  
H   -2.9622183    0.0003270    4.3293377  
H   -1.5042274   -0.0009692    7.6184419  
H    2.0724152   -0.0013148    5.1109744  
