60

C    3.3003540    0.0005278   -1.4738998  
C    2.5232805    0.0003501   -2.6090759  
C    1.1623190   -0.0001315   -2.1820106  
C    1.1711880    0.0000584   -0.7636147  
N    2.4852300   -0.0014918   -0.3662366  
C    0.0000000    0.0000000    0.0000000  
C   -1.2020387    0.0000521   -0.6806476  
O   -2.3759253    0.0003495    0.0157752  
C   -1.2314666   -0.0005110   -2.0955505  
O   -2.5054395   -0.0008035   -2.6250174  
C   -0.0764524   -0.0007269   -2.8495195  
H    2.8919942   -0.0005615   -3.6205312  
H    2.8036265    0.0088181    0.5858650  
H   -3.0835639    0.0000348   -0.6418810  
H   -2.4360058   -0.0011523   -3.5845915  
C   -0.1496428   -0.0015607   -4.3176960  
C    0.8605969   -0.0020137   -5.2251597  
C    0.2508202   -0.0027512   -6.5339794  
C   -1.2079401   -0.0026612   -6.3130521  
N   -1.3844322   -0.0023257   -4.9485957  
C   -2.1356024   -0.0028332   -7.3035797  
C   -1.6659583   -0.0033529   -8.6790694  
O   -2.4225864   -0.0036040   -9.6412615  
C   -0.1253123   -0.0037089   -8.9363928  
O    0.2819474   -0.0044537  -10.0902551  
C    0.7762256   -0.0031995   -7.7870100  
H    1.9128678   -0.0020322   -5.0030350  
H   -3.2010555   -0.0026328   -7.1199502  
H    1.8415227   -0.0032451   -7.9737364  
H   -2.2733191   -0.0006336   -4.4828440  
C    4.7630502    0.0004759   -1.3275418  
C    5.6984991    0.0014508   -2.3055565  
C    6.9735489    0.0008553   -1.6050227  
C    6.6111488   -0.0004093   -0.1714090  
N    5.3167467   -0.0007178   -0.0025536  
C    7.6066074   -0.0013505    0.8650018  
C    8.9050791   -0.0014312    0.4864421  
O    9.9376484   -0.0022573    1.3465822  
C    9.3027476   -0.0005442   -0.9523141  
O   10.5033612   -0.0005486   -1.2238793  
C    8.2629691    0.0004566   -1.9967202  
H    5.5425438    0.0023604   -3.3708044  
H    7.3132519   -0.0020603    1.9046420  
H   10.7311765   -0.0021134    0.7813691  
H    8.5922696    0.0009646   -3.0271525  
C    0.8681109    0.7263879    2.2709268  
C    0.6127770    0.5096195    3.5869401  
C   -0.4920590   -0.4175482    3.6542670  
C   -0.8620974   -0.7254003    2.2596025  
N    0.0000000    0.0000000    1.4700000  
C   -1.8641242   -1.5660088    1.8976294  
C   -2.6293522   -2.2103885    2.9520183  
O   -3.5512764   -2.9839180    2.7283916  
C   -2.2549728   -1.8987399    4.4361073  
O   -2.8923672   -2.4351063    5.3323774  
C   -1.1543735   -0.9755647    4.7012123  
H    1.1382914    0.9492124    4.4159191  
H   -2.1192137   -1.7782617    0.8686553  
H   -0.9013378   -0.7652422    5.7314848  
H    1.6172880    1.3558399    1.8188057  
