64

C    6.7748110   -0.0038150    1.2764661  
C    5.5082321   -0.0036674    0.7395816  
C    5.6573268   -0.0010630   -0.6789965  
C    7.0493888    0.0000132   -0.9511885  
N    7.6991163    0.0002434    0.2581378  
C    7.5659481    0.0022552   -2.2503999  
C    6.6607394    0.0031251   -3.2938434  
O    7.1109048    0.0049543   -4.5823937  
C    5.2680300    0.0024512   -3.0424940  
O    4.4967628    0.0038936   -4.1863856  
C    4.7577216    0.0005129   -1.7610467  
H    4.5898243   -0.0041379    1.3012931  
H    8.6954215   -0.0096156    0.3816693  
H    8.6258305    0.0032294   -2.4645286  
H    6.3261381    0.0055801   -5.1457827  
H    3.5699423    0.0032895   -3.9283025  
C    6.3668921    0.0093297    3.7692286  
C    7.1169515    0.0193503    4.9223889  
C    8.4876102    0.0120287    4.5276223  
C    8.5122259   -0.0022718    3.1094848  
N    7.2079301   -0.0054991    2.6812097  
C    9.7011097   -0.0122675    2.3737926  
C   10.8867444   -0.0074377    3.0826123  
O   12.0767408   -0.0163955    2.4141494  
C   10.8827640    0.0064166    4.4977482  
O   12.1438824    0.0092252    5.0571396  
C    9.7102770    0.0160100    5.2241827  
H    6.7244637    0.0294533    5.9248077  
H    9.7266346   -0.0233266    1.2928531  
H   12.7686571   -0.0112694    3.0883089  
H   12.0518147    0.0188164    6.0147592  
H    9.7386687    0.0263675    6.3074942  
H    5.2985226    0.0101413    3.6367729  
C    3.3041270    0.0001177   -1.5420435  
C    2.5845370   -0.0004780   -0.3695856  
C    1.2040004   -0.0000007   -0.7283590  
C    1.1422370    0.0006038   -2.1454373  
N    2.4348634    0.0026110   -2.6077469  
C   -0.0655187    0.0008799   -2.8497918  
C   -1.2321769    0.0002326   -2.1101398  
O   -2.4392822    0.0001149   -2.7472517  
C   -1.1911211   -0.0000007   -0.6955263  
O   -2.4371526   -0.0002319   -0.1032858  
C    0.0000000    0.0000000    0.0000000  
H    3.0031534   -0.0000661    0.6222578  
H    2.7054623   -0.0071098   -3.5745266  
H   -0.1193555    0.0014846   -3.9297472  
H   -3.1132992   -0.0000646   -2.0551783  
H   -2.3200279   -0.0004070    0.8516411  
C    2.3971438    2.0127888    3.1728260  
C    1.9431056    1.6308205    1.9564670  
C    0.8496017    0.7127664    2.2356185  
C    0.7794028    0.6545384    3.7115134  
N    1.6840587    1.4146091    4.2663826  
C   -0.1885723   -0.1578550    4.3957118  
C   -1.0476298   -0.8789867    3.6398520  
O   -2.0015663   -1.6796266    4.1448486  
C   -1.0022026   -0.8410666    2.1483229  
O   -1.8147390   -1.5232959    1.5241687  
C    0.0000000    0.0000000    1.4700000  
H    2.3054237    1.9346118    0.9892483  
H   -0.2170646   -0.1815267    5.4753125  
H   -2.4487139   -2.0549881    3.3649027  
H    3.2048689    2.6911772    3.3971983  
