58

C    3.2573672   -0.0002920   -1.5109380  
C    2.5379470   -0.0001710   -0.3591959  
C    1.1435044    0.0000331   -0.7338498  
C    1.1092609   -0.0000083   -2.2088475  
N    2.4227564    0.0001909   -2.6182609  
C   -0.0265532   -0.0002524   -2.9515660  
C   -1.3003037   -0.0002640   -2.2514978  
O   -2.3786783   -0.0004133   -2.8306423  
C   -1.2877723    0.0000311   -0.6895608  
O   -2.3539957    0.0003306   -0.0892035  
C    0.0000000    0.0000000    0.0000000  
H    2.9384091   -0.0000368    0.6389235  
H    2.7280494   -0.0013407   -3.5742112  
C    5.6506114    0.0009427   -0.6678802  
C    6.9152391    0.0026292   -1.1626405  
C    6.8040788    0.0026208   -2.6022513  
C    5.3606770    0.0008072   -2.9078302  
N    4.7161333   -0.0005436   -1.6923256  
C    4.8400806    0.0006555   -4.1610997  
C    5.7629700    0.0021685   -5.2839569  
O    5.3925554    0.0021018   -6.4506157  
C    7.2958242    0.0038490   -4.9836903  
O    8.0824545    0.0048244   -5.9209602  
C    7.7361592    0.0041354   -3.5908670  
H    7.8224240    0.0035686   -0.5850346  
H    3.7780229   -0.0005585   -4.3634388  
H    8.7991586    0.0055076   -3.3914806  
H    5.3226860    0.0004435    0.3589375  
C    2.5185219   -2.1418787   -5.7664425  
C    2.0285780   -1.7344767   -6.9604095  
C    0.9435062   -0.8236412   -6.6295057  
C    0.9168306   -0.7971605   -5.1512730  
N    1.8378570   -1.5679056   -4.6397541  
C   -0.0307352   -0.0004647   -4.4215603  
C   -0.9113600    0.7365841   -5.1361186  
O   -1.8501209    1.5254491   -4.5861544  
C   -0.9094203    0.7313056   -6.6288100  
O   -1.7398706    1.4264151   -7.2139564  
C    0.0724711   -0.0942327   -7.3542759  
H    2.3623450   -2.0170713   -7.9441857  
H   -2.3197101    1.9176026   -5.3443458  
H    0.0410968   -0.0704048   -8.4353302  
H    3.3327629   -2.8241129   -5.5805893  
C    2.3971438    2.0127888    3.1728260  
C    1.9431056    1.6308205    1.9564670  
C    0.8496017    0.7127664    2.2356185  
C    0.7794028    0.6545384    3.7115134  
N    1.6840587    1.4146091    4.2663826  
C   -0.1885723   -0.1578550    4.3957118  
C   -1.0476298   -0.8789867    3.6398520  
O   -2.0015663   -1.6796266    4.1448486  
C   -1.0022026   -0.8410666    2.1483229  
O   -1.8147390   -1.5232959    1.5241687  
C    0.0000000    0.0000000    1.4700000  
H    2.3054237    1.9346118    0.9892483  
H   -0.2170646   -0.1815267    5.4753125  
H   -2.4487139   -2.0549881    3.3649027  
H    3.2048689    2.6911772    3.3971983  
