58

C    3.2573675   -0.0002918   -1.5109378  
C    2.5379470   -0.0001710   -0.3591959  
C    1.1435044    0.0000332   -0.7338498  
C    1.1092611   -0.0000081   -2.2088473  
N    2.4227565    0.0001908   -2.6182606  
C   -0.0265530   -0.0002522   -2.9515656  
C   -1.3003034   -0.0002640   -2.2514978  
O   -2.3786783   -0.0004131   -2.8306423  
C   -1.2877725    0.0000312   -0.6895603  
O   -2.3539955    0.0003305   -0.0892033  
C    0.0000000    0.0000000    0.0000000  
H    2.9384087   -0.0000368    0.6389241  
H    4.3270399   -0.0004764   -1.6439436  
H    2.7280496   -0.0013406   -3.5742107  
C    2.3639623   -2.0106296   -6.1309148  
C    1.9129296   -1.6290290   -4.9133234  
C    0.8175378   -0.7123244   -5.1894918  
C    0.7430710   -0.6543937   -6.6651889  
N    1.6470539   -1.4134614   -7.2225230  
C   -0.2278184    0.1567421   -7.3467457  
C   -1.0855847    0.8769544   -6.5885464  
O   -2.0419117    1.6763793   -7.0909404  
C   -1.0358692    0.8393042   -5.0971472  
O   -1.8474427    1.5206510   -4.4707802  
C   -0.0307349   -0.0004645   -4.4215600  
H    2.2783611   -1.9322471   -3.9470961  
H   -2.4872876    2.0513183   -6.3097782  
H    3.1718573   -2.6880832   -6.3574887  
C    0.2711907   -3.0620821  -10.2411643  
C    0.1251769   -2.4114188  -11.4188297  
C   -0.1124473   -1.0234051  -11.0535183  
C   -0.0760113   -1.0155824   -9.5752779  
N    0.1485936   -2.2077868   -9.0934162  
C   -0.2708088    0.1886962   -8.8157697  
C   -0.4915704    1.3332047   -9.5018447  
O   -0.6894980    2.5294283   -8.9222633  
C   -0.5337355    1.3578006  -10.9937483  
O   -0.7394914    2.4353657  -11.5520844  
C   -0.3310425    0.1092963  -11.7501064  
H    0.1729250   -2.8225679  -12.4126869  
H   -0.8179526    3.1466135   -9.6650520  
H   -0.3689410    0.1693440  -12.8295454  
H    0.4620239   -4.1113792  -10.0813778  
C    0.8175213    0.6860729    2.3021913  
C    0.0000000    0.0000000    1.4700000  
C   -0.8887526   -0.7456559    2.3478473  
C   -0.4549825   -0.3816753    3.7138435  
N    0.5448156    0.4573574    3.6934124  
C   -1.0945674   -0.9182058    4.8835240  
C   -2.1210866   -1.7789155    4.6970523  
O   -2.8083856   -2.3554314    5.6976972  
C   -2.5824069   -2.1655116    3.3310774  
O   -3.5227682   -2.9541547    3.2362962  
C   -1.9100805   -1.6015804    2.1470656  
H   -0.7567140   -0.6349833    5.8697035  
H   -3.4728268   -2.9124471    5.2533954  
H   -2.2742832   -1.9066565    1.1752040  
H    1.6189533    1.3585343    2.0405121  
