58

C    3.2573676   -0.0002917   -1.5109371  
C    2.5379470   -0.0001708   -0.3591953  
C    1.1435045    0.0000333   -0.7338497  
C    1.1092616   -0.0000080   -2.2088472  
N    2.4227572    0.0001912   -2.6182604  
C   -0.0265522   -0.0002520   -2.9515663  
C   -1.3003029   -0.0002638   -2.2514982  
O   -2.3786772   -0.0004130   -2.8306437  
C   -1.2877723    0.0000313   -0.6895611  
O   -2.3539953    0.0003306   -0.0892043  
C    0.0000000    0.0000000    0.0000000  
H    2.9384088   -0.0000367    0.6389246  
H    2.7280505   -0.0013403   -3.5742105  
C    2.4624190   -2.0918862   -5.9392945  
C    1.9141458   -1.6298145   -4.7860550  
C    0.8440001   -0.7345871   -5.1577954  
C    0.8135211   -0.7128501   -6.6327153  
N    1.8196277   -1.5559199   -7.0448709  
C   -0.0596518    0.0159612   -7.3730585  
C   -1.0343364    0.8337034   -6.6703332  
O   -1.8629407    1.5257393   -7.2472228  
C   -1.0200955    0.8261114   -5.1084288  
O   -1.8357392    1.5108613   -4.5058478  
C   -0.0307336   -0.0004643   -4.4215606  
H    2.2241323   -1.8866337   -3.7887754  
H   -0.0651858    0.0176597   -8.4542039  
H    3.2821102   -2.7786945   -6.0745342  
H    2.0500139   -1.7532072   -8.0014520  
C    5.6736568   -0.0009555   -0.7359094  
C    4.7161340   -0.0005432   -1.6923240  
C    5.4441218   -0.0005494   -2.9519005  
C    6.8695501   -0.0008927   -2.5585319  
N    7.0103281   -0.0012125   -1.2607758  
C    7.9272807   -0.0010472   -3.5313076  
C    7.5769356   -0.0012560   -4.8376740  
O    8.4592406   -0.0014094   -5.8513690  
C    6.1471312   -0.0012905   -5.2664145  
O    5.9016360   -0.0013609   -6.4726285  
C    5.0804469   -0.0010858   -4.2495023  
H    8.9603228   -0.0010917   -3.2155011  
H    7.9113488   -0.0015665   -6.6569541  
H    4.0573894   -0.0012335   -4.6010461  
H    5.5430683   -0.0010918    0.3345671  
C    2.5528530    2.1414826    2.8079335  
C    2.0663498    1.7338582    4.0032312  
C    0.9804344    0.8229586    3.6752840  
C    0.9495562    0.7966882    2.1971295  
N    1.8690446    1.5676019    1.6831036  
C    0.0000000    0.0000000    1.4700000  
C   -0.8785127   -0.7372425    2.1869543  
O   -1.8187535   -1.5261249    1.6395491  
C   -0.8723269   -0.7321790    3.6796354  
O   -1.7010379   -1.4274584    4.2670412  
C    0.1115397    0.0933559    4.4024240  
H    2.4028853    2.0163452    4.9860947  
H   -2.2861435   -1.9184361    2.3990168  
H    0.0832434    0.0693689    5.4835595  
H    3.3664920    2.8238276    2.6198634  
