60

C    3.3041271    0.0001181   -1.5420437  
C    2.5845371   -0.0004776   -0.3695862  
C    1.2040005   -0.0000005   -0.7283593  
C    1.1422370    0.0006041   -2.1454376  
N    2.4348637    0.0026117   -2.6077472  
C   -0.0655185    0.0008803   -2.8497919  
C   -1.2321770    0.0002328   -2.1101399  
O   -2.4392817    0.0001152   -2.7472520  
C   -1.1911210   -0.0000005   -0.6955265  
O   -2.4371527   -0.0002321   -0.1032863  
C    0.0000000    0.0000000    0.0000000  
H    3.0031537   -0.0000659    0.6222573  
H    2.7054627   -0.0071092   -3.5745266  
H   -3.1132989   -0.0000648   -2.0551787  
H   -2.3200280   -0.0004074    0.8516410  
H    4.3686617    0.0004076   -1.7024302  
C    2.2805259   -2.0884661   -5.9525551  
C    1.7869808   -1.6272468   -4.7745209  
C    0.7005260   -0.7318372   -5.0949775  
C    0.6008349   -0.7090642   -6.5668244  
N    1.5865170   -1.5517692   -7.0263555  
C   -0.3061627    0.0202033   -7.2648422  
C   -1.2468145    0.8373785   -6.5165544  
O   -2.1016174    1.5297590   -7.0534175  
C   -1.1592606    0.8286880   -4.9570472  
O   -1.9457428    1.5129533   -4.3163538  
C   -0.1387088    0.0017024   -4.3179686  
H    2.1434560   -1.8847448   -3.7930760  
H   -0.3624485    0.0226623   -8.3445351  
H    1.7717475   -1.7483659   -7.9928371  
C    4.1559819   -3.6243371   -5.2028031  
C    5.1009943   -4.4344266   -5.7457411  
C    4.9444007   -4.3620149   -7.1792925  
C    3.8226696   -3.4366774   -7.4288140  
N    3.3885277   -3.0248887   -6.1899273  
C    3.3616749   -3.1017013   -8.6604711  
C    4.0136851   -3.6921009   -9.8175569  
O    3.6720578   -3.4535233  -10.9685002  
C    5.2035722   -4.6749544   -9.5767839  
O    5.7600984   -5.1784405  -10.5432424  
C    5.6101144   -4.9584124   -8.2026566  
H    5.8250169   -5.0164448   -5.2038363  
H    2.5374973   -2.4207605   -8.8215955  
H    6.4349669   -5.6398332   -8.0445231  
H    3.9554960   -3.4149893   -4.1645986  
C    2.3971438    2.0127888    3.1728260  
C    1.9431056    1.6308205    1.9564670  
C    0.8496017    0.7127664    2.2356185  
C    0.7794028    0.6545384    3.7115134  
N    1.6840587    1.4146091    4.2663826  
C   -0.1885723   -0.1578550    4.3957118  
C   -1.0476298   -0.8789867    3.6398520  
O   -2.0015663   -1.6796266    4.1448486  
C   -1.0022026   -0.8410666    2.1483229  
O   -1.8147390   -1.5232959    1.5241687  
C    0.0000000    0.0000000    1.4700000  
H    2.3054237    1.9346118    0.9892483  
H   -0.2170646   -0.1815267    5.4753125  
H   -2.4487139   -2.0549881    3.3649027  
H    3.2048689    2.6911772    3.3971983  
