60

C    1.1243403    0.0100029   -0.7919009  
C    0.7474064    0.0234619   -2.1148552  
C   -0.6787394    0.0234431   -2.1414700  
C   -1.1201752    0.0098490   -0.7935546  
N    0.0000000    0.0000000    0.0000000  
C   -2.4730820    0.0063480   -0.4408229  
C   -3.3971966    0.0170669   -1.4675046  
O   -4.7313529    0.0145821   -1.1793447  
C   -2.9763667    0.0303235   -2.8186309  
O   -4.0166495    0.0394751   -3.7247606  
C   -1.6418583    0.0335116   -3.1673474  
H    1.4178696    0.0311112   -2.9571216  
H   -2.8160166   -0.0041375    0.5845978  
H   -5.1938831    0.0230387   -2.0274364  
H   -3.6464704    0.0481967   -4.6127325  
H    2.1062461    0.0053017   -0.3505415  
C    1.5662356   -2.0369162   -5.3849803  
C    0.7247490   -1.5841809   -4.4200930  
C   -0.2036066   -0.6824642   -5.0603260  
C    0.1686564   -0.6467444   -6.4875381  
N    1.2488382   -1.4887384   -6.6184712  
C   -0.4698326    0.0914794   -7.4304386  
C   -1.5988986    0.9053202   -7.0116215  
O   -2.2390138    1.6051045   -7.7854791  
C   -2.0104680    0.8829708   -5.5049968  
O   -2.9592560    1.5643190   -5.1405433  
C   -1.2456357    0.0471620   -4.5828760  
H    0.7514465   -1.8512621   -3.3786672  
H   -0.1807858    0.1033808   -8.4721781  
H    2.3916716   -2.7247378   -5.2986885  
C    2.4254131   -2.9729611   -8.2836315  
C    1.9550499   -1.7654723   -7.8776710  
C    2.2817322   -0.8159407   -8.9152180  
C    2.9859986   -1.5746659   -9.9664720  
N    3.0407392   -2.8757163   -9.5224440  
C    3.4595794   -1.0347661  -11.1179642  
C    3.2627017    0.3886303  -11.3364075  
O    3.6525455    0.9684739  -12.3414467  
C    2.5196712    1.2116846  -10.2362740  
O    2.3483250    2.4108860  -10.4089480  
C    2.0549153    0.5181185   -9.0376000  
H    3.9733429   -1.6090805  -11.8763307  
H    1.5411617    1.0951419   -8.2807474  
H    2.3744914   -3.9256424   -7.7819392  
H    3.4609783   -3.6376665  -10.0223226  
C    0.8175213    0.6860729    2.3021913  
C    0.0000000    0.0000000    1.4700000  
C   -0.8887526   -0.7456559    2.3478473  
C   -0.4549825   -0.3816753    3.7138435  
N    0.5448156    0.4573574    3.6934124  
C   -1.0945674   -0.9182058    4.8835240  
C   -2.1210866   -1.7789155    4.6970523  
O   -2.8083856   -2.3554314    5.6976972  
C   -2.5824069   -2.1655116    3.3310774  
O   -3.5227682   -2.9541547    3.2362962  
C   -1.9100805   -1.6015804    2.1470656  
H   -0.7567140   -0.6349833    5.8697035  
H   -3.4728268   -2.9124471    5.2533954  
H   -2.2742832   -1.9066565    1.1752040  
H    1.6189533    1.3585343    2.0405121  
