58

C    3.2573673   -0.0002921   -1.5109381  
C    2.5379471   -0.0001710   -0.3591960  
C    1.1435044    0.0000331   -0.7338500  
C    1.1092605   -0.0000084   -2.2088475  
N    2.4227563    0.0001908   -2.6182611  
C   -0.0265529   -0.0002525   -2.9515660  
C   -1.3003036   -0.0002641   -2.2514983  
O   -2.3786782   -0.0004134   -2.8306425  
C   -1.2877727    0.0000311   -0.6895607  
O   -2.3539958    0.0003306   -0.0892036  
C    0.0000000    0.0000000    0.0000000  
H    2.9384089   -0.0000367    0.6389237  
H   -0.0296289   -0.0004087   -4.0327234  
H    2.7280494   -0.0013408   -3.5742113  
C    6.4550019   -0.0009258    1.4492358  
C    7.5628472   -0.0014713    0.6718961  
C    7.0625123   -0.0013727   -0.6941805  
C    5.5906520   -0.0008360   -0.5520170  
N    5.2286137   -0.0004914    0.7021431  
C    4.7161334   -0.0005437   -1.6923256  
C    5.2860930   -0.0003878   -2.9188984  
O    4.5914248   -0.0001202   -4.0693228  
C    6.7683529   -0.0005475   -3.0951520  
O    7.2177900   -0.0005155   -4.2411132  
C    7.6440953   -0.0008911   -1.9098250  
H    8.5924161   -0.0017985    0.9866401  
H    5.2697924   -0.0000405   -4.7685866  
H    8.7123916   -0.0008826   -2.0800407  
C    6.3792079   -0.0007574    2.9172805  
C    7.4011094   -0.0010915    3.8045775  
C    6.7627514   -0.0007197    5.1118639  
C    5.3133571   -0.0000501    4.8188786  
N    5.0824024   -0.0001499    3.5341028  
C    4.3260549    0.0004263    5.8630625  
C    4.7666664   -0.0001468    7.1418103  
O    3.9572164    0.0002066    8.2145787  
C    6.2228939   -0.0012006    7.4697762  
O    6.5519251   -0.0015541    8.6559292  
C    7.2160492   -0.0016287    6.3809391  
H    8.4576176   -0.0016256    3.5975360  
H    3.2735013    0.0011187    5.6200811  
H    4.5599640   -0.0004021    8.9799861  
H    8.2611355   -0.0025099    6.6602668  
C    2.3971438    2.0127888    3.1728260  
C    1.9431056    1.6308205    1.9564670  
C    0.8496017    0.7127664    2.2356185  
C    0.7794028    0.6545384    3.7115134  
N    1.6840587    1.4146091    4.2663826  
C   -0.1885723   -0.1578550    4.3957118  
C   -1.0476298   -0.8789867    3.6398520  
O   -2.0015663   -1.6796266    4.1448486  
C   -1.0022026   -0.8410666    2.1483229  
O   -1.8147390   -1.5232959    1.5241687  
C    0.0000000    0.0000000    1.4700000  
H    2.3054237    1.9346118    0.9892483  
H   -0.2170646   -0.1815267    5.4753125  
H   -2.4487139   -2.0549881    3.3649027  
H    3.2048689    2.6911772    3.3971983  
