58

C    1.1319244    0.0015657   -0.8009267  
C    0.7969908    0.0034942   -2.1169399  
C   -0.6453345    0.0035708   -2.1842666  
C   -1.1266835    0.0015431   -0.7896024  
N    0.0000000    0.0000000    0.0000000  
C   -2.4346133    0.0013962   -0.4276284  
C   -3.4350116    0.0031404   -1.4820170  
O   -4.6384614    0.0030968   -1.2583903  
C   -2.9478966    0.0050500   -2.9661063  
O   -3.7809388    0.0062212   -3.8623765  
C   -1.5113833    0.0053086   -3.2312119  
H   -2.7664566    0.0000231    0.6013456  
H   -1.1823542    0.0068404   -4.2614843  
H    2.1104314    0.0009393   -0.3488058  
C    4.5953887   -2.1015054   -2.7684684  
C    4.9007829   -1.6358549   -4.0070075  
C    3.8360900   -0.7408602   -4.3946271  
C    2.8785302   -0.7231148   -3.2723282  
N    3.3968105   -1.5686752   -2.3187544  
C    1.7334686    0.0049245   -3.2500366  
C    1.4233490    0.8256428   -4.4088216  
O    0.4162288    1.5171681   -4.4849912  
C    2.4231595    0.8219113   -5.6088926  
O    2.1725312    1.5087181   -6.5900873  
C    3.6246478   -0.0037395   -5.5162700  
H    5.7723329   -1.8904379   -4.5833770  
H    4.3119079   -0.0005897   -6.3513669  
H    2.9710667   -1.7665053   -1.4318202  
C    8.3720512   -4.1475970   -3.5018365  
C    8.5350085   -4.8614821   -2.3636839  
C    7.3703294   -4.5439585   -1.5517716  
C    6.5879944   -3.5979548   -2.3761584  
N    7.1701887   -3.3618758   -3.5204077  
C    5.3448959   -3.0394255   -1.9202674  
C    4.9032247   -3.4094441   -0.6966059  
O    3.7603116   -2.9665192   -0.1455997  
C    5.6698737   -4.3625194    0.1589967  
O    5.2080517   -4.6547457    1.2619677  
C    6.9423302   -4.9216651   -0.3310402  
H    9.3454229   -5.5220437   -2.1068534  
H    3.7180111   -3.4046202    0.7235555  
H    7.4673670   -5.6087875    0.3189058  
H    9.0233957   -4.1088173   -4.3604519  
C    2.5528530    2.1414826    2.8079335  
C    2.0663498    1.7338582    4.0032312  
C    0.9804344    0.8229586    3.6752840  
C    0.9495562    0.7966882    2.1971295  
N    1.8690446    1.5676019    1.6831036  
C    0.0000000    0.0000000    1.4700000  
C   -0.8785127   -0.7372425    2.1869543  
O   -1.8187535   -1.5261249    1.6395491  
C   -0.8723269   -0.7321790    3.6796354  
O   -1.7010379   -1.4274584    4.2670412  
C    0.1115397    0.0933559    4.4024240  
H    2.4028853    2.0163452    4.9860947  
H   -2.2861435   -1.9184361    2.3990168  
H    0.0832434    0.0693689    5.4835595  
H    3.3664920    2.8238276    2.6198634  
