60

C    3.3041272    0.0001182   -1.5420430  
C    2.5845371   -0.0004777   -0.3695856  
C    1.2040006   -0.0000006   -0.7283593  
C    1.1422372    0.0006038   -2.1454372  
N    2.4348640    0.0026113   -2.6077468  
C   -0.0655182    0.0008798   -2.8497918  
C   -1.2321767    0.0002323   -2.1101399  
O   -2.4392815    0.0001145   -2.7472521  
C   -1.1911210   -0.0000006   -0.6955266  
O   -2.4371527   -0.0002323   -0.1032862  
C    0.0000000    0.0000000    0.0000000  
H    3.0031537   -0.0000657    0.6222579  
H    2.7054627   -0.0071095   -3.5745262  
H   -3.1132989   -0.0000651   -2.0551787  
H   -2.3200282   -0.0004073    0.8516412  
H    4.3686620    0.0004077   -1.7024292  
C    2.3446867   -2.1385760   -5.7825616  
C    1.7992123   -1.7303703   -6.9519226  
C    0.7308349   -0.8198484   -6.5697986  
C    0.7735870   -0.7944100   -5.0919257  
N    1.7176441   -1.5654466   -4.6247550  
C   -0.1387084    0.0017018   -4.3179686  
C   -1.0519392    0.7391880   -4.9898749  
O   -1.9638782    1.5275961   -4.3958874  
C   -1.1200798    0.7349601   -6.4810150  
O   -1.9771140    1.4304198   -7.0260372  
C   -0.1732961   -0.0899946   -7.2523611  
H    2.0864369   -2.0122475   -7.9504827  
H   -2.4685607    1.9202478   -5.1309194  
H   -0.2553896   -0.0654081   -8.3307333  
C    4.8466970   -4.3527778   -8.6322270  
C    5.6622375   -4.9994420   -7.7599915  
C    5.2564270   -4.6039635   -6.4319294  
C    4.1295151   -3.6671945   -6.6031721  
N    3.9311438   -3.5572617   -7.9601736  
C    3.4652987   -3.0686354   -5.5822665  
C    3.8886986   -3.3667727   -4.2241862  
O    3.3541461   -2.8781220   -3.2373859  
C    5.0801446   -4.3558696   -4.0193703  
O    5.4456933   -4.6142707   -2.8805710  
C    5.7168057   -4.9382750   -5.1980639  
H    6.4574712   -5.6761123   -8.0175458  
H    6.5409220   -5.6223300   -5.0476476  
H    4.8376345   -4.3902719   -9.7094465  
H    3.2281135   -2.9884828   -8.3952437  
C    0.8175213    0.6860729    2.3021913  
C    0.0000000    0.0000000    1.4700000  
C   -0.8887526   -0.7456559    2.3478473  
C   -0.4549825   -0.3816753    3.7138435  
N    0.5448156    0.4573574    3.6934124  
C   -1.0945674   -0.9182058    4.8835240  
C   -2.1210866   -1.7789155    4.6970523  
O   -2.8083856   -2.3554314    5.6976972  
C   -2.5824069   -2.1655116    3.3310774  
O   -3.5227682   -2.9541547    3.2362962  
C   -1.9100805   -1.6015804    2.1470656  
H   -0.7567140   -0.6349833    5.8697035  
H   -3.4728268   -2.9124471    5.2533954  
H   -2.2742832   -1.9066565    1.1752040  
H    1.6189533    1.3585343    2.0405121  
