58

C    0.0000000    0.0000000    0.0000000  
C    1.0541695   -0.0001723   -0.8560385  
C    0.5103152   -0.0000460   -2.1935953  
C   -0.9576357    0.0002455   -2.0455736  
N   -1.2018450   -0.0001392   -0.6915975  
C   -1.8348290    0.0008313   -3.0810617  
C   -1.2972820    0.0009732   -4.4314611  
O   -2.0050638    0.0014262   -5.4301325  
C    0.2542654    0.0004178   -4.6117570  
O    0.7184706    0.0002248   -5.7439115  
C    1.0974576    0.0000870   -3.4189121  
H    2.0940756   -0.0005488   -0.5817971  
H    2.1707298   -0.0000917   -3.5523657  
H   -2.1128187    0.0014913   -0.2706801  
C   -4.4922133    2.0924789   -0.2420918  
C   -3.4155263    1.6303223   -0.9285545  
C   -3.9166412    0.7353627   -1.9448054  
C   -5.3840547    0.7138751   -1.7930621  
N   -5.6687566    1.5568190   -0.7436432  
C   -6.2266194   -0.0146456   -2.5683343  
C   -5.6496858   -0.8323158   -3.6224210  
O   -6.3245400   -1.5240968   -4.3736278  
C   -4.0979595   -0.8249843   -3.8010139  
O   -3.6007555   -1.5096765   -4.6848952  
C   -3.2941054    0.0012871   -2.9038258  
H   -2.3875700    1.8869170   -0.7439496  
H   -7.3001868   -0.0161645   -2.4404215  
H   -6.5895626    1.7542195   -0.3969494  
C   -1.2573874    4.1442114    1.8348752  
C   -1.9264446    4.8558596    2.7716242  
C   -3.3289094    4.5351050    2.5555012  
C   -3.3241258    3.5900445    1.4182138  
N   -2.1126347    3.3570439    0.9916110  
C   -4.5371265    3.0289290    0.8901377  
C   -5.7019264    3.3949765    1.4720184  
O   -6.9083066    2.9493068    1.0820618  
C   -5.7395595    4.3464325    2.6215730  
O   -6.8355130    4.6352014    3.1019053  
C   -4.4817586    4.9083585    3.1451203  
H   -1.5186213    5.5167654    3.5172509  
H   -7.5396050    3.3848229    1.6828454  
H   -4.5517431    5.5940118    3.9789142  
H   -0.1934088    4.1080977    1.6627747  
C    0.0000000    0.0000000    1.4700000  
C    1.0662921    0.0000102    2.3034270  
C    0.4961870   -0.0000064    3.6418889  
C   -0.9663858    0.0000850    3.4240247  
N   -1.2632773    0.0000084    2.1528658  
C   -1.8985362    0.0000517    4.5177257  
C   -1.3925775   -0.0004564    5.7720543  
O   -2.1456383   -0.0005410    6.8851312  
C    0.0786232   -0.0009323    6.0245000  
O    0.4683759   -0.0012588    7.1921102  
C    1.0143166   -0.0008442    4.8859032  
H    2.1107198   -0.0000632    2.0421868  
H   -2.9622183    0.0003270    4.3293377  
H   -1.5042274   -0.0009692    7.6184419  
H    2.0724152   -0.0013148    5.1109744  
