58

C   -3.2573210    0.0172985   -1.5109389  
C   -2.5379116    0.0134214   -0.3591966  
C   -1.1434892    0.0059370   -0.7338501  
C   -1.1092450    0.0057996   -2.2088477  
N   -2.4227238    0.0124581   -2.6182615  
C    0.0265549    0.0001137   -2.9515660  
C    1.3002881   -0.0065248   -2.2514975  
O    2.3786481   -0.0120057   -2.8306417  
C    1.2877540   -0.0067545   -0.6895600  
O    2.3539619   -0.0126207   -0.0892029  
C    0.0000000    0.0000000    0.0000000  
H   -2.9383688    0.0153780    0.6389231  
H    0.0296320    0.0002538   -4.0327231  
H   -2.7280042    0.0155836   -3.5742121  
C   -5.6505387    0.0285587   -0.6678818  
C   -6.9151583    0.0334747   -1.1626425  
C   -6.8039989    0.0329027   -2.6022532  
C   -5.3606078    0.0271805   -2.9078315  
N   -4.7160659    0.0251661   -1.6923269  
C   -4.8400171    0.0246141   -4.1611008  
C   -5.7629013    0.0279196   -5.2839583  
O   -5.3924908    0.0260522   -6.4506174  
C   -7.2957436    0.0342419   -4.9836921  
O   -8.0823671    0.0373734   -5.9209622  
C   -7.7360745    0.0362545   -3.5908691  
H   -7.8223359    0.0372717   -0.5850364  
H   -3.7779674    0.0202833   -4.3634400  
H   -5.3226160    0.0273457    0.3589360  
C  -10.1977793    2.1405710   -0.5894873  
C   -9.1691686    1.6738637   -1.3432907  
C   -9.7377844    0.7793452   -2.3237739  
C  -11.1924153    0.7630758   -2.0776554  
N  -11.4060089    1.6083125   -1.0133049  
C  -12.0856662    0.0364689   -2.7958826  
C  -11.5806686   -0.7845015   -3.8837793  
O  -12.3048831   -1.4749133   -4.5888642  
C  -10.0436799   -0.7827109   -4.1621098  
O   -9.6068203   -1.4702161   -5.0752098  
C   -9.1808676    0.0419327   -3.3198683  
H   -8.1305940    1.9271682   -1.2257612  
H  -13.1487445    0.0387888   -2.5989802  
H  -10.1747920    2.8283989    0.2401236  
H  -12.3018673    1.8093035   -0.6082265  
C    2.3971438    2.0127888    3.1728260  
C    1.9431056    1.6308205    1.9564670  
C    0.8496017    0.7127664    2.2356185  
C    0.7794028    0.6545384    3.7115134  
N    1.6840587    1.4146091    4.2663826  
C   -0.1885723   -0.1578550    4.3957118  
C   -1.0476298   -0.8789867    3.6398520  
O   -2.0015663   -1.6796266    4.1448486  
C   -1.0022026   -0.8410666    2.1483229  
O   -1.8147390   -1.5232959    1.5241687  
C    0.0000000    0.0000000    1.4700000  
H    2.3054237    1.9346118    0.9892483  
H   -0.2170646   -0.1815267    5.4753125  
H   -2.4487139   -2.0549881    3.3649027  
H    3.2048689    2.6911772    3.3971983  
