58

C    1.1319246    0.0015678   -0.8009270  
C    0.7969911    0.0034960   -2.1169403  
C   -0.6453343    0.0035697   -2.1842669  
C   -1.1266835    0.0015410   -0.7896023  
N    0.0000000    0.0000000    0.0000000  
C   -2.4346132    0.0013914   -0.4276288  
C   -3.4350114    0.0031337   -1.4820173  
O   -4.6384615    0.0030879   -1.2583905  
C   -2.9478966    0.0050445   -2.9661069  
O   -3.7809384    0.0062139   -3.8623765  
C   -1.5113836    0.0053058   -3.2312118  
H   -2.7664563    0.0000176    0.6013454  
H   -1.1823542    0.0068384   -4.2614845  
H    2.1104315    0.0009435   -0.3488062  
C    4.5953928   -2.1014960   -2.7684688  
C    4.9007862   -1.6358450   -4.0070079  
C    3.8360917   -0.7408523   -4.3946273  
C    2.8785316   -0.7231090   -3.2723282  
N    3.3968136   -1.5686684   -2.3187548  
C    1.7334687    0.0049282   -3.2500367  
C    1.4233475    0.8256459   -4.4088216  
O    0.4162258    1.5171695   -4.4849912  
C    2.4231581    0.8219166   -5.6088926  
O    2.1725282    1.5087229   -6.5900871  
C    3.6246479   -0.0037319   -5.5162703  
H    5.7723366   -1.8904262   -4.5833773  
H    5.1449867   -2.7892455   -2.1465067  
H    2.9710704   -1.7664994   -1.4318206  
C    5.9265176   -3.2250441   -7.4157128  
C    6.5588023   -2.5099982   -8.3816322  
C    6.1284540   -1.1389938   -8.2402717  
C    5.1868942   -1.1137318   -7.1046583  
N    5.1077633   -2.4095934   -6.6492791  
C    4.5587559    0.0005510   -6.6513143  
C    4.8278378    1.2589091   -7.3270841  
O    4.3114421    2.3175505   -6.9940447  
C    5.8214331    1.2554836   -8.5323072  
O    6.0555525    2.3088511   -9.1092514  
C    6.4369638   -0.0086989   -8.9283072  
H    7.2478779   -2.8986511   -9.1101493  
H    7.1239216   -0.0024908   -9.7636361  
H    5.9896317   -4.2791456   -7.1994336  
H    4.5438231   -2.7154548   -5.8776131  
C    0.0000000    0.0000000    1.4700000  
C    1.0662921    0.0000102    2.3034270  
C    0.4961870   -0.0000064    3.6418889  
C   -0.9663858    0.0000850    3.4240247  
N   -1.2632773    0.0000084    2.1528658  
C   -1.8985362    0.0000517    4.5177257  
C   -1.3925775   -0.0004564    5.7720543  
O   -2.1456383   -0.0005410    6.8851312  
C    0.0786232   -0.0009323    6.0245000  
O    0.4683759   -0.0012588    7.1921102  
C    1.0143166   -0.0008442    4.8859032  
H    2.1107198   -0.0000632    2.0421868  
H   -2.9622183    0.0003270    4.3293377  
H   -1.5042274   -0.0009692    7.6184419  
H    2.0724152   -0.0013148    5.1109744  
