60

C    3.3041274    0.0001178   -1.5420427  
C    2.5845370   -0.0004777   -0.3695849  
C    1.2040005   -0.0000008   -0.7283588  
C    1.1422374    0.0006038   -2.1454369  
N    2.4348641    0.0026111   -2.6077456  
C   -0.0655181    0.0008797   -2.8497914  
C   -1.2321769    0.0002323   -2.1101395  
O   -2.4392816    0.0001145   -2.7472518  
C   -1.1911209   -0.0000008   -0.6955257  
O   -2.4371527   -0.0002320   -0.1032859  
C    0.0000000    0.0000000    0.0000000  
H    3.0031535   -0.0000657    0.6222587  
H    2.7054629   -0.0071097   -3.5745255  
H   -3.1132987   -0.0000652   -2.0551785  
H   -2.3200283   -0.0004071    0.8516418  
H    4.3686620    0.0004073   -1.7024283  
C    2.2805268   -2.0884672   -5.9525539  
C    1.7869814   -1.6272475   -4.7745193  
C    0.7005266   -0.7318379   -5.0949767  
C    0.6008358   -0.7090653   -6.5668236  
N    1.5865179   -1.5517704   -7.0263547  
C   -0.3061616    0.0202020   -7.2648416  
C   -1.2468133    0.8373773   -6.5165546  
O   -2.1016165    1.5297580   -7.0534179  
C   -1.1592596    0.8286871   -4.9570465  
O   -1.9457420    1.5129525   -4.3163540  
C   -0.1387081    0.0017015   -4.3179681  
H    2.1434566   -1.8847455   -3.7930749  
H   -0.3624474    0.0226610   -8.3445345  
H    3.0929934   -2.7751196   -6.1266117  
C    2.6659862   -5.1823870   -9.3753570  
C    2.3484029   -4.3735978   -8.3377728  
C    2.1745857   -3.0557469   -8.9290056  
C    2.4320884   -3.2573167  -10.3711034  
N    2.7205716   -4.5019544  -10.6387686  
C    2.3587287   -2.1765871  -11.3154170  
C    2.0421217   -0.9503112  -10.8407141  
O    1.9385987    0.1479294  -11.6083024  
C    1.7763148   -0.7149608   -9.3908466  
O    1.4937043    0.4272392   -9.0292790  
C    1.8578526   -1.8397549   -8.4421030  
H    2.2447897   -4.6385831   -7.2994462  
H    2.5519715   -2.3525174  -12.3635653  
H    1.7024621    0.8619432  -10.9889661  
H    2.8736857   -6.2403797   -9.3533097  
C    2.5528530    2.1414826    2.8079335  
C    2.0663498    1.7338582    4.0032312  
C    0.9804344    0.8229586    3.6752840  
C    0.9495562    0.7966882    2.1971295  
N    1.8690446    1.5676019    1.6831036  
C    0.0000000    0.0000000    1.4700000  
C   -0.8785127   -0.7372425    2.1869543  
O   -1.8187535   -1.5261249    1.6395491  
C   -0.8723269   -0.7321790    3.6796354  
O   -1.7010379   -1.4274584    4.2670412  
C    0.1115397    0.0933559    4.4024240  
H    2.4028853    2.0163452    4.9860947  
H   -2.2861435   -1.9184361    2.3990168  
H    0.0832434    0.0693689    5.4835595  
H    3.3664920    2.8238276    2.6198634  
