58

C   -3.2573668   -0.0016218   -1.5109375  
C   -2.5379468   -0.0013202   -0.3591956  
C   -1.1435038   -0.0007050   -0.7338497  
C   -1.1092609   -0.0006434   -2.2088472  
N   -2.4227561   -0.0016144   -2.6182605  
C    0.0265523    0.0002680   -2.9515662  
C    1.3003029    0.0010281   -2.2514981  
O    2.3786772    0.0018109   -2.8306424  
C    1.2877717    0.0007255   -0.6895608  
O    2.3539959    0.0010525   -0.0892037  
C    0.0000000    0.0000000    0.0000000  
H   -2.9384082   -0.0016896    0.6389242  
H    0.0296279    0.0004260   -4.0327230  
H   -2.7280504   -0.0002621   -3.5742112  
C   -6.5597219   -0.0030331    1.3835039  
C   -7.6114508   -0.0035607    0.5244693  
C   -7.0637929   -0.0031632   -0.8115345  
C   -5.5962694   -0.0023843   -0.6593366  
N   -5.3559133   -0.0019432    0.6953288  
C   -4.7161329   -0.0022274   -1.6923248  
C   -5.2498356   -0.0026424   -3.0442482  
O   -4.5392148   -0.0024809   -4.0409022  
C   -6.8008633   -0.0032161   -3.2289581  
O   -7.2618459   -0.0032623   -4.3624288  
C   -7.6474464   -0.0036171   -2.0385170  
H   -8.7203347   -0.0042189   -2.1750239  
H   -6.5627881   -0.0031321    2.4614093  
H   -4.4461405   -0.0029395    1.1188362  
C   -9.0339154   -0.0041305    0.8952726  
C   -9.5714221   -0.0043644    2.1373133  
C  -11.0104091   -0.0049421    1.9232669  
C  -11.1685200   -0.0048746    0.4530341  
N  -10.0133566   -0.0044805   -0.1549030  
C  -12.4619864   -0.0054009   -0.1730904  
C  -13.5481258   -0.0063578    0.6329077  
O  -14.8151665   -0.0069296    0.1849695  
C  -13.4213023   -0.0068225    2.1202128  
O  -14.4528410   -0.0075727    2.7918883  
C  -12.0834989   -0.0062237    2.7384408  
H   -9.0551759   -0.0042591    3.0820703  
H  -12.5480004   -0.0051314   -1.2498965  
H  -15.3629697   -0.0075946    0.9906144  
H  -12.0343891   -0.0067031    3.8190970  
C    2.5528530    2.1414826    2.8079335  
C    2.0663498    1.7338582    4.0032312  
C    0.9804344    0.8229586    3.6752840  
C    0.9495562    0.7966882    2.1971295  
N    1.8690446    1.5676019    1.6831036  
C    0.0000000    0.0000000    1.4700000  
C   -0.8785127   -0.7372425    2.1869543  
O   -1.8187535   -1.5261249    1.6395491  
C   -0.8723269   -0.7321790    3.6796354  
O   -1.7010379   -1.4274584    4.2670412  
C    0.1115397    0.0933559    4.4024240  
H    2.4028853    2.0163452    4.9860947  
H   -2.2861435   -1.9184361    2.3990168  
H    0.0832434    0.0693689    5.4835595  
H    3.3664920    2.8238276    2.6198634  
