62

C   -3.3003507   -0.0046233   -1.4738999  
C   -2.5232777   -0.0034810   -2.6090754  
C   -1.1623179   -0.0013105   -2.1820103  
C   -1.1711875   -0.0015117   -0.7636142  
N   -2.4852294   -0.0015923   -0.3662368  
C    0.0000000    0.0000000    0.0000000  
C    1.2020372    0.0014398   -0.6806473  
O    2.3759236    0.0025991    0.0157760  
C    1.2314650    0.0020395   -2.0955499  
O    2.5054370    0.0039130   -2.6250164  
C    0.0764527    0.0008222   -2.8495192  
H   -2.8919920   -0.0030269   -3.6205312  
H   -2.8036133   -0.0122975    0.5858650  
H    3.0835619    0.0037920   -0.6418800  
H    2.4360041    0.0041759   -3.5845909  
H    0.1304093    0.0015041   -3.9319081  
C   -4.7630454   -0.0063865   -1.3275424  
C   -5.6984925   -0.0085222   -2.3055572  
C   -6.9735426   -0.0095091   -1.6050234  
C   -6.6111439   -0.0077949   -0.1714096  
N   -5.3167438   -0.0058802   -0.0025540  
C   -7.6066031   -0.0080893    0.8650009  
C   -8.9050738   -0.0096198    0.4864412  
O   -9.9376437   -0.0100753    1.3465810  
C   -9.3027411   -0.0110001   -0.9523152  
O  -10.5033536   -0.0124856   -1.2238806  
C   -8.2629618   -0.0107105   -1.9967212  
H   -5.5425360   -0.0092382   -3.3708048  
H   -7.3132489   -0.0070155    1.9046411  
H  -10.7311708   -0.0112039    0.7813678  
C   -6.7670492   -2.1355271   -5.6349980  
C   -6.9359650   -1.6727729   -4.3505554  
C   -8.0529776   -0.7859448   -4.3710245  
C   -8.5290781   -0.7470093   -5.7065919  
N   -7.7246827   -1.5761613   -6.4482607  
C   -9.6252433    0.0283883   -6.0964230  
C  -10.2523974    0.7779040   -5.1201642  
O  -11.3278589    1.5526390   -5.4460182  
C   -9.7919415    0.7525523   -3.7821974  
O  -10.5216738    1.5532459   -2.9279586  
C   -8.7104409   -0.0119559   -3.3969575  
H   -6.3281079   -1.9405084   -3.5033123  
H   -7.8273277   -1.7582458   -7.4302436  
H   -9.9929322    0.0625180   -7.1127112  
H  -11.6094760    1.9860322   -4.6298522  
H  -10.1455676    1.4786876   -2.0455817  
H   -6.0383530   -2.8192290   -6.0356392  
C    0.8175213    0.6860729    2.3021913  
C    0.0000000    0.0000000    1.4700000  
C   -0.8887526   -0.7456559    2.3478473  
C   -0.4549825   -0.3816753    3.7138435  
N    0.5448156    0.4573574    3.6934124  
C   -1.0945674   -0.9182058    4.8835240  
C   -2.1210866   -1.7789155    4.6970523  
O   -2.8083856   -2.3554314    5.6976972  
C   -2.5824069   -2.1655116    3.3310774  
O   -3.5227682   -2.9541547    3.2362962  
C   -1.9100805   -1.6015804    2.1470656  
H   -0.7567140   -0.6349833    5.8697035  
H   -3.4728268   -2.9124471    5.2533954  
H   -2.2742832   -1.9066565    1.1752040  
H    1.6189533    1.3585343    2.0405121  
