58

C    3.2573676   -0.0002917   -1.5109371  
C    2.5379470   -0.0001708   -0.3591953  
C    1.1435045    0.0000333   -0.7338497  
C    1.1092616   -0.0000080   -2.2088472  
N    2.4227572    0.0001912   -2.6182604  
C   -0.0265522   -0.0002520   -2.9515663  
C   -1.3003029   -0.0002638   -2.2514982  
O   -2.3786772   -0.0004130   -2.8306437  
C   -1.2877723    0.0000313   -0.6895611  
O   -2.3539953    0.0003306   -0.0892043  
C    0.0000000    0.0000000    0.0000000  
H    2.9384088   -0.0000367    0.6389246  
H    2.7280505   -0.0013403   -3.5742105  
C    2.4624190   -2.0918862   -5.9392945  
C    1.9141458   -1.6298145   -4.7860550  
C    0.8440001   -0.7345871   -5.1577954  
C    0.8135211   -0.7128501   -6.6327153  
N    1.8196277   -1.5559199   -7.0448709  
C   -0.0596518    0.0159612   -7.3730585  
C   -1.0343364    0.8337034   -6.6703332  
O   -1.8629407    1.5257393   -7.2472228  
C   -1.0200955    0.8261114   -5.1084288  
O   -1.8357392    1.5108613   -4.5058478  
C   -0.0307336   -0.0004643   -4.4215606  
H    2.2241323   -1.8866337   -3.7887754  
H   -0.0651858    0.0176597   -8.4542039  
H    3.2821102   -2.7786945   -6.0745342  
H    2.0500139   -1.7532072   -8.0014520  
C    6.7921787   -0.0024531    1.2037538  
C    5.5119023   -0.0013792    0.7650399  
C    5.6127424   -0.0007796   -0.6862806  
C    7.0661046   -0.0015327   -0.9589016  
N    7.7625301   -0.0025956    0.1451727  
C    7.5891422   -0.0012857   -2.2973775  
C    6.7006605   -0.0007186   -3.3171495  
O    7.0481252   -0.0004242   -4.6153438  
C    5.2278315   -0.0003229   -3.0743842  
O    4.4775319    0.0003125   -4.0502277  
C    4.7161340   -0.0005432   -1.6923240  
H    4.6104180   -0.0011264    1.3535991  
H    8.6559224   -0.0016444   -2.4673513  
H    6.2021013   -0.0000585   -5.0984555  
H    7.1449923   -0.0031693    2.2228199  
C    2.5128556    2.1077716    2.9199648  
C    1.9592212    1.6432552    4.0696553  
C    0.8915788    0.7479214    3.6910360  
C    0.8684491    0.7287414    2.2159470  
N    1.8754542    1.5738793    1.8102719  
C    0.0000000    0.0000000    1.4700000  
C   -0.9772830   -0.8200135    2.1664417  
O   -1.8021297   -1.5120829    1.5842315  
C   -0.9711318   -0.8147624    3.7284083  
O   -1.7894187   -1.5009653    4.3257297  
C    0.0140216    0.0115358    4.4216297  
H    2.2638494    1.8988021    5.0689105  
H    0.0117648    0.0094386    5.5031631  
H    3.3327358    2.7953732    2.7900019  
H    2.1123206    1.7707734    0.8551938  
