64

C   -0.2041198   -0.6662882   -5.1294034  
C   -1.2456329    0.0471727   -4.5828766  
C   -1.8465395    0.7861442   -5.6446828  
C   -1.1230376    0.4806688   -6.8258504  
N   -0.1315496   -0.4025058   -6.4771798  
C   -1.4397841    1.0325680   -8.0707875  
C   -2.5065205    1.9085701   -8.1243731  
O   -2.8591344    2.4760485   -9.3146016  
C   -3.2403713    2.2261136   -6.9567062  
O   -4.2735432    3.1142237   -7.1738688  
C   -2.9282857    1.6822358   -5.7281600  
H   -0.8922028    0.8039213   -8.9747112  
H   -3.6170352    3.0463503   -9.1312768  
H   -4.7175604    3.2751085   -6.3356748  
H   -3.5084503    1.9444471   -4.8511582  
H    0.4936105   -1.3413505   -4.6641918  
C    1.5935673   -4.5130893   -6.8188469  
C    0.8743004   -3.4106303   -6.4192128  
C    1.2283813   -2.3423887   -7.2956186  
C    2.1754688   -2.8570036   -8.2176395  
N    2.3760900   -4.1771007   -7.8987168  
C    2.7445587   -2.0792866   -9.2305969  
C    2.3501606   -0.7580791   -9.3144931  
O    2.8742285    0.0459643  -10.2849976  
C    1.4067169   -0.2261751   -8.4035543  
O    1.1171973    1.1056435   -8.6175197  
C    0.8450879   -0.9927590   -7.4038302  
H    0.1806646   -3.3798304   -5.5964652  
H    2.9885659   -4.8054241   -8.3866345  
H    3.4670063   -2.4654950   -9.9363695  
H    2.4706207    0.9156270  -10.1664551  
H    0.4728464    1.3861915   -7.9604753  
H    1.6113809   -5.5121269   -6.4181398  
C    1.1243410    0.0099923   -0.7919003  
C    0.7474076    0.0234544   -2.1148543  
C   -0.6787381    0.0234490   -2.1414700  
C   -1.1201745    0.0098592   -0.7935546  
N    0.0000000    0.0000000    0.0000000  
C   -2.4730816    0.0063709   -0.4408240  
C   -3.3971958    0.0170982   -1.4675058  
O   -4.7313517    0.0146259   -1.1793471  
C   -2.9763648    0.0303504   -2.8186324  
O   -4.0166480    0.0395118   -3.7247624  
C   -1.6418562    0.0335260   -3.1673481  
H    1.4178717    0.0310972   -2.9571209  
H   -2.8160166   -0.0041111    0.5845966  
H   -5.1938818    0.0230867   -2.0274384  
H   -3.6464675    0.0482293   -4.6127343  
H    2.1062467    0.0052819   -0.3505407  
C    0.8175213    0.6860729    2.3021913  
C    0.0000000    0.0000000    1.4700000  
C   -0.8887526   -0.7456559    2.3478473  
C   -0.4549825   -0.3816753    3.7138435  
N    0.5448156    0.4573574    3.6934124  
C   -1.0945674   -0.9182058    4.8835240  
C   -2.1210866   -1.7789155    4.6970523  
O   -2.8083856   -2.3554314    5.6976972  
C   -2.5824069   -2.1655116    3.3310774  
O   -3.5227682   -2.9541547    3.2362962  
C   -1.9100805   -1.6015804    2.1470656  
H   -0.7567140   -0.6349833    5.8697035  
H   -3.4728268   -2.9124471    5.2533954  
H   -2.2742832   -1.9066565    1.1752040  
H    1.6189533    1.3585343    2.0405121  
