58

C   -0.3197117    3.2416399   -1.5109369  
C   -0.2491568    2.5256872   -0.3591949  
C   -0.1123706    1.1379700   -0.7338497  
C   -0.1089652    1.1038965   -2.2088471  
N   -0.2382007    2.4110191   -2.6182602  
C    0.0028598   -0.0263991   -2.9515658  
C    0.1280038   -1.2939875   -2.2514982  
O    0.2340916   -2.3671312   -2.8306431  
C    0.1264791   -1.2815460   -0.6895611  
O    0.2309266   -2.3426409   -0.0892039  
C    0.0000000    0.0000000    0.0000000  
H   -0.2886315    2.9241989    0.6389249  
H    0.0033170   -0.0294444   -4.0327228  
H   -0.4246126    4.3061561   -1.6439430  
C    1.4474893    5.8433750   -4.9077631  
C    1.1449373    5.0067813   -3.8878842  
C    0.3271180    3.9640161   -4.4881439  
C    0.2339613    4.3387673   -5.9155425  
N    0.8888131    5.4395264   -6.1675100  
C   -0.5021048    3.5481290   -6.8632685  
C   -1.1168287    2.4335629   -6.4058944  
O   -1.8374458    1.6031135   -7.1786208  
C   -1.0410890    2.0285866   -4.9711753  
O   -1.6252477    1.0018588   -4.6250407  
C   -0.2799016    2.8562843   -4.0185813  
H    1.4403333    5.0872931   -2.8557336  
H   -0.5535857    3.8457932   -7.9004071  
H   -2.1464570    0.9058952   -6.5723601  
C    2.8538266    7.5957110   -3.7625391  
C    2.2546350    7.0711224   -4.8624715  
C    2.5626140    7.9474448   -5.9679327  
C    3.3963494    9.0333419   -5.4179310  
N    3.5355756    8.7616646   -4.0764031  
C    3.8941526   10.0646456   -6.1461546  
C    3.5881935   10.1081428   -7.5663772  
O    3.9897320   10.9958298   -8.3073753  
C    2.7067592    8.9686553   -8.1700721  
O    2.4423069    8.9948106   -9.3644926  
C    2.2285735    7.9099686   -7.2844237  
H    4.5038434   10.8509872   -5.7232433  
H    1.6190106    7.1245999   -7.7102796  
H    2.8545419    7.2287513   -2.7490157  
H    4.0543823    9.3227479   -3.4259639  
C    2.5528530    2.1414826    2.8079335  
C    2.0663498    1.7338582    4.0032312  
C    0.9804344    0.8229586    3.6752840  
C    0.9495562    0.7966882    2.1971295  
N    1.8690446    1.5676019    1.6831036  
C    0.0000000    0.0000000    1.4700000  
C   -0.8785127   -0.7372425    2.1869543  
O   -1.8187535   -1.5261249    1.6395491  
C   -0.8723269   -0.7321790    3.6796354  
O   -1.7010379   -1.4274584    4.2670412  
C    0.1115397    0.0933559    4.4024240  
H    2.4028853    2.0163452    4.9860947  
H   -2.2861435   -1.9184361    2.3990168  
H    0.0832434    0.0693689    5.4835595  
H    3.3664920    2.8238276    2.6198634  
