58

C    3.2573664   -0.0002920   -1.5109382  
C    2.5379465   -0.0001710   -0.3591962  
C    1.1435036    0.0000330   -0.7338498  
C    1.1092603   -0.0000084   -2.2088474  
N    2.4227555    0.0001909   -2.6182611  
C   -0.0265540   -0.0002525   -2.9515658  
C   -1.3003048   -0.0002641   -2.2514978  
O   -2.3786790   -0.0004135   -2.8306421  
C   -1.2877729    0.0000310   -0.6895604  
O   -2.3539957    0.0003305   -0.0892032  
C    0.0000000    0.0000000    0.0000000  
H    2.9384082   -0.0000368    0.6389235  
H   -0.0296295   -0.0004087   -4.0327230  
H    2.7280487   -0.0013408   -3.5742115  
C    6.7921799    0.0009713    1.2037504  
C    5.5119028    0.0013961    0.7650370  
C    5.6127419    0.0004334   -0.6862834  
C    7.0661036   -0.0004195   -0.9589048  
N    7.7625307   -0.0001897    0.1451694  
C    7.5891407   -0.0015551   -2.2973807  
C    6.7006580   -0.0022151   -3.3171516  
O    7.0481221   -0.0032832   -4.6153462  
C    5.2278295   -0.0017546   -3.0743860  
O    4.4775287   -0.0022801   -4.0502290  
C    4.7161327   -0.0005436   -1.6923260  
H    4.6104191    0.0021661    1.3535962  
H    6.2020979   -0.0035564   -5.0984572  
H    7.1449939    0.0014090    2.2228164  
C    9.0408287   -0.0020984   -2.5286837  
C   10.0316544   -0.0016156   -1.6068137  
C   11.2637374   -0.0025220   -2.3804225  
C   10.8184526   -0.0036317   -3.7904949  
N    9.5164126   -0.0033083   -3.8836723  
C   11.7518556   -0.0047029   -4.8831259  
C   13.0701715   -0.0042784   -4.5808378  
O   14.0508895   -0.0051709   -5.4996592  
C   13.5509654   -0.0027905   -3.1676869  
O   14.7653580   -0.0026028   -2.9665120  
C   12.5737820   -0.0017548   -2.0644924  
H    9.9380086   -0.0006610   -0.5342908  
H   11.3984448   -0.0057077   -5.9039148  
H   14.8759909   -0.0045319   -4.9816247  
H   12.9625404   -0.0005725   -1.0549900  
C    0.8175213    0.6860729    2.3021913  
C    0.0000000    0.0000000    1.4700000  
C   -0.8887526   -0.7456559    2.3478473  
C   -0.4549825   -0.3816753    3.7138435  
N    0.5448156    0.4573574    3.6934124  
C   -1.0945674   -0.9182058    4.8835240  
C   -2.1210866   -1.7789155    4.6970523  
O   -2.8083856   -2.3554314    5.6976972  
C   -2.5824069   -2.1655116    3.3310774  
O   -3.5227682   -2.9541547    3.2362962  
C   -1.9100805   -1.6015804    2.1470656  
H   -0.7567140   -0.6349833    5.8697035  
H   -3.4728268   -2.9124471    5.2533954  
H   -2.2742832   -1.9066565    1.1752040  
H    1.6189533    1.3585343    2.0405121  
