62

C    3.3041278    0.0001176   -1.5420426  
C    2.5845376   -0.0004780   -0.3695850  
C    1.2040010   -0.0000010   -0.7283582  
C    1.1422380    0.0006034   -2.1454369  
N    2.4348649    0.0026106   -2.6077462  
C   -0.0655171    0.0008790   -2.8497919  
C   -1.2321763    0.0002319   -2.1101404  
O   -2.4392806    0.0001139   -2.7472527  
C   -1.1911205   -0.0000009   -0.6955268  
O   -2.4371523   -0.0002323   -0.1032870  
C    0.0000000    0.0000000    0.0000000  
H    3.0031538   -0.0000658    0.6222586  
H   -0.1193539    0.0014835   -3.9297472  
H   -3.1132980   -0.0000655   -2.0551794  
H   -2.3200280   -0.0004072    0.8516406  
H    4.3686630    0.0004070   -1.7024285  
C    5.6718709   -2.1292830   -4.7374648  
C    5.4024595   -1.6450693   -5.9966001  
C    4.2795497   -0.7737667   -5.8761620  
C    3.9039380   -0.7655399   -4.5083998  
N    4.7686536   -1.6005167   -3.8453024  
C    2.8310675   -0.0116224   -4.0232746  
C    2.1246927    0.7480610   -4.9354655  
O    1.0681536    1.5033222   -4.5155604  
C    2.4839134    0.7526858   -6.3043176  
O    1.6833263    1.5594230   -7.0863532  
C    3.5420417    0.0089611   -6.7836551  
H    5.9474672   -1.8906002   -6.8919633  
H    4.7540942   -1.7863155   -2.8587691  
H    0.7213554    1.9477935   -5.3000613  
H    1.9931430    1.5056026   -7.9955950  
H    3.7934499    0.0324026   -7.8375628  
C    8.8056844   -4.1491943   -6.9928298  
C    9.4369714   -4.8599340   -6.0295520  
C    8.7189363   -4.5494747   -4.8029547  
C    7.6557523   -3.6105766   -5.2209201  
N    7.7015548   -3.3722387   -6.5035292  
C    6.7152132   -3.0602951   -4.2840842  
C    6.8312670   -3.4314145   -2.9886552  
O    6.0224450   -2.9958453   -2.0077741  
C    7.8933844   -4.3774444   -2.5357831  
O    7.9398760   -4.6711260   -1.3412914  
C    8.8462215   -4.9281879   -3.5159406  
H   10.2850872   -5.5141639   -6.1379854  
H    6.3524427   -3.4327560   -1.2019436  
H    9.6007457   -5.6103751   -3.1477770  
H    9.0356868   -4.1071609   -8.0455900  
C    0.8175213    0.6860729    2.3021913  
C    0.0000000    0.0000000    1.4700000  
C   -0.8887526   -0.7456559    2.3478473  
C   -0.4549825   -0.3816753    3.7138435  
N    0.5448156    0.4573574    3.6934124  
C   -1.0945674   -0.9182058    4.8835240  
C   -2.1210866   -1.7789155    4.6970523  
O   -2.8083856   -2.3554314    5.6976972  
C   -2.5824069   -2.1655116    3.3310774  
O   -3.5227682   -2.9541547    3.2362962  
C   -1.9100805   -1.6015804    2.1470656  
H   -0.7567140   -0.6349833    5.8697035  
H   -3.4728268   -2.9124471    5.2533954  
H   -2.2742832   -1.9066565    1.1752040  
H    1.6189533    1.3585343    2.0405121  
