58

C    1.0965515    0.0001360   -0.8010308  
C    0.0000000    0.0000000    0.0000000  
C   -1.1546564    0.0001471   -0.8669508  
C   -0.6372017    0.0003523   -2.2486281  
N    0.7342869    0.0007340   -2.1395010  
C   -1.4147743    0.0001358   -3.3608713  
C   -2.8576053   -0.0001041   -3.1854457  
O   -3.6427783   -0.0002487   -4.1244897  
C   -3.4275844   -0.0000721   -1.7311659  
O   -4.6406833    0.0000338   -1.5710048  
C   -2.4891866   -0.0001089   -0.6116742  
H   -2.8919120   -0.0002916    0.3920871  
H    2.1388274    0.0000662   -0.5261648  
H    1.3735868   -0.0006095   -2.9130264  
C    2.0080273   -2.0907786   -5.2072025  
C    1.0696920   -1.6289492   -4.3409950  
C    0.2147981   -0.7337511   -5.0843737  
C    0.7357140   -0.7117675   -6.4645744  
N    1.8230605   -1.5546808   -6.4725584  
C    0.2009059    0.0170936   -7.4767238  
C   -0.9654722    0.8346328   -7.1873681  
O   -1.5197756    1.5266949   -8.0312280  
C   -1.5338504    0.8267780   -5.7324835  
O   -2.5153155    1.5113557   -5.4768668  
C   -0.8712831    0.0001717   -4.7267108  
H    0.9860726   -1.8859101   -3.3000373  
H    2.8192288   -2.7774938   -5.0275787  
H    2.3931030   -1.7517866   -7.2745860  
C    1.8775481   -3.0594038  -10.2314426  
C    1.3341881   -2.4772015   -9.1371938  
C    1.2039574   -1.0708848   -9.4862114  
C    1.7311370   -0.9786109  -10.8646712  
N    2.1274101   -2.1411225  -11.3068510  
C    1.7763717    0.2668191  -11.5801742  
C    1.3155311    1.3698553  -10.9475045  
O    1.2978984    2.5969501  -11.4951977  
C    0.7770375    1.3090260   -9.5566464  
O    0.3746109    2.3526014   -9.0426194  
C    0.7412885    0.0196508   -8.8437940  
H    1.0560182   -2.9443855   -8.2079815  
H    2.1670252    0.3051363  -12.5865701  
H    0.9159443    3.1704230  -10.8064354  
H    2.1318688   -4.0976414  -10.3741209  
C    2.3971438    2.0127888    3.1728260  
C    1.9431056    1.6308205    1.9564670  
C    0.8496017    0.7127664    2.2356185  
C    0.7794028    0.6545384    3.7115134  
N    1.6840587    1.4146091    4.2663826  
C   -0.1885723   -0.1578550    4.3957118  
C   -1.0476298   -0.8789867    3.6398520  
O   -2.0015663   -1.6796266    4.1448486  
C   -1.0022026   -0.8410666    2.1483229  
O   -1.8147390   -1.5232959    1.5241687  
C    0.0000000    0.0000000    1.4700000  
H    2.3054237    1.9346118    0.9892483  
H   -0.2170646   -0.1815267    5.4753125  
H   -2.4487139   -2.0549881    3.3649027  
H    3.2048689    2.6911772    3.3971983  
