58

C    1.1319246    0.0015691   -0.8009266  
C    0.7969911    0.0034968   -2.1169399  
C   -0.6453340    0.0035688   -2.1842668  
C   -1.1266840    0.0015398   -0.7896020  
N    0.0000000    0.0000000    0.0000000  
C   -2.4346129    0.0013886   -0.4276289  
C   -3.4350107    0.0031296   -1.4820179  
O   -4.6384616    0.0030823   -1.2583904  
C   -2.9478963    0.0050412   -2.9661065  
O   -3.7809384    0.0062097   -3.8623765  
C   -1.5113828    0.0053040   -3.2312120  
H   -2.7664562    0.0000141    0.6013455  
H   -1.1823540    0.0068368   -4.2614843  
H    2.1104315    0.0009458   -0.3488058  
C    4.6221969   -2.0851197   -2.8253993  
C    3.4630833   -1.6242666   -2.2886067  
C    2.8772276   -0.7284830   -3.2577199  
C    3.7966179   -0.7050915   -4.4113941  
N    4.8343012   -1.5478317   -4.0859839  
C    3.5979651    0.0246625   -5.5382040  
C    2.3987147    0.8417460   -5.6201041  
O    2.1298698    1.5345363   -6.5927631  
C    1.4112236    0.8324040   -4.4099055  
O    0.3983743    1.5165864   -4.4672752  
C    1.7334690    0.0049301   -3.2500363  
H    3.0641099   -1.8822425   -1.3237847  
H    4.2848306    0.0275718   -6.3731400  
H    5.3394122   -2.7718842   -2.4060589  
C    5.9897467   -1.8353035   -4.9480781  
C    7.0387944   -2.6508447   -4.6912321  
C    7.8802188   -2.5636874   -5.8748319  
C    7.1685487   -1.6260869   -6.7698263  
N    6.0597413   -1.1957502   -6.2319191  
C    7.6838290   -1.2694870   -8.0630423  
C    8.8569432   -1.8240296   -8.4446480  
O    9.4536480   -1.5807790   -9.6239756  
C    9.5991730   -2.7733782   -7.5637437  
O   10.6610993   -3.2399855   -7.9758249  
C    9.0498855   -3.1234085   -6.2417429  
H    7.2193787   -3.2388696   -3.8076643  
H    7.1426163   -0.5819051   -8.6964689  
H   10.2672385   -2.1163869   -9.6053411  
H    9.6179663   -3.8145977   -5.6336545  
C    2.5528530    2.1414826    2.8079335  
C    2.0663498    1.7338582    4.0032312  
C    0.9804344    0.8229586    3.6752840  
C    0.9495562    0.7966882    2.1971295  
N    1.8690446    1.5676019    1.6831036  
C    0.0000000    0.0000000    1.4700000  
C   -0.8785127   -0.7372425    2.1869543  
O   -1.8187535   -1.5261249    1.6395491  
C   -0.8723269   -0.7321790    3.6796354  
O   -1.7010379   -1.4274584    4.2670412  
C    0.1115397    0.0933559    4.4024240  
H    2.4028853    2.0163452    4.9860947  
H   -2.2861435   -1.9184361    2.3990168  
H    0.0832434    0.0693689    5.4835595  
H    3.3664920    2.8238276    2.6198634  
