58

C    1.7704312   -2.0997831   -5.2515186  
C    1.5928584   -1.6333171   -6.5144327  
C    0.4607457   -0.7379010   -6.4771951  
C   -0.0100422   -0.7207978   -5.0790331  
N    0.8257128   -1.5670939   -4.3875231  
C   -1.0641734    0.0073898   -4.6315339  
C   -1.7831602    0.8289563   -5.5910245  
O   -2.7459476    1.5206786   -5.2862920  
C   -1.3021141    0.8259149   -7.0770897  
O   -1.8998120    1.5134382   -7.8939924  
C   -0.1528624    0.0000282   -7.4390076  
H    2.1870130   -1.8876243   -7.3740380  
H    2.5118288   -2.7880443   -4.8793392  
H    0.7607706   -1.7654785   -3.4059561  
C    1.2950663   -3.1969810  -10.1183845  
C    0.8262162   -2.4925380   -9.0563049  
C    0.7053651   -1.1183780   -9.4828196  
C    1.1453686   -1.0797196  -10.8905457  
N    1.4899710   -2.3714819  -11.2153373  
C    1.1787907    0.0409707  -11.6551636  
C    0.7531960    1.2926601  -11.0512777  
O    0.7469194    2.3562675  -11.6570834  
C    0.2835066    1.2751307   -9.5616837  
O   -0.0767941    2.3228934   -9.0424173  
C    0.2914225    0.0049632   -8.8402517  
H    0.5919559   -2.8901314   -8.0848858  
H    1.5048907    0.0476014  -12.6859529  
H    1.5148048   -4.2496883  -10.1919546  
H    1.8287466   -2.6691103  -12.1118278  
C    1.1319248    0.0015675   -0.8009270  
C    0.7969916    0.0034959   -2.1169404  
C   -0.6453336    0.0035703   -2.1842672  
C   -1.1266831    0.0015415   -0.7896027  
N    0.0000000    0.0000000    0.0000000  
C   -2.4346129    0.0013924   -0.4276297  
C   -3.4350110    0.0031352   -1.4820184  
O   -4.6384610    0.0030897   -1.2583919  
C   -2.9478958    0.0050460   -2.9661075  
O   -3.7809377    0.0062160   -3.8623775  
C   -1.5113821    0.0053068   -3.2312125  
H    1.4821240    0.0045436   -2.9459192  
H   -2.7664565    0.0000185    0.6013447  
H    2.1104318    0.0009428   -0.3488058  
C    2.5528530    2.1414826    2.8079335  
C    2.0663498    1.7338582    4.0032312  
C    0.9804344    0.8229586    3.6752840  
C    0.9495562    0.7966882    2.1971295  
N    1.8690446    1.5676019    1.6831036  
C    0.0000000    0.0000000    1.4700000  
C   -0.8785127   -0.7372425    2.1869543  
O   -1.8187535   -1.5261249    1.6395491  
C   -0.8723269   -0.7321790    3.6796354  
O   -1.7010379   -1.4274584    4.2670412  
C    0.1115397    0.0933559    4.4024240  
H    2.4028853    2.0163452    4.9860947  
H   -2.2861435   -1.9184361    2.3990168  
H    0.0832434    0.0693689    5.4835595  
H    3.3664920    2.8238276    2.6198634  
