62

C    3.3041273    0.0001178   -1.5420433  
C    2.5845371   -0.0004779   -0.3695855  
C    1.2040005   -0.0000007   -0.7283590  
C    1.1422373    0.0006039   -2.1454374  
N    2.4348643    0.0026112   -2.6077462  
C   -0.0655181    0.0008799   -2.8497921  
C   -1.2321766    0.0002325   -2.1101401  
O   -2.4392815    0.0001147   -2.7472520  
C   -1.1911210   -0.0000007   -0.6955265  
O   -2.4371527   -0.0002321   -0.1032862  
C    0.0000000    0.0000000    0.0000000  
H    3.0031537   -0.0000660    0.6222583  
H    2.7054631   -0.0071096   -3.5745262  
H   -3.1132985   -0.0000648   -2.0551790  
H   -2.3200283   -0.0004072    0.8516409  
H    4.3686621    0.0004072   -1.7024296  
C   -0.1387080    0.0017018   -4.3179685  
C    0.8847660    0.0023482   -5.2034512  
C    0.2487269    0.0030114   -6.5118682  
C   -1.2011845    0.0025368   -6.2214537  
N   -1.4344179    0.0018496   -4.9370903  
C   -2.1866332    0.0030151   -7.2673871  
C   -1.7437544    0.0043151   -8.5453513  
O   -2.5513001    0.0048875   -9.6195538  
C   -0.2869473    0.0051951   -8.8707332  
O    0.0441878    0.0062441  -10.0563001  
C    0.7042754    0.0046374   -7.7801361  
H    1.9409052    0.0024621   -4.9945362  
H   -3.2396163    0.0024445   -7.0262734  
H   -1.9471958    0.0058404  -10.3838898  
C    4.1992718   -2.1164516   -6.0934644  
C    5.1435146   -1.6157517   -6.9595895  
C    4.4628247   -0.7407126   -7.8571238  
C    3.0936587   -0.7473034   -7.4866283  
N    2.9679203   -1.5943058   -6.4135978  
C    2.1250955    0.0057049   -8.1571895  
C    2.5464219    0.7796969   -9.2209554  
O    1.6423304    1.5347625   -9.9105255  
C    3.9081050    0.7992284   -9.6059957  
O    4.1690952    1.6191342  -10.6844125  
C    4.8641168    0.0564107   -8.9450960  
H    6.1935431   -1.8529661   -6.9468359  
H    2.1120268   -1.7919791   -5.9274359  
H    2.1386708    1.9903333  -10.6028888  
H    5.1101736    1.5748859  -10.8793954  
H    5.8995745    0.0914456   -9.2630260  
H    4.3064760   -2.8058283   -5.2735705  
C    2.5528530    2.1414826    2.8079335  
C    2.0663498    1.7338582    4.0032312  
C    0.9804344    0.8229586    3.6752840  
C    0.9495562    0.7966882    2.1971295  
N    1.8690446    1.5676019    1.6831036  
C    0.0000000    0.0000000    1.4700000  
C   -0.8785127   -0.7372425    2.1869543  
O   -1.8187535   -1.5261249    1.6395491  
C   -0.8723269   -0.7321790    3.6796354  
O   -1.7010379   -1.4274584    4.2670412  
C    0.1115397    0.0933559    4.4024240  
H    2.4028853    2.0163452    4.9860947  
H   -2.2861435   -1.9184361    2.3990168  
H    0.0832434    0.0693689    5.4835595  
H    3.3664920    2.8238276    2.6198634  
