64

C    2.3136490   -2.1180447   -5.9171365  
C    1.6624061   -1.6181598   -7.0209770  
C    0.6419646   -0.7441450   -6.5420229  
C    0.7194932   -0.7504916   -5.1257338  
N    1.7437762   -1.5963711   -4.7793969  
C   -0.1387079    0.0017019   -4.3179684  
C   -1.0923523    0.7746129   -4.9514888  
O   -1.9557347    1.5288503   -4.2107391  
C   -1.1856778    0.7938838   -6.3634861  
O   -2.1870601    1.6126755   -6.8432324  
C   -0.3395493    0.0518696   -7.1609864  
H    1.8935984   -1.8552471   -8.0453467  
H    2.0414324   -1.7936221   -3.8410614  
H   -2.5301601    1.9837417   -4.8403222  
H   -2.1819306    1.5683232   -7.8042790  
H   -0.4351233    0.0866799   -8.2399366  
C    3.4401445   -3.0581688   -5.8272790  
C    4.1487140   -3.6900250   -6.8228469  
C    5.1386203   -4.4937445   -6.1835341  
C    4.9842438   -4.3104861   -4.7854962  
N    3.9455458   -3.4314216   -4.6039227  
C    5.7946935   -4.9527510   -3.8445092  
C    6.7787171   -5.7955986   -4.3235516  
O    7.5979763   -6.4482598   -3.4484165  
C    6.9485897   -5.9910888   -5.7148620  
O    7.9717650   -6.8600506   -6.0332320  
C    6.1496019   -5.3575972   -6.6437493  
H    3.9743559   -3.5837764   -7.8798725  
H    3.5980007   -3.1193213   -3.7152228  
H    5.6822361   -4.8171956   -2.7776538  
H    8.2042168   -6.9763929   -3.9839665  
H    8.0190332   -6.9363242   -6.9911214  
H    6.3035621   -5.5268201   -7.7030596  
C    3.3041273    0.0001178   -1.5420428  
C    2.5845373   -0.0004780   -0.3695851  
C    1.2040007   -0.0000007   -0.7283589  
C    1.1422374    0.0006038   -2.1454372  
N    2.4348641    0.0026111   -2.6077464  
C   -0.0655179    0.0008799   -2.8497918  
C   -1.2321766    0.0002325   -2.1101402  
O   -2.4392814    0.0001148   -2.7472522  
C   -1.1911209   -0.0000007   -0.6955266  
O   -2.4371528   -0.0002320   -0.1032862  
C    0.0000000    0.0000000    0.0000000  
H    3.0031533   -0.0000660    0.6222584  
H    2.7054631   -0.0071097   -3.5745261  
H   -3.1132988   -0.0000648   -2.0551787  
H   -2.3200282   -0.0004072    0.8516409  
H    4.3686625    0.0004073   -1.7024290  
C    2.5528530    2.1414826    2.8079335  
C    2.0663498    1.7338582    4.0032312  
C    0.9804344    0.8229586    3.6752840  
C    0.9495562    0.7966882    2.1971295  
N    1.8690446    1.5676019    1.6831036  
C    0.0000000    0.0000000    1.4700000  
C   -0.8785127   -0.7372425    2.1869543  
O   -1.8187535   -1.5261249    1.6395491  
C   -0.8723269   -0.7321790    3.6796354  
O   -1.7010379   -1.4274584    4.2670412  
C    0.1115397    0.0933559    4.4024240  
H    2.4028853    2.0163452    4.9860947  
H   -2.2861435   -1.9184361    2.3990168  
H    0.0832434    0.0693689    5.4835595  
H    3.3664920    2.8238276    2.6198634  
