60

C    1.1188644    0.0008221   -0.8003800  
C    0.0000000    0.0000000    0.0000000  
C   -1.1323862    0.0008898   -0.8673528  
C   -0.6382657    0.0019678   -2.1969278  
N    0.7324022    0.0038479   -2.1202235  
C   -1.4770906    0.0027317   -3.3154808  
C   -2.8395468    0.0020943   -3.0876862  
O   -3.7039190    0.0024425   -4.1440357  
C   -3.3517866    0.0013930   -1.7684337  
O   -4.7300490    0.0012365   -1.7073132  
C   -2.5248543    0.0009123   -0.6644820  
H    1.3576320   -0.0056170   -2.9057037  
H   -4.5940019    0.0021828   -3.7685142  
H   -4.9934598    0.0007262   -0.7819929  
H   -2.9462579    0.0005602    0.3339648  
H    2.1619894    0.0009352   -0.5342066  
C    1.8643876   -2.0046421   -5.4763639  
C    1.0207151   -1.6242496   -4.4888941  
C    0.0877448   -0.7071218   -5.1252453  
C    0.5271961   -0.6476496   -6.5358937  
N    1.5681767   -1.4062512   -6.7477267  
C   -0.1489730    0.1643148   -7.5098529  
C   -1.2158991    0.8838465   -7.0935867  
O   -1.9402382    1.6839123   -7.8943796  
C   -1.6840051    0.8446417   -5.6767239  
O   -2.6620642    1.5254390   -5.3682834  
C   -0.9736284    0.0040463   -4.6965764  
H    1.0302558   -1.9285164   -3.4562241  
H   -2.6279609    2.0580956   -7.3145714  
H    2.7010000   -2.6819611   -5.4108473  
C    0.7692170   -0.8978770   -9.6233899  
C    1.1309000   -0.5378759  -10.8818254  
C    0.9029096    0.8834039  -10.9950490  
C    0.3749956    1.3250902   -9.6900544  
N    0.3177231    0.1977995   -8.9034003  
C    0.0337448    2.6042616   -9.3917707  
C    0.1971093    3.6133117  -10.4250494  
O   -0.0820544    4.7928096  -10.2543036  
C    0.7543009    3.1679665  -11.8146571  
O    0.8958738    4.0085804  -12.6924871  
C    1.0871391    1.7600384  -12.0166690  
H    1.5135477   -1.1932102  -11.6438831  
H   -0.3516038    2.9072281   -8.4281172  
H    1.4725615    1.4598990  -12.9816001  
H    0.7943174   -1.8714648   -9.1614526  
C    0.0000000    0.0000000    1.4700000  
C    1.0662921    0.0000102    2.3034270  
C    0.4961870   -0.0000064    3.6418889  
C   -0.9663858    0.0000850    3.4240247  
N   -1.2632773    0.0000084    2.1528658  
C   -1.8985362    0.0000517    4.5177257  
C   -1.3925775   -0.0004564    5.7720543  
O   -2.1456383   -0.0005410    6.8851312  
C    0.0786232   -0.0009323    6.0245000  
O    0.4683759   -0.0012588    7.1921102  
C    1.0143166   -0.0008442    4.8859032  
H    2.1107198   -0.0000632    2.0421868  
H   -2.9622183    0.0003270    4.3293377  
H   -1.5042274   -0.0009692    7.6184419  
H    2.0724152   -0.0013148    5.1109744  
