58

C    1.9999911   -2.1070885   -5.1447767  
C    1.9105659   -1.6426488   -6.4177164  
C    0.7784245   -0.7475267   -6.4606979  
C    0.2115577   -0.7283871   -5.0986830  
N    0.9973780   -1.5733441   -4.3494009  
C   -0.8712832    0.0001717   -4.7267108  
C   -1.5219805    0.8200172   -5.7351660  
O   -2.5037645    1.5119160   -5.4992068  
C   -0.9387710    0.8148054   -7.1841812  
O   -1.4783600    1.5008679   -8.0417489  
C    0.2330291   -0.0112894   -7.4640108  
H    2.5631026   -1.8981135   -7.2335269  
H    2.7138539   -2.7945380   -4.7208627  
H    0.8643837   -1.7702166   -3.3744133  
C    1.0965512    0.0001360   -0.8010309  
C    0.0000000    0.0000000    0.0000000  
C   -1.1546565    0.0001472   -0.8669511  
C   -0.6372019    0.0003522   -2.2486278  
N    0.7342867    0.0007340   -2.1395013  
C   -1.4147744    0.0001358   -3.3608714  
C   -2.8576056   -0.0001041   -3.1854455  
O   -3.6427787   -0.0002485   -4.1244896  
C   -3.4275841   -0.0000722   -1.7311659  
O   -4.6406834    0.0000336   -1.5710048  
C   -2.4891869   -0.0001088   -0.6116742  
H   -2.8919125   -0.0002917    0.3920873  
H    2.1388271    0.0000665   -0.5261651  
H    1.3735866   -0.0006094   -2.9130262  
C    0.7736677   -0.0084037   -8.8309791  
C    1.8404398   -0.6919330   -9.3067556  
C    1.9262297   -0.3229655  -10.7113919  
C    0.8032435    0.6163288  -10.9192672  
N    0.1240989    0.8046630   -9.8205028  
C    0.5408888    1.2174647  -12.1978964  
C    1.3632558    0.8952072  -13.2221987  
O    1.2357475    1.3813445  -14.4685749  
C    2.5053419   -0.0492687  -13.0439690  
O    3.2128532   -0.2971662  -14.0202862  
C    2.7536783   -0.6528113  -11.7226100  
H    2.4890750   -1.3634981   -8.7707065  
H   -0.2869600    1.9003645  -12.3212824  
H    1.9630232    0.9709665  -14.9703845  
H    3.5911538   -1.3319017  -11.6348556  
C    2.5528530    2.1414826    2.8079335  
C    2.0663498    1.7338582    4.0032312  
C    0.9804344    0.8229586    3.6752840  
C    0.9495562    0.7966882    2.1971295  
N    1.8690446    1.5676019    1.6831036  
C    0.0000000    0.0000000    1.4700000  
C   -0.8785127   -0.7372425    2.1869543  
O   -1.8187535   -1.5261249    1.6395491  
C   -0.8723269   -0.7321790    3.6796354  
O   -1.7010379   -1.4274584    4.2670412  
C    0.1115397    0.0933559    4.4024240  
H    2.4028853    2.0163452    4.9860947  
H   -2.2861435   -1.9184361    2.3990168  
H    0.0832434    0.0693689    5.4835595  
H    3.3664920    2.8238276    2.6198634  
