62

C   -3.3041267   -0.0001796   -1.5420443  
C   -2.5845374    0.0004295   -0.3695862  
C   -1.2040004   -0.0000218   -0.7283594  
C   -1.1422371   -0.0006252   -2.1454380  
N   -2.4348630   -0.0026566   -2.6077474  
C    0.0655192   -0.0008787   -2.8497916  
C    1.2321779   -0.0002094   -2.1101396  
O    2.4392822   -0.0000691   -2.7472515  
C    1.1911210    0.0000230   -0.6955265  
O    2.4371523    0.0002776   -0.1032860  
C    0.0000000    0.0000000    0.0000000  
H   -3.0031536    0.0000097    0.6222571  
H   -2.7054619    0.0070591   -3.5745273  
H    0.1193559   -0.0014823   -3.9297475  
H    3.1132992    0.0001231   -2.0551781  
H    2.3200281    0.0004506    0.8516414  
C   -6.9078748    0.0011109    1.0804434  
C   -5.6166937    0.0004840    0.6749432  
C   -5.6800153   -0.0005099   -0.7784975  
C   -7.1258510   -0.0004504   -1.0885654  
N   -7.8505609    0.0005785   -0.0028466  
C   -7.6141440   -0.0012469   -2.4401036  
C   -6.6996197   -0.0016766   -3.4365871  
O   -7.0134390   -0.0024350   -4.7433227  
C   -5.2335518   -0.0013776   -3.1558629  
O   -4.4582985   -0.0019247   -4.1120022  
C   -4.7577215   -0.0006022   -1.7610478  
H   -4.7307116    0.0007629    1.2865897  
H   -8.6761776   -0.0013901   -2.6375732  
H   -6.1552189   -0.0025520   -5.2044222  
C   -6.6583332    0.0020047    3.5992158  
C   -7.4245177    0.0022153    2.4566624  
C   -8.7894998    0.0019666    2.8706954  
C   -8.7941926    0.0018920    4.2891118  
N   -7.4840109   -0.0000331    4.6990344  
C   -9.9726283    0.0019608    5.0414939  
C  -11.1681043    0.0024144    4.3493845  
O  -12.3485952    0.0028519    5.0345526  
C  -11.1840030    0.0021199    2.9342647  
O  -12.4528560    0.0022176    2.3926417  
C  -10.0218331    0.0017789    2.1913737  
H   -7.1747292    0.0100276    5.6541392  
H   -9.9829662    0.0017604    6.1227402  
H  -13.0499141    0.0028213    4.3701601  
H  -12.3742508    0.0020304    1.4337753  
H  -10.0654407    0.0013769    1.1085174  
H   -5.5882061    0.0017012    3.7166372  
C    0.8175213    0.6860729    2.3021913  
C    0.0000000    0.0000000    1.4700000  
C   -0.8887526   -0.7456559    2.3478473  
C   -0.4549825   -0.3816753    3.7138435  
N    0.5448156    0.4573574    3.6934124  
C   -1.0945674   -0.9182058    4.8835240  
C   -2.1210866   -1.7789155    4.6970523  
O   -2.8083856   -2.3554314    5.6976972  
C   -2.5824069   -2.1655116    3.3310774  
O   -3.5227682   -2.9541547    3.2362962  
C   -1.9100805   -1.6015804    2.1470656  
H   -0.7567140   -0.6349833    5.8697035  
H   -3.4728268   -2.9124471    5.2533954  
H   -2.2742832   -1.9066565    1.1752040  
H    1.6189533    1.3585343    2.0405121  
