62

C    3.3003552    0.0005280   -1.4738977  
C    2.5232825    0.0003502   -2.6090739  
C    1.1623213   -0.0001314   -2.1820100  
C    1.1711888    0.0000585   -0.7636135  
N    2.4852303   -0.0014918   -0.3662347  
C    0.0000000    0.0000000    0.0000000  
C   -1.2020377    0.0000522   -0.6806483  
O   -2.3759246    0.0003491    0.0157740  
C   -1.2314651   -0.0005108   -2.0955516  
O   -2.5054381   -0.0008032   -2.6250187  
C   -0.0764503   -0.0007266   -2.8495194  
H    2.8036264    0.0088183    0.5858671  
H   -3.0835633    0.0000347   -0.6418827  
H   -2.4360031   -0.0011520   -3.5845931  
H   -0.1304079   -0.0013415   -3.9319088  
H    4.3715556    0.0004899   -1.3667118  
C    5.9080461   -2.1212781   -4.5066903  
C    5.7372507   -1.6233267   -5.7776506  
C    4.6108310   -0.7493032   -5.7345061  
C    4.1315423   -0.7536520   -4.3995197  
N    4.9405897   -1.5984024   -3.6808707  
C    3.0267451   -0.0008943   -3.9901690  
C    2.3944508    0.7705372   -4.9458227  
O    1.3109381    1.5252438   -4.6002320  
C    2.8575159    0.7878063   -6.2830172  
O    2.1214437    1.6053003   -7.1156310  
C    3.9471990    0.0452343   -6.6876206  
H    6.3485819   -1.8616759   -6.6311481  
H    4.8499648   -1.7941730   -2.7003391  
H    1.0265047    1.9789031   -5.4043193  
H    2.4998705    1.5596287   -7.9989831  
H    4.2786883    0.0784993   -7.7188748  
C    9.3662884   -4.3483470   -6.2228385  
C    8.2908630   -3.5336997   -6.1161140  
C    7.8913600   -3.6208907   -4.7199430  
C    8.8609752   -4.5577004   -4.1126390  
N    9.7280383   -4.9873675   -4.9887535  
C    8.8057506   -4.9140211   -2.7215702  
C    7.8266349   -4.3593715   -1.9712168  
O    7.6566947   -4.6023763   -0.6604503  
C    6.8333439   -3.4102392   -2.5548971  
O    5.9690745   -2.9437083   -1.8128676  
C    6.9109979   -3.0605609   -3.9844492  
H    7.8261389   -2.9461037   -6.8893146  
H    9.5271503   -5.6013399   -2.3043335  
H    6.8833407   -4.0667090   -0.4071969  
H    9.9553435   -4.5589206   -7.1012731  
C    2.5528530    2.1414826    2.8079335  
C    2.0663498    1.7338582    4.0032312  
C    0.9804344    0.8229586    3.6752840  
C    0.9495562    0.7966882    2.1971295  
N    1.8690446    1.5676019    1.6831036  
C    0.0000000    0.0000000    1.4700000  
C   -0.8785127   -0.7372425    2.1869543  
O   -1.8187535   -1.5261249    1.6395491  
C   -0.8723269   -0.7321790    3.6796354  
O   -1.7010379   -1.4274584    4.2670412  
C    0.1115397    0.0933559    4.4024240  
H    2.4028853    2.0163452    4.9860947  
H   -2.2861435   -1.9184361    2.3990168  
H    0.0832434    0.0693689    5.4835595  
H    3.3664920    2.8238276    2.6198634  
