58

C   -2.7898012    1.7245737   -1.4499646  
C   -2.1751312    1.3444851   -2.5996552  
C   -0.9898512    0.6119592   -2.2210361  
C   -0.9642038    0.5963042   -0.7459475  
N   -2.0822594    1.2878743   -0.3402720  
C    0.0000000    0.0000000    0.0000000  
C    1.0850297   -0.6709800   -0.6964416  
O    2.0008119   -1.2372626   -0.1142317  
C    1.0781874   -0.6666680   -2.2584086  
O    1.9866339   -1.2280880   -2.8557302  
C   -0.0155348    0.0093995   -2.9516300  
H   -0.0129997    0.0076486   -4.0331632  
H   -3.7000256    2.2871492   -1.3200018  
H   -2.3449740    1.4486662    0.6148062  
C   -3.9891841    4.9220661   -4.4453418  
C   -3.4334311    4.0359821   -3.5792769  
C   -3.1760505    2.8253757   -4.3229315  
C   -3.6306445    3.0806443   -5.7031389  
N   -4.1131710    4.3690536   -5.7108634  
C   -3.5582265    2.1797785   -6.7155130  
C   -2.9951664    0.8713756   -6.4264092  
O   -2.8868574   -0.0084603   -7.2704824  
C   -2.5076179    0.5791349   -4.9715219  
O   -2.0320644   -0.5189897   -4.7161158  
C   -2.6374098    1.6302843   -3.9654948  
H   -3.2274741    4.2104471   -2.5382402  
H   -3.8972534    2.3872007   -7.7209714  
H   -4.4945848    4.8364072   -6.5128304  
C   -3.9185128    7.2897095   -0.7879157  
C   -4.4607035    8.4606336   -1.1960142  
C   -4.7556997    8.2657109   -2.6072132  
C   -4.3152550    6.8832595   -2.8925554  
N   -3.8237053    6.3061043   -1.8298884  
C   -4.4386983    6.2999952   -4.2000917  
C   -4.9780005    7.0629777   -5.1780208  
O   -5.1530186    6.6472151   -6.4439393  
C   -5.4323088    8.4615010   -4.9213139  
O   -5.9137033    9.0979300   -5.8585642  
C   -5.2949906    9.0371550   -3.5716137  
H   -4.6385877    9.3471182   -0.6115661  
H   -5.5556095    7.4074769   -6.9011865  
H   -5.6361139   10.0534553   -3.4266961  
H   -3.5649741    7.0291055    0.1970052  
C    0.8175213    0.6860729    2.3021913  
C    0.0000000    0.0000000    1.4700000  
C   -0.8887526   -0.7456559    2.3478473  
C   -0.4549825   -0.3816753    3.7138435  
N    0.5448156    0.4573574    3.6934124  
C   -1.0945674   -0.9182058    4.8835240  
C   -2.1210866   -1.7789155    4.6970523  
O   -2.8083856   -2.3554314    5.6976972  
C   -2.5824069   -2.1655116    3.3310774  
O   -3.5227682   -2.9541547    3.2362962  
C   -1.9100805   -1.6015804    2.1470656  
H   -0.7567140   -0.6349833    5.8697035  
H   -3.4728268   -2.9124471    5.2533954  
H   -2.2742832   -1.9066565    1.1752040  
H    1.6189533    1.3585343    2.0405121  
