58

C   -0.0202922   -0.6967075   -5.1400949  
C   -1.0641734    0.0073898   -4.6315339  
C   -1.6428387    0.7514421   -5.7253202  
C   -0.8448102    0.4207138   -6.9213806  
N    0.1229397   -0.4613331   -6.4990735  
C   -1.0739329    0.9222831   -8.1613948  
C   -2.1802191    1.8499248   -8.3291652  
O   -2.4675345    2.3561930   -9.4059405  
C   -3.0385144    2.2145173   -7.0760864  
O   -3.9723188    2.9946741   -7.2050166  
C   -2.6944049    1.6092961   -5.7918944  
H   -0.4766432    0.6666084   -9.0255627  
H   -3.2937356    1.8667792   -4.9292076  
H    0.6565474   -1.3675747   -4.6363936  
C    1.8432444   -4.5231664   -6.6952726  
C    1.1187105   -3.4239169   -6.3624413  
C    1.5354020   -2.3614022   -7.2468991  
C    2.5694817   -2.9358732   -8.1286317  
N    2.7097462   -4.2489335   -7.7425129  
C    3.2142354   -2.2498028   -9.1060284  
C    2.8666643   -0.8522664   -9.3025511  
O    3.3908479   -0.1492401  -10.1565336  
C    1.7744464   -0.2231742   -8.3799951  
O    1.4736992    0.9526288   -8.5358776  
C    1.1497553   -1.0636057   -7.3615219  
H    0.3771351   -3.3641468   -5.5858416  
H    3.9696701   -2.6901228   -9.7419123  
H    1.8172388   -5.5104684   -6.2634763  
H    3.3425067   -4.9072225   -8.1588265  
C    1.1319248    0.0015675   -0.8009270  
C    0.7969916    0.0034959   -2.1169404  
C   -0.6453336    0.0035703   -2.1842672  
C   -1.1266831    0.0015415   -0.7896027  
N    0.0000000    0.0000000    0.0000000  
C   -2.4346129    0.0013924   -0.4276297  
C   -3.4350110    0.0031352   -1.4820184  
O   -4.6384610    0.0030897   -1.2583919  
C   -2.9478958    0.0050460   -2.9661075  
O   -3.7809377    0.0062160   -3.8623775  
C   -1.5113821    0.0053068   -3.2312125  
H    1.4821240    0.0045436   -2.9459192  
H   -2.7664565    0.0000185    0.6013447  
H    2.1104318    0.0009428   -0.3488058  
C    0.8175213    0.6860729    2.3021913  
C    0.0000000    0.0000000    1.4700000  
C   -0.8887526   -0.7456559    2.3478473  
C   -0.4549825   -0.3816753    3.7138435  
N    0.5448156    0.4573574    3.6934124  
C   -1.0945674   -0.9182058    4.8835240  
C   -2.1210866   -1.7789155    4.6970523  
O   -2.8083856   -2.3554314    5.6976972  
C   -2.5824069   -2.1655116    3.3310774  
O   -3.5227682   -2.9541547    3.2362962  
C   -1.9100805   -1.6015804    2.1470656  
H   -0.7567140   -0.6349833    5.8697035  
H   -3.4728268   -2.9124471    5.2533954  
H   -2.2742832   -1.9066565    1.1752040  
H    1.6189533    1.3585343    2.0405121  
