58

C    1.1319243    0.0015678   -0.8009267  
C    0.7969910    0.0034958   -2.1169402  
C   -0.6453345    0.0035698   -2.1842666  
C   -1.1266834    0.0015411   -0.7896024  
N    0.0000000    0.0000000    0.0000000  
C   -2.4346133    0.0013916   -0.4276285  
C   -3.4350116    0.0031339   -1.4820169  
O   -4.6384614    0.0030880   -1.2583901  
C   -2.9478966    0.0050444   -2.9661061  
O   -3.7809389    0.0062140   -3.8623764  
C   -1.5113834    0.0053060   -3.2312118  
H   -2.7664564    0.0000178    0.6013455  
H   -1.1823541    0.0068383   -4.2614841  
H    2.1104314    0.0009434   -0.3488059  
C    4.5548732   -2.1353177   -2.6566585  
C    4.9411004   -1.7265161   -3.8876292  
C    3.8945926   -0.8159074   -4.3259367  
C    2.9291030   -0.7910765   -3.2062057  
N    3.3108553   -1.5625151   -2.2248102  
C    1.7334685    0.0049281   -3.2500365  
C    1.5125986    0.7428921   -4.3617741  
O    0.4386444    1.5312657   -4.5382103  
C    2.4682964    0.7392828   -5.5084165  
O    2.2033094    1.4351560   -6.4886015  
C    3.6876298   -0.0855736   -5.4394039  
H    5.8268191   -2.0080542   -4.4310577  
H    0.5619641    1.9243290   -5.4210726  
H    5.0626354   -2.8178671   -1.9938786  
C    6.0166116   -3.2235607   -7.4949610  
C    5.1981083   -2.5419173   -6.6526487  
C    5.2188672   -1.1603543   -7.0717998  
C    6.1230178   -1.0925046   -8.2357137  
N    6.5737434   -2.3761539   -8.4406064  
C    6.4093650    0.0428763   -8.9217326  
C    5.7855897    1.2807002   -8.4844321  
O    5.9798302    2.3557611   -9.0365332  
C    4.8247596    1.2322584   -7.2538777  
O    4.2940067    2.2681302   -6.8763442  
C    4.5938981   -0.0515457   -6.5963045  
H    4.6432785   -2.9592618   -5.8313071  
H    7.0753233    0.0709042   -9.7729807  
H    6.2598475   -4.2736268   -7.5043080  
H    7.2079705   -2.6548584   -9.1666409  
C    2.3971438    2.0127888    3.1728260  
C    1.9431056    1.6308205    1.9564670  
C    0.8496017    0.7127664    2.2356185  
C    0.7794028    0.6545384    3.7115134  
N    1.6840587    1.4146091    4.2663826  
C   -0.1885723   -0.1578550    4.3957118  
C   -1.0476298   -0.8789867    3.6398520  
O   -2.0015663   -1.6796266    4.1448486  
C   -1.0022026   -0.8410666    2.1483229  
O   -1.8147390   -1.5232959    1.5241687  
C    0.0000000    0.0000000    1.4700000  
H    2.3054237    1.9346118    0.9892483  
H   -0.2170646   -0.1815267    5.4753125  
H   -2.4487139   -2.0549881    3.3649027  
H    3.2048689    2.6911772    3.3971983  
