58

C    2.0060354   -2.0933383   -5.2079945  
C    1.0681402   -1.6309437   -4.3416125  
C    0.2140994   -0.7346502   -5.0846522  
C    0.7350363   -0.7126398   -6.4648444  
N    1.8215798   -1.5565851   -6.4731476  
C    0.2009228    0.0171136   -7.4767173  
C   -0.9646764    0.8356538   -7.1870526  
O   -1.5183200    1.5285628   -8.0306497  
C   -1.5330618    0.8277887   -5.7321706  
O   -2.5138748    1.5132038   -5.4762938  
C   -0.8712826    0.0001710   -4.7267111  
H    0.9842756   -1.8882189   -3.3007524  
H    0.5983678    0.0189967   -8.4821751  
H    2.3914344   -1.7539297   -7.2752499  
C    3.3987859   -3.6304128   -3.7464846  
C    4.4829846   -4.4418125   -3.8475758  
C    4.9361022   -4.3703476   -5.2166675  
C    4.0204646   -3.4441382   -5.9098746  
N    3.1114194   -3.0309915   -4.9633881  
C    4.1131320   -3.1096670   -7.2218369  
C    5.1861697   -3.7015685   -8.0033595  
O    5.3537772   -3.4635465   -9.1922896  
C    6.1673715   -4.6853651   -7.2897830  
O    7.0744712   -5.1901163   -7.9375919  
C    5.9660523   -4.9681578   -5.8708571  
H    4.9158011   -5.0241018   -3.0537106  
H    3.4311548   -2.4280687   -7.7109595  
H    6.6498856   -5.6502397   -5.3841737  
H    2.7854063   -3.4200815   -2.8854296  
C    1.0965514    0.0001359   -0.8010305  
C    0.0000000    0.0000000    0.0000000  
C   -1.1546563    0.0001470   -0.8669513  
C   -0.6372014    0.0003519   -2.2486282  
N    0.7342871    0.0007337   -2.1395014  
C   -1.4147739    0.0001352   -3.3608717  
C   -2.8576049   -0.0001048   -3.1854462  
O   -3.6427779   -0.0002494   -4.1244907  
C   -3.4275840   -0.0000725   -1.7311666  
O   -4.6406831    0.0000333   -1.5710060  
C   -2.4891867   -0.0001091   -0.6116744  
H   -2.8919122   -0.0002918    0.3920866  
H    2.1388272    0.0000663   -0.5261648  
H    1.3735872   -0.0006099   -2.9130262  
C    0.0000000    0.0000000    1.4700000  
C    1.0662921    0.0000102    2.3034270  
C    0.4961870   -0.0000064    3.6418889  
C   -0.9663858    0.0000850    3.4240247  
N   -1.2632773    0.0000084    2.1528658  
C   -1.8985362    0.0000517    4.5177257  
C   -1.3925775   -0.0004564    5.7720543  
O   -2.1456383   -0.0005410    6.8851312  
C    0.0786232   -0.0009323    6.0245000  
O    0.4683759   -0.0012588    7.1921102  
C    1.0143166   -0.0008442    4.8859032  
H    2.1107198   -0.0000632    2.0421868  
H   -2.9622183    0.0003270    4.3293377  
H   -1.5042274   -0.0009692    7.6184419  
H    2.0724152   -0.0013148    5.1109744  
