58

C    4.7207756    1.0595858   -1.3068123  
C    3.4838910    0.6726612   -1.7123748  
C    3.1187141    1.5236840   -2.8201842  
C    4.2523794    2.4447084   -3.0282880  
N    5.1904366    2.1114876   -2.0786028  
C    4.2961812    3.4063276   -3.9848832  
C    3.1502064    3.5434831   -4.8683232  
O    3.0935289    4.3791401   -5.7609410  
C    1.9384332    2.5789000   -4.6658613  
O    0.9678554    2.6850990   -5.4033984  
C    2.0077943    1.5820935   -3.6003016  
H    2.8945047   -0.1184912   -1.2842215  
H    5.1375761    4.0715414   -4.1207325  
H    5.3286234    0.6649225   -0.5089079  
C    0.0000000    0.0000000    0.0000000  
C    0.8280683    0.6523600   -0.8560397  
C    0.4008361    0.3158313   -2.1935958  
C   -0.7522979   -0.5925525   -2.0455726  
N   -0.9438650   -0.7440119   -0.6915963  
C   -1.4416244   -1.1350465   -3.0810598  
C   -1.0195149   -0.8022120   -4.4314598  
O   -1.5757002   -1.2399500   -5.4301309  
C    0.1994405    0.1577077   -4.6117574  
O    0.5641536    0.4448836   -5.7439123  
C    0.8619042    0.6793565   -3.4189134  
H    1.6450616    1.2957319   -0.5817992  
H   -2.2847998   -1.7991042   -2.9507045  
H   -1.6603680   -1.3065936   -0.2706780  
C    6.4936870    2.7708739   -1.9123231  
C    7.4584438    2.4931972   -1.0047337  
C    8.5243082    3.4419302   -1.2881745  
C    8.0213876    4.2377892   -2.4284653  
N    6.8315029    3.8490490   -2.7986603  
C    8.7935584    5.2979553   -3.0157348  
C   10.0125680    5.5517862   -2.4876033  
O   10.8398321    6.5112519   -2.9360460  
C   10.5478167    4.7664180   -1.3365751  
O   11.6654032    5.0522344   -0.9070055  
C    9.7366154    3.6839129   -0.7517165  
H    7.4480421    1.7379086   -0.2375917  
H    8.4013413    5.8631911   -3.8485513  
H   11.6256494    6.4485591   -2.3635836  
H   10.1600923    3.1386711    0.0811151  
C    1.0672568    0.0000697    2.3021913  
C    0.0000000    0.0000000    1.4700000  
C   -1.1601224    0.0000736    2.3478473  
C   -0.5938729    0.0000769    3.7138435  
N    0.7113367    0.0001554    3.6934124  
C   -1.4286986    0.0001879    4.8835240  
C   -2.7683114    0.0006799    4.6970523  
O   -3.6653903    0.0008304    5.6976972  
C   -3.3702025    0.0010610    3.3310774  
O   -4.5974910    0.0013779    3.2362962  
C   -2.4926826    0.0008943    2.1470656  
H   -0.9878360   -0.0000190    5.8697035  
H   -4.5324246    0.0012261    5.2533954  
H   -2.9677772    0.0012974    1.1752040  
H    2.1134392    0.0000545    2.0405121  
