64

C    4.6027286   -2.0944966   -2.9150978  
C    3.4411565   -1.6373418   -2.3369738  
C    2.8377887   -0.7405117   -3.2676952  
C    3.6836208   -0.6899840   -4.4052108  
N    4.7469283   -1.5221604   -4.1572680  
C    3.3988812    0.0972720   -5.5250057  
C    2.2389983    0.8469474   -5.4960812  
O    1.9125736    1.6330035   -6.5631221  
C    1.3824833    0.8101281   -4.3700960  
O    0.2670646    1.6125636   -4.4937157  
C    1.6628945    0.0339172   -3.2649299  
H    3.0744459   -1.9151391   -1.3636571  
H    5.5062366   -1.6979111   -4.7901526  
H    4.0395081    0.1402706   -6.3950345  
H    1.0776859    2.0643820   -6.3391996  
H   -0.2575675    1.5298020   -3.6915214  
C    4.8801332   -4.3205929    0.8962571  
C    6.0677537   -4.9648355    0.6374587  
C    6.4925008   -4.5499165   -0.6594730  
C    5.5158819   -3.6443115   -1.1473477  
N    4.5498590   -3.5290325   -0.1787781  
C    5.6101309   -3.0338605   -2.4016426  
C    6.7104668   -3.3430148   -3.1774403  
O    6.8523645   -2.7749475   -4.4103959  
C    7.6953460   -4.2445214   -2.7082733  
O    8.7298361   -4.4498040   -3.5976737  
C    7.6028776   -4.8473251   -1.4710977  
H    6.5660247   -5.6504484    1.3012775  
H    3.7346582   -2.9460709   -0.2386505  
H    7.6760544   -3.1214127   -4.7774949  
H    9.3506511   -5.0705246   -3.2041003  
H    8.3727922   -5.5338207   -1.1387797  
H    4.2417959   -4.3641958    1.7620416  
C    1.1243410    0.0100105   -0.7919003  
C    0.7474072    0.0234665   -2.1148542  
C   -0.6787384    0.0234379   -2.1414698  
C   -1.1201748    0.0098411   -0.7935547  
N    0.0000000    0.0000000    0.0000000  
C   -2.4730818    0.0063307   -0.4408240  
C   -3.3971962    0.0170429   -1.4675058  
O   -4.7313520    0.0145490   -1.1793468  
C   -2.9763654    0.0303020   -2.8186325  
O   -4.0166484    0.0394464   -3.7247625  
C   -1.6418567    0.0334992   -3.1673480  
H   -2.8160166   -0.0041569    0.5845966  
H   -5.1938823    0.0230023   -2.0274386  
H   -3.6464680    0.0481700   -4.6127343  
H   -1.3497475    0.0435647   -4.2109234  
H    2.1062466    0.0053162   -0.3505405  
C    0.8175213    0.6860729    2.3021913  
C    0.0000000    0.0000000    1.4700000  
C   -0.8887526   -0.7456559    2.3478473  
C   -0.4549825   -0.3816753    3.7138435  
N    0.5448156    0.4573574    3.6934124  
C   -1.0945674   -0.9182058    4.8835240  
C   -2.1210866   -1.7789155    4.6970523  
O   -2.8083856   -2.3554314    5.6976972  
C   -2.5824069   -2.1655116    3.3310774  
O   -3.5227682   -2.9541547    3.2362962  
C   -1.9100805   -1.6015804    2.1470656  
H   -0.7567140   -0.6349833    5.8697035  
H   -3.4728268   -2.9124471    5.2533954  
H   -2.2742832   -1.9066565    1.1752040  
H    1.6189533    1.3585343    2.0405121  
