58

C   -6.5830809   -0.0034192    0.2722613  
C   -5.5459944   -0.0045667    1.1417612  
C   -6.1616607   -0.0052336    2.4598868  
C   -7.6159027   -0.0042126    2.1919994  
N   -7.8690302   -0.0032277    0.9114073  
C   -8.5850079   -0.0045304    3.2530932  
C   -8.1223585   -0.0061989    4.5240323  
O   -8.9131441   -0.0066766    5.6106321  
C   -6.6606804   -0.0076336    4.8267771  
O   -6.3111944   -0.0089972    6.0070652  
C   -5.6864943   -0.0072310    3.7209354  
H   -4.4932230   -0.0050074    0.9164880  
H   -9.6416045   -0.0035578    3.0283423  
H   -8.2972564   -0.0079663    6.3655053  
H   -4.6367363   -0.0084220    3.9821557  
C   -3.3460096   -0.0004265   -2.7913646  
C   -3.9807082   -0.0008723   -1.5960666  
C   -5.3980827   -0.0011001   -1.9240138  
C   -5.4386236   -0.0006192   -3.4021678  
N   -4.2387207   -0.0003038   -3.9161945  
C   -6.6781271   -0.0007186   -4.1292978  
C   -7.8249971   -0.0016620   -3.4123433  
O   -9.0523464   -0.0018583   -3.9597483  
C   -7.8170030   -0.0025381   -1.9196624  
O   -8.8987492   -0.0032514   -1.3322566  
C   -6.5326742   -0.0023733   -1.1968739  
H   -3.5413277   -0.0011177   -0.6132035  
H   -6.6781274   -0.0001523   -5.2095336  
H   -9.6625614   -0.0026200   -3.2002807  
C    0.0000000    0.0000000    0.0000000  
C    1.0662919   -0.0000103   -0.8334269  
C    0.4961869    0.0000064   -2.1718889  
C   -0.9663859   -0.0000850   -1.9540246  
N   -1.2632774   -0.0000084   -0.6828657  
C   -1.8985363   -0.0000518   -3.0477257  
C   -1.3925778    0.0004564   -4.3020545  
O   -2.1456384    0.0005409   -5.4151311  
C    0.0786230    0.0009323   -4.5544998  
O    0.4683758    0.0012588   -5.7221098  
C    1.0143164    0.0008442   -3.4159030  
H    2.1107195    0.0000633   -0.5721867  
H   -1.5042275    0.0009691   -6.1484418  
H    2.0724152    0.0013148   -3.6409744  
C    1.0672568    0.0000697    2.3021913  
C    0.0000000    0.0000000    1.4700000  
C   -1.1601224    0.0000736    2.3478473  
C   -0.5938729    0.0000769    3.7138435  
N    0.7113367    0.0001554    3.6934124  
C   -1.4286986    0.0001879    4.8835240  
C   -2.7683114    0.0006799    4.6970523  
O   -3.6653903    0.0008304    5.6976972  
C   -3.3702025    0.0010610    3.3310774  
O   -4.5974910    0.0013779    3.2362962  
C   -2.4926826    0.0008943    2.1470656  
H   -0.9878360   -0.0000190    5.8697035  
H   -4.5324246    0.0012261    5.2533954  
H   -2.9677772    0.0012974    1.1752040  
H    2.1134392    0.0000545    2.0405121  
