60

C    3.3003542    0.0005275   -1.4738990  
C    2.5232811    0.0003496   -2.6090753  
C    1.1623198   -0.0001321   -2.1820102  
C    1.1711882    0.0000582   -0.7636142  
N    2.4852300   -0.0014919   -0.3662357  
C    0.0000000    0.0000000    0.0000000  
C   -1.2020384    0.0000519   -0.6806475  
O   -2.3759249    0.0003492    0.0157746  
C   -1.2314659   -0.0005114   -2.0955505  
O   -2.5054388   -0.0008041   -2.6250179  
C   -0.0764518   -0.0007276   -2.8495194  
H    2.8919949   -0.0005621   -3.6205303  
H    2.8036264    0.0088184    0.5858659  
H   -3.0835637    0.0000345   -0.6418813  
H   -2.4360051   -0.0011532   -3.5845918  
H    4.3715547    0.0004895   -1.3667137  
C    2.3339065   -2.1433070   -5.7798816  
C    1.7884031   -1.7364555   -6.9497008  
C    0.7199603   -0.8255810   -6.5686010  
C    0.7627104   -0.7984778   -5.0907573  
N    1.7068228   -1.5689211   -4.6227204  
C   -0.1496420   -0.0015617   -4.3176960  
C   -1.0629253    0.7351032   -4.9904312  
O   -1.9749207    1.5241133   -4.3973308  
C   -1.1310654    0.7291938   -6.4815658  
O   -1.9881496    1.4239786   -7.0273693  
C   -0.1842226   -0.0965599   -7.2519837  
H   -2.4796315    1.9159025   -5.1328038  
H   -0.2663181   -0.0731919   -8.3303830  
H    3.1560518   -2.8253870   -5.6321752  
C    2.1806087   -2.1228368   -8.3127062  
C    3.1669760   -2.9659435   -8.7131149  
C    3.1328256   -2.9985996  -10.1562370  
C    2.0378767   -2.0989350  -10.5667015  
N    1.5007629   -1.6001862   -9.4023785  
C    1.6837143   -1.8564343  -11.8541283  
C    2.4306644   -2.5263880  -12.9056800  
O    2.1884221   -2.3736237  -14.0957567  
C    3.5941711   -3.4837433  -12.4939416  
O    4.2299358   -4.0535955  -13.3704881  
C    3.8820622   -3.6647566  -11.0733062  
H    3.8413895   -3.5037573   -8.0708248  
H    0.8773299   -1.1927453  -12.1337191  
H    4.6893729   -4.3291393  -10.7965949  
H    0.7344002   -0.9542747   -9.3520421  
C    2.5528530    2.1414826    2.8079335  
C    2.0663498    1.7338582    4.0032312  
C    0.9804344    0.8229586    3.6752840  
C    0.9495562    0.7966882    2.1971295  
N    1.8690446    1.5676019    1.6831036  
C    0.0000000    0.0000000    1.4700000  
C   -0.8785127   -0.7372425    2.1869543  
O   -1.8187535   -1.5261249    1.6395491  
C   -0.8723269   -0.7321790    3.6796354  
O   -1.7010379   -1.4274584    4.2670412  
C    0.1115397    0.0933559    4.4024240  
H    2.4028853    2.0163452    4.9860947  
H   -2.2861435   -1.9184361    2.3990168  
H    0.0832434    0.0693689    5.4835595  
H    3.3664920    2.8238276    2.6198634  
