60

C    3.3041272    0.0001178   -1.5420437  
C    2.5845373   -0.0004779   -0.3695863  
C    1.2040006   -0.0000007   -0.7283594  
C    1.1422373    0.0006039   -2.1454379  
N    2.4348636    0.0026111   -2.6077468  
C   -0.0655185    0.0008799   -2.8497924  
C   -1.2321770    0.0002325   -2.1101400  
O   -2.4392818    0.0001148   -2.7472522  
C   -1.1911211   -0.0000007   -0.6955266  
O   -2.4371525   -0.0002319   -0.1032866  
C    0.0000000    0.0000000    0.0000000  
H    3.0031536   -0.0000661    0.6222576  
H    2.7054625   -0.0071097   -3.5745267  
H   -3.1132991   -0.0000648   -2.0551789  
H   -2.3200280   -0.0004071    0.8516406  
H    4.3686620    0.0004072   -1.7024302  
C   -0.1387085    0.0017019   -4.3179685  
C    0.8715312    0.0021967   -5.2254326  
C    0.2617550    0.0029742   -6.5342516  
C   -1.1970056    0.0029205   -6.3133249  
N   -1.3734978    0.0017347   -4.9488692  
C   -2.1246679    0.0039286   -7.3038525  
C   -1.6550235    0.0049216   -8.6793407  
O   -2.4116513    0.0058065   -9.6415337  
C   -0.1143777    0.0047445   -8.9366650  
O    0.2928821    0.0052677  -10.0905283  
C    0.7871604    0.0038970   -7.7872819  
H    1.9238023    0.0018530   -5.0033081  
H    1.8524573    0.0039850   -7.9740081  
H   -2.2623846    0.0029668   -4.4831156  
C   -4.4577752    2.1434780   -4.3094516  
C   -5.7184194    1.7363347   -4.5861985  
C   -5.5798615    0.8263139   -5.7127703  
C   -4.1284337    0.7999728   -5.9942786  
N   -3.4655473    1.5700908   -5.1748345  
C   -3.5733100    0.0040243   -7.0541797  
C   -4.4292097   -0.7324432   -7.7987501  
O   -4.0496151   -1.5205819   -8.8189394  
C   -5.8991515   -0.7272876   -7.5391253  
O   -6.6189177   -1.4218418   -8.2565869  
C   -6.4441639    0.0974788   -6.4461265  
H   -6.6297857    2.0186069   -4.0873904  
H   -4.8775126   -1.9124561   -9.1508623  
H   -7.5144024    0.0735857   -6.2904051  
H   -4.1341047    2.8251362   -3.5390275  
C    0.0000000    0.0000000    1.4700000  
C    1.0662921    0.0000102    2.3034270  
C    0.4961870   -0.0000064    3.6418889  
C   -0.9663858    0.0000850    3.4240247  
N   -1.2632773    0.0000084    2.1528658  
C   -1.8985362    0.0000517    4.5177257  
C   -1.3925775   -0.0004564    5.7720543  
O   -2.1456383   -0.0005410    6.8851312  
C    0.0786232   -0.0009323    6.0245000  
O    0.4683759   -0.0012588    7.1921102  
C    1.0143166   -0.0008442    4.8859032  
H    2.1107198   -0.0000632    2.0421868  
H   -2.9622183    0.0003270    4.3293377  
H   -1.5042274   -0.0009692    7.6184419  
H    2.0724152   -0.0013148    5.1109744  
