60

C    3.3041271    0.0001182   -1.5420445  
C    2.5845370   -0.0004778   -0.3695866  
C    1.2040002   -0.0000004   -0.7283598  
C    1.1422367    0.0006046   -2.1454380  
N    2.4348633    0.0026117   -2.6077474  
C   -0.0655190    0.0008806   -2.8497922  
C   -1.2321773    0.0002330   -2.1101398  
O   -2.4392825    0.0001155   -2.7472516  
C   -1.1911212   -0.0000004   -0.6955263  
O   -2.4371525   -0.0002319   -0.1032860  
C    0.0000000    0.0000000    0.0000000  
H    3.0031539   -0.0000662    0.6222567  
H    2.7054620   -0.0071089   -3.5745272  
H   -3.1132993   -0.0000644   -2.0551784  
H   -2.3200277   -0.0004074    0.8516409  
H    4.3686615    0.0004080   -1.7024310  
C    0.6611968   -0.7016909   -5.1602644  
C   -0.1387094    0.0017028   -4.3179691  
C   -1.0659770    0.7435480   -5.1393558  
C   -0.7383890    0.4122907   -6.5392644  
N    0.3175287   -0.4679235   -6.4831343  
C   -1.3893445    0.9119203   -7.6201588  
C   -2.4856352    1.8378831   -7.3893452  
O   -3.1337411    2.3423499   -8.2969644  
C   -2.8496776    2.2030003   -5.9149068  
O   -3.7705855    2.9817573   -5.7082029  
C   -2.0753690    1.5999289   -4.8329627  
H   -2.3339032    1.8577623   -3.8149225  
H    1.4729766   -1.3710011   -4.9259002  
H    0.7677081   -0.8789282   -7.2802922  
C   -0.2040841   -2.8882207   -9.5307913  
C   -0.5826735   -1.9320765   -8.6439242  
C   -0.6989712   -0.6961784   -9.3813968  
C   -0.3546616   -1.0129526  -10.7806449  
N   -0.0641651   -2.3575520  -10.8041941  
C   -0.3461386   -0.1099777  -11.7936941  
C   -0.6994536    1.2657358  -11.4852848  
O   -0.7211316    2.1529043  -12.3283529  
C   -1.0673092    1.6237747  -10.0100574  
O   -1.3661618    2.7788093   -9.7383180  
C   -1.0411388    0.5638100   -9.0052482  
H   -0.7600323   -2.0760833   -7.5930106  
H   -0.0906424   -0.3631164  -12.8132783  
H   -0.0153170   -3.9358353   -9.3612021  
H    0.2057385   -2.8742400  -11.6210366  
C    0.8175213    0.6860729    2.3021913  
C    0.0000000    0.0000000    1.4700000  
C   -0.8887526   -0.7456559    2.3478473  
C   -0.4549825   -0.3816753    3.7138435  
N    0.5448156    0.4573574    3.6934124  
C   -1.0945674   -0.9182058    4.8835240  
C   -2.1210866   -1.7789155    4.6970523  
O   -2.8083856   -2.3554314    5.6976972  
C   -2.5824069   -2.1655116    3.3310774  
O   -3.5227682   -2.9541547    3.2362962  
C   -1.9100805   -1.6015804    2.1470656  
H   -0.7567140   -0.6349833    5.8697035  
H   -3.4728268   -2.9124471    5.2533954  
H   -2.2742832   -1.9066565    1.1752040  
H    1.6189533    1.3585343    2.0405121  
