58

C    3.2798088    0.0005857   -1.4499647  
C    2.5571151    0.0005566   -2.5996551  
C    1.1637440    0.0001548   -2.2210359  
C    1.1336966   -0.0000200   -0.7459469  
N    2.4483514   -0.0001428   -0.3402720  
C    0.0000000    0.0000000    0.0000000  
C   -1.2757368   -0.0000186   -0.6964421  
O   -2.3524599   -0.0000640   -0.1142316  
C   -1.2676492   -0.0000873   -2.2584086  
O   -2.3355761   -0.0004101   -2.8557301  
C    0.0181565    0.0001760   -2.9516296  
H    2.9547360    0.0006076   -3.5989103  
H    0.0150795    0.0003318   -4.0331631  
H    2.7563627    0.0012824    0.6148063  
C    6.5739165    0.0018723   -4.3537883  
C    7.6280852    0.0019471   -3.4977490  
C    7.0842300    0.0017738   -2.1601926  
C    5.6162792    0.0015613   -2.3082153  
N    5.3720704    0.0020317   -3.6621915  
C    4.7390852    0.0009614   -1.2727277  
C    5.2766314    0.0007201    0.0776721  
O    4.5688486    0.0002471    1.0763431  
C    6.8281785    0.0011908    0.2579690  
O    7.2923833    0.0012996    1.3901239  
C    7.6713715    0.0015460   -0.9348754  
H    8.6679918    0.0022880   -3.7719899  
H    8.7446443    0.0016656   -0.8014211  
H    4.4610968    0.0004682   -4.0831093  
C    9.9060336    0.0023359   -7.1617220  
C    9.2713348    0.0019716   -8.3570193  
C    7.8539601    0.0017987   -8.0290717  
C    7.8134199    0.0019964   -6.5509175  
N    9.0133230    0.0023922   -6.0368918  
C    6.5739165    0.0019522   -5.8237885  
C    5.4270464    0.0021100   -6.5407428  
O    4.1996966    0.0020832   -5.9933375  
C    5.4350396    0.0022880   -8.0334233  
O    4.3532935    0.0023019   -8.6208295  
C    6.7193691    0.0022863   -8.7562121  
H    9.7107154    0.0019272   -9.3398827  
H    3.5894822    0.0022492   -6.7528051  
H    6.6822740    0.0025335   -9.8373478  
H   10.9679204    0.0025649   -6.9736517  
C    2.5528530    2.1414826    2.8079335  
C    2.0663498    1.7338582    4.0032312  
C    0.9804344    0.8229586    3.6752840  
C    0.9495562    0.7966882    2.1971295  
N    1.8690446    1.5676019    1.6831036  
C    0.0000000    0.0000000    1.4700000  
C   -0.8785127   -0.7372425    2.1869543  
O   -1.8187535   -1.5261249    1.6395491  
C   -0.8723269   -0.7321790    3.6796354  
O   -1.7010379   -1.4274584    4.2670412  
C    0.1115397    0.0933559    4.4024240  
H    2.4028853    2.0163452    4.9860947  
H   -2.2861435   -1.9184361    2.3990168  
H    0.0832434    0.0693689    5.4835595  
H    3.3664920    2.8238276    2.6198634  
