60

C    1.1188647    0.0008220   -0.8003810  
C    0.0000000    0.0000000    0.0000000  
C   -1.1323857    0.0008906   -0.8673531  
C   -0.6382656    0.0019688   -2.1969283  
N    0.7324022    0.0038483   -2.1202241  
C   -1.4770910    0.0027330   -3.3154815  
C   -2.8395466    0.0020966   -3.0876864  
O   -3.7039193    0.0024451   -4.1440354  
C   -3.3517866    0.0013950   -1.7684337  
O   -4.7300490    0.0012388   -1.7073133  
C   -2.5248538    0.0009137   -0.6644825  
H   -1.1067557    0.0037002   -4.3313812  
H   -4.5940023    0.0021860   -3.7685143  
H   -4.9934602    0.0007284   -0.7819922  
H   -2.9462578    0.0005614    0.3339651  
H    2.1619898    0.0009347   -0.5342068  
C    4.5154620   -2.1146769   -2.8156723  
C    4.7985775   -1.6646945   -4.0652469  
C    3.7280659   -0.7729181   -4.4441602  
C    2.7913710   -0.7399863   -3.3047267  
N    3.3260543   -1.5745778   -2.3505461  
C    1.6478443   -0.0100099   -3.2703000  
C    1.3174733    0.7969146   -4.4331686  
O    0.3100037    1.4889664   -4.4992699  
C    2.2949966    0.7769793   -5.6513050  
O    2.0272083    1.4520889   -6.6360777  
C    3.4969333   -0.0492780   -5.5706859  
H    5.6590342   -1.9276282   -4.6543936  
H    4.1686932   -0.0573917   -6.4182684  
H    2.9164729   -1.7608871   -1.4535629  
C    6.4526890   -3.6436449   -2.2966225  
C    5.2792734   -3.0432592   -1.9699613  
C    4.9322715   -3.4917407   -0.6420724  
C    6.0074366   -4.4091778   -0.2188480  
N    6.8976803   -4.4584554   -1.2666685  
C    6.0484820   -5.0447485    0.9795135  
C    4.9610453   -4.8096976    1.9148035  
O    4.9068114   -5.3352625    3.0189508  
C    3.8117632   -3.8420647    1.4874353  
O    2.8907354   -3.6366752    2.2663979  
C    3.8781434   -3.2155479    0.1695122  
H    6.8464836   -5.7137013    1.2703839  
H    3.0785629   -2.5467171   -0.1186898  
H    7.0296901   -3.5595741   -3.2032047  
H    7.7417746   -5.0010130   -1.2802146  
C    0.0000000    0.0000000    1.4700000  
C    1.0662921    0.0000102    2.3034270  
C    0.4961870   -0.0000064    3.6418889  
C   -0.9663858    0.0000850    3.4240247  
N   -1.2632773    0.0000084    2.1528658  
C   -1.8985362    0.0000517    4.5177257  
C   -1.3925775   -0.0004564    5.7720543  
O   -2.1456383   -0.0005410    6.8851312  
C    0.0786232   -0.0009323    6.0245000  
O    0.4683759   -0.0012588    7.1921102  
C    1.0143166   -0.0008442    4.8859032  
H    2.1107198   -0.0000632    2.0421868  
H   -2.9622183    0.0003270    4.3293377  
H   -1.5042274   -0.0009692    7.6184419  
H    2.0724152   -0.0013148    5.1109744  
