58

C    3.2573673   -0.0002922   -1.5109381  
C    2.5379468   -0.0001712   -0.3591961  
C    1.1435044    0.0000331   -0.7338499  
C    1.1092610   -0.0000084   -2.2088475  
N    2.4227563    0.0001907   -2.6182610  
C   -0.0265530   -0.0002525   -2.9515664  
C   -1.3003034   -0.0002642   -2.2514984  
O   -2.3786781   -0.0004134   -2.8306432  
C   -1.2877726    0.0000311   -0.6895609  
O   -2.3539954    0.0003303   -0.0892041  
C    0.0000000    0.0000000    0.0000000  
H    2.9384089   -0.0000369    0.6389239  
H    4.3270396   -0.0004767   -1.6439448  
H    2.7280495   -0.0013409   -3.5742113  
C    2.5185223   -2.1418788   -5.7664423  
C    2.0285784   -1.7344771   -6.9604096  
C    0.9435067   -0.8236415   -6.6295059  
C    0.9168309   -0.7971608   -5.1512737  
N    1.8378573   -1.5679058   -4.6397542  
C   -0.0307350   -0.0004649   -4.4215607  
C   -0.9113597    0.7365839   -5.1361191  
O   -1.8501209    1.5254489   -4.5861550  
C   -0.9094199    0.7313053   -6.6288107  
O   -1.7398700    1.4264148   -7.2139570  
C    0.0724716   -0.0942331   -7.3542762  
H    2.3623455   -2.0170716   -7.9441855  
H   -2.3197098    1.9176019   -5.3443465  
H    0.0410974   -0.0704052   -8.4353304  
C    5.3237931   -4.5001006   -8.3029138  
C    4.3273818   -3.6644904   -7.9280801  
C    4.3513407   -3.6809121   -6.4735511  
C    5.4541104   -4.6039578   -6.1293585  
N    6.0279310   -5.0872083   -7.1976223  
C    5.8054970   -4.8948711   -4.7666464  
C    5.0880896   -4.2908096   -3.7920844  
O    5.3065515   -4.4704279   -2.4782912  
C    3.9695648   -3.3539925   -4.1074220  
O    3.3594587   -2.8401460   -3.1698972  
C    3.6284263   -3.0718425   -5.5131033  
H    3.6587664   -3.1058759   -8.5605199  
H    6.6159112   -5.5735554   -4.5441011  
H    4.6412988   -3.9114916   -2.0376303  
H    5.6313416   -4.7602268   -9.3032750  
C    2.5528530    2.1414826    2.8079335  
C    2.0663498    1.7338582    4.0032312  
C    0.9804344    0.8229586    3.6752840  
C    0.9495562    0.7966882    2.1971295  
N    1.8690446    1.5676019    1.6831036  
C    0.0000000    0.0000000    1.4700000  
C   -0.8785127   -0.7372425    2.1869543  
O   -1.8187535   -1.5261249    1.6395491  
C   -0.8723269   -0.7321790    3.6796354  
O   -1.7010379   -1.4274584    4.2670412  
C    0.1115397    0.0933559    4.4024240  
H    2.4028853    2.0163452    4.9860947  
H   -2.2861435   -1.9184361    2.3990168  
H    0.0832434    0.0693689    5.4835595  
H    3.3664920    2.8238276    2.6198634  
