60

C   -1.1187828    0.0135304   -0.8003805  
C    0.0000000    0.0000000    0.0000000  
C    1.1322818   -0.0154155   -0.8673525  
C    0.6381884   -0.0101550   -2.1969277  
N   -0.7323907    0.0055474   -2.1202239  
C    1.4769347   -0.0216789   -3.3154806  
C    2.8392870   -0.0385187   -3.0876856  
O    3.7035839   -0.0499545   -4.1440346  
C    3.3514932   -0.0443882   -1.7684330  
O    4.7296441   -0.0619116   -1.7073123  
C    2.5246348   -0.0333000   -0.6644816  
H   -1.3574476    0.0230317   -2.9057039  
H    4.5935974   -0.0611124   -3.7685130  
H    4.9930397   -0.0647802   -0.7819912  
H    2.9460084   -0.0383537    0.3339657  
H   -2.1618233    0.0267980   -0.5342064  
C    0.9734975   -0.0165350   -4.6965757  
C   -0.3136508   -0.0007371   -5.1144023  
C   -0.2364583   -0.0029520   -6.5671710  
C    1.2121601   -0.0212779   -6.8634010  
N    1.9264113   -0.0293864   -5.7708039  
C    1.7132980   -0.0287362   -8.2102090  
C    0.8083966   -0.0187476   -9.2153902  
O    1.1346533   -0.0240276  -10.5190657  
C   -0.6601756   -0.0005809   -8.9486948  
O   -1.4262068    0.0078831   -9.9122012  
C   -1.1492653    0.0068178   -7.5584926  
H   -1.2053650    0.0108828   -4.5112542  
H    0.2809386   -0.0141472  -10.9883483  
H   -2.2203760    0.0199073   -7.4075620  
C    4.0867903   -0.7621641   -7.7759018  
C    3.1609189   -0.0467314   -8.4650997  
C    3.8704105    0.6858945   -9.4872134  
C    5.2957358    0.3361081   -9.3359300  
N    5.3596904   -0.5449414   -8.2811542  
C    6.2938597    0.8227653  -10.1160695  
C    5.9407877    1.7533221  -11.1752858  
O    6.7674082    2.2470464  -11.9310874  
C    4.4374302    2.1379829  -11.3534927  
O    4.1281382    2.9207642  -12.2416661  
C    3.4522336    1.5477154  -10.4508165  
H    7.3330710    0.5532261   -9.9884022  
H    2.4134093    1.8190535  -10.5809833  
H    3.9463377   -1.4296517   -6.9412625  
H    6.2011602   -0.9668865   -7.9333931  
C    2.5528530    2.1414826    2.8079335  
C    2.0663498    1.7338582    4.0032312  
C    0.9804344    0.8229586    3.6752840  
C    0.9495562    0.7966882    2.1971295  
N    1.8690446    1.5676019    1.6831036  
C    0.0000000    0.0000000    1.4700000  
C   -0.8785127   -0.7372425    2.1869543  
O   -1.8187535   -1.5261249    1.6395491  
C   -0.8723269   -0.7321790    3.6796354  
O   -1.7010379   -1.4274584    4.2670412  
C    0.1115397    0.0933559    4.4024240  
H    2.4028853    2.0163452    4.9860947  
H   -2.2861435   -1.9184361    2.3990168  
H    0.0832434    0.0693689    5.4835595  
H    3.3664920    2.8238276    2.6198634  
