58

C    3.4366575   -0.6833885   -3.0946346  
C    2.4521480    0.0014830   -3.7217483  
C    3.1253964    0.7466081   -4.7743755  
C    4.5519817    0.3836670   -4.6339715  
N    4.7405495   -0.4543479   -3.6510360  
C    5.5626517    0.9200496   -5.5034110  
C    5.1661367    1.7796238   -6.4694554  
O    6.0015170    2.3558694   -7.3504321  
C    3.7338253    2.1651522   -6.6368310  
O    3.4449661    2.9527886   -7.5376147  
C    2.7159669    1.6013966   -5.7323603  
H    6.5977251    0.6376031   -5.3778750  
H    5.4283408    2.9120095   -7.9084010  
H    1.6894036    1.9056758   -5.8866681  
H    3.3478784   -1.3551407   -2.2556826  
C    0.0000000    0.0000000    0.0000000  
C    1.0662921   -0.0000106   -0.8334269  
C    0.4961870    0.0000059   -2.1718889  
C   -0.9663856   -0.0000854   -1.9540246  
N   -1.2632773   -0.0000087   -0.6828657  
C   -1.8985362   -0.0000522   -3.0477258  
C   -1.3925773    0.0004558   -4.3020541  
O   -2.1456384    0.0005402   -5.4151311  
C    0.0786236    0.0009315   -4.5544999  
O    0.4683762    0.0012578   -5.7221098  
C    1.0143167    0.0008435   -3.4159031  
H    2.1107198    0.0000631   -0.5721865  
H   -1.5042271    0.0009682   -6.1484419  
C   -4.0230210    0.6852474   -1.8410563  
C   -3.3460094   -0.0004268   -2.7913647  
C   -4.3652411   -0.7461035   -3.5136062  
C   -5.6347338   -0.3825701   -2.8481619  
N   -5.4404329    0.4562396   -1.8670223  
C   -6.8979172   -0.9192526   -3.2741034  
C   -6.8931418   -1.7796806   -4.3176434  
O   -7.9981923   -2.3562945   -4.8200573  
C   -5.6284695   -2.1658232   -5.0102177  
O   -5.6989692   -2.9542275   -5.9529104  
C   -4.3454707   -1.6017437   -4.5545287  
H   -7.8101238   -0.6363586   -2.7693660  
H   -7.6764571   -2.9130454   -5.5519503  
H   -3.4519528   -1.9064890   -5.0827203  
H   -3.6257278    1.3575925   -1.0973603  
C    3.2573670    0.0002920    2.9809380  
C    2.5379467    0.0001709    1.8291961  
C    1.1435042   -0.0000331    2.2038498  
C    1.1092607    0.0000083    3.6788474  
N    2.4227561   -0.0001909    4.0882609  
C   -0.0265533    0.0002524    4.4215661  
C   -1.3003036    0.0002640    3.7214979  
O   -2.3786784    0.0004133    4.3006425  
C   -1.2877726   -0.0000311    2.1595606  
O   -2.3539958   -0.0003306    1.5592035  
C    0.0000000    0.0000000    1.4700000  
H    2.9384090    0.0000368    0.8310761  
H   -0.0296291    0.0004086    5.5027230  
H    4.3270393    0.0004765    3.1139444  
H    2.7280493    0.0013407    5.0442112  
