58

C    3.2798085    0.0005856   -1.4499646  
C    2.5571146    0.0005565   -2.5996553  
C    1.1637436    0.0001548   -2.2210360  
C    1.1336964   -0.0000200   -0.7459468  
N    2.4483512   -0.0001429   -0.3402719  
C    0.0000000    0.0000000    0.0000000  
C   -1.2757371   -0.0000187   -0.6964415  
O   -2.3524597   -0.0000640   -0.1142312  
C   -1.2676493   -0.0000873   -2.2584081  
O   -2.3355761   -0.0004101   -2.8557295  
C    0.0181561    0.0001759   -2.9516296  
H    2.9547354    0.0006074   -3.5989104  
H    2.7563628    0.0012823    0.6148064  
C    6.5739159    0.0018720   -4.3537888  
C    7.6280847    0.0019468   -3.4977494  
C    7.0842298    0.0017736   -2.1601930  
C    5.6162787    0.0015610   -2.3082157  
N    5.3720702    0.0020315   -3.6621917  
C    4.7390846    0.0009612   -1.2727278  
C    5.2766314    0.0007199    0.0776717  
O    4.5688488    0.0002469    1.0763435  
C    6.8281783    0.0011905    0.2579685  
O    7.2923834    0.0012993    1.3901232  
C    7.6713711    0.0015458   -0.9348758  
H    8.6679910    0.0022877   -3.7719906  
H    8.7446435    0.0016652   -0.8014218  
H    6.5739154    0.0019307   -5.4316984  
H    4.4610964    0.0004679   -4.0831096  
C    0.0139740    0.0003878   -4.4216236  
C    1.0778908    0.0006077   -5.2580807  
C    0.5039802    0.0007585   -6.5949153  
C   -0.9579669    0.0004850   -6.3728908  
N   -1.2512408    0.0003478   -5.1008931  
C   -1.8932250    0.0005800   -7.4639358  
C   -1.3908369    0.0013211   -8.7196988  
O   -2.1470611    0.0014886   -9.8306290  
C    0.0796396    0.0019849   -8.9763283  
O    0.4660689    0.0025199  -10.1450425  
C    1.0185685    0.0018290   -7.8403984  
H    2.1230576    0.0007510   -4.9998126  
H   -2.9563668    0.0001680   -7.2725227  
H   -1.5077392    0.0020886  -10.5657614  
H    2.0760224    0.0024411   -8.0684786  
C    0.8681109    0.7263879    2.2709268  
C    0.6127770    0.5096195    3.5869401  
C   -0.4920590   -0.4175482    3.6542670  
C   -0.8620974   -0.7254003    2.2596025  
N    0.0000000    0.0000000    1.4700000  
C   -1.8641242   -1.5660088    1.8976294  
C   -2.6293522   -2.2103885    2.9520183  
O   -3.5512764   -2.9839180    2.7283916  
C   -2.2549728   -1.8987399    4.4361073  
O   -2.8923672   -2.4351063    5.3323774  
C   -1.1543735   -0.9755647    4.7012123  
H    1.1382914    0.9492124    4.4159191  
H   -2.1192137   -1.7782617    0.8686553  
H   -0.9013378   -0.7652422    5.7314848  
H    1.6172880    1.3558399    1.8188057  
