62

C    1.1188644    0.0008220   -0.8003805  
C    0.0000000    0.0000000    0.0000000  
C   -1.1323861    0.0008897   -0.8673528  
C   -0.6382658    0.0019676   -2.1969280  
N    0.7324021    0.0038479   -2.1202235  
C   -1.4770908    0.0027313   -3.3154810  
C   -2.8395468    0.0020939   -3.0876860  
O   -3.7039193    0.0024420   -4.1440354  
C   -3.3517864    0.0013925   -1.7684331  
O   -4.7300488    0.0012361   -1.7073129  
C   -2.5248543    0.0009122   -0.6644820  
H    1.3576321   -0.0056170   -2.9057040  
H   -4.5940021    0.0021818   -3.7685138  
H   -4.9934598    0.0007257   -0.7819921  
H   -2.9462577    0.0005601    0.3339650  
H    2.1619891    0.0009354   -0.5342067  
C    1.9333069   -2.1182746   -5.2802154  
C    1.0133391   -1.6572496   -4.3672080  
C    0.1426192   -0.7691975   -5.0656425  
C    0.5838558   -0.7277679   -6.4130548  
N    1.6740003   -1.5566766   -6.5085135  
C   -0.0442374    0.0493809   -7.3909748  
C   -1.1378605    0.7981152   -7.0016649  
O   -1.7887531    1.5744837   -7.9163250  
C   -1.5929370    0.7702823   -5.6619077  
O   -2.6929646    1.5704859   -5.4317842  
C   -0.9736287    0.0040457   -4.6965766  
H    0.9752628   -1.9268942   -3.3256538  
H    2.1940570   -1.7371913   -7.3481186  
H   -2.5111336    2.0069650   -7.4426253  
H   -2.9358036    1.4942139   -4.5039824  
H    2.7547995   -2.8021595   -5.1521113  
C    0.8527626   -0.9886135   -9.5255295  
C    1.1990125   -0.6148090  -10.7842814  
C    0.9656923    0.8068624  -10.8804445  
C    0.4514699    1.2337358   -9.5650945  
N    0.4064048    0.0983676   -8.7893386  
C    0.1100052    2.5088016   -9.2499527  
C    0.2586733    3.5287492  -10.2747158  
O   -0.0218816    4.7056234  -10.0888188  
C    0.8012149    3.0991611  -11.6750398  
O    0.9303499    3.9490422  -12.5458360  
C    1.1357348    1.6943458  -11.8951350  
H    1.5747923   -1.2612505  -11.5572728  
H   -0.2651672    2.8008443   -8.2789398  
H    1.5109581    1.4051432  -12.8673970  
H    0.8859158   -1.9667528   -9.0738289  
C    0.0000000    0.0000000    1.4700000  
C    1.0662921    0.0000102    2.3034270  
C    0.4961870   -0.0000064    3.6418889  
C   -0.9663858    0.0000850    3.4240247  
N   -1.2632773    0.0000084    2.1528658  
C   -1.8985362    0.0000517    4.5177257  
C   -1.3925775   -0.0004564    5.7720543  
O   -2.1456383   -0.0005410    6.8851312  
C    0.0786232   -0.0009323    6.0245000  
O    0.4683759   -0.0012588    7.1921102  
C    1.0143166   -0.0008442    4.8859032  
H    2.1107198   -0.0000632    2.0421868  
H   -2.9622183    0.0003270    4.3293377  
H   -1.5042274   -0.0009692    7.6184419  
H    2.0724152   -0.0013148    5.1109744  
