60

C    1.1188644    0.0008223   -0.8003803  
C    0.0000000    0.0000000    0.0000000  
C   -1.1323862    0.0008893   -0.8673523  
C   -0.6382660    0.0019672   -2.1969273  
N    0.7324021    0.0038479   -2.1202235  
C   -1.4770909    0.0027307   -3.3154806  
C   -2.8395470    0.0020930   -3.0876856  
O   -3.7039197    0.0024407   -4.1440349  
C   -3.3517868    0.0013916   -1.7684327  
O   -4.7300492    0.0012349   -1.7073122  
C   -2.5248543    0.0009113   -0.6644818  
H    1.3576318   -0.0056168   -2.9057036  
H   -4.5940030    0.0021806   -3.7685128  
H   -4.9934598    0.0007245   -0.7819916  
H   -2.9462580    0.0005595    0.3339654  
H    2.1619891    0.0009359   -0.5342062  
C    0.0907992   -0.6992468   -5.1618154  
C   -0.9736291    0.0040453   -4.6965759  
C   -1.5084789    0.7463551   -5.8136016  
C   -0.6623479    0.4154823   -6.9760883  
N    0.2885840   -0.4649761   -6.5141239  
C   -0.8417398    0.9156018   -8.2248490  
C   -1.9414410    1.8417246   -8.4381329  
O   -2.1855848    2.3466250   -9.5261451  
C   -2.8501357    2.2064412   -7.2211440  
O   -3.7788919    2.9853284   -7.3884995  
C   -2.5575137    1.6028530   -5.9234903  
H   -0.2096928    0.6598484   -9.0639057  
H   -3.1915433    1.8604114   -5.0859976  
H    0.7475162   -1.3688067   -4.6304947  
C    1.3501488   -1.0667976   -7.3337521  
C    2.3114351   -1.9364570   -6.9449059  
C    3.0858461   -2.2018753   -8.1475449  
C    2.4354489   -1.3879136   -9.1968470  
N    1.4174466   -0.7203027   -8.7257249  
C    2.9110751   -1.3736871  -10.5528202  
C    3.9877501   -2.1375714  -10.8470764  
O    4.5377683   -2.2199936  -12.0704844  
C    4.6662603   -2.9696719   -9.8100645  
O    5.6410302   -3.6406018  -10.1490295  
C    4.1593744   -2.9673162   -8.4262355  
H    2.4748841   -2.3470569   -5.9631889  
H    2.4163134   -0.7696207  -11.2992948  
H    5.2837990   -2.8377620  -11.9658276  
H    4.6788627   -3.5834841   -7.7046408  
C    2.5528530    2.1414826    2.8079335  
C    2.0663498    1.7338582    4.0032312  
C    0.9804344    0.8229586    3.6752840  
C    0.9495562    0.7966882    2.1971295  
N    1.8690446    1.5676019    1.6831036  
C    0.0000000    0.0000000    1.4700000  
C   -0.8785127   -0.7372425    2.1869543  
O   -1.8187535   -1.5261249    1.6395491  
C   -0.8723269   -0.7321790    3.6796354  
O   -1.7010379   -1.4274584    4.2670412  
C    0.1115397    0.0933559    4.4024240  
H    2.4028853    2.0163452    4.9860947  
H   -2.2861435   -1.9184361    2.3990168  
H    0.0832434    0.0693689    5.4835595  
H    3.3664920    2.8238276    2.6198634  
