58

C   -4.7161345    0.0009935   -1.6923229  
C   -5.6957082    0.0016034   -0.7518389  
C   -6.9559355    0.0017237   -1.4565820  
C   -6.6279105    0.0011005   -2.8950499  
N   -5.2541477    0.0010770   -2.9703220  
C   -7.5472459    0.0006151   -3.8933113  
C   -8.9536547    0.0009393   -3.5265020  
O   -9.8573594    0.0006108   -4.3521040  
C   -9.3240222    0.0018516   -2.0090593  
O  -10.5048043    0.0024379   -1.6881013  
C   -8.2443375    0.0020337   -1.0251223  
H   -5.5518795    0.0021138    0.3139595  
H   -7.2854533    0.0000315   -4.9422986  
H   -4.7240399   -0.0008468   -3.8223957  
C   -3.2573684    0.0006028   -1.5109361  
C   -2.5379475    0.0004131   -0.3591947  
C   -1.1435048    0.0000759   -0.7338492  
C   -1.1092620    0.0001140   -2.2088470  
N   -2.4227582    0.0000402   -2.6182595  
C    0.0265510    0.0002498   -2.9515662  
C    1.3003018    0.0001398   -2.2514987  
O    2.3786768    0.0001862   -2.8306439  
C    1.2877719   -0.0001540   -0.6895613  
O    2.3539954   -0.0005553   -0.0892049  
C    0.0000000    0.0000000    0.0000000  
H   -2.9384094    0.0003172    0.6389255  
H    0.0296270    0.0004056   -4.0327229  
H   -2.7280517    0.0016009   -3.5742098  
C   -8.0154188    0.6889793    1.4069186  
C   -8.6043394    0.0026151    0.4001139  
C   -9.6811182   -0.7426524    1.0338519  
C   -9.5950369   -0.3781516    2.4643463  
N   -8.6205614    0.4608267    2.6890746  
C  -10.5016750   -0.9141898    3.4419737  
C  -11.4513900   -1.7749257    3.0101072  
O  -12.3628993   -2.3510140    3.8121761  
C  -11.5641915   -2.1620408    1.5728946  
O  -12.4528171   -2.9506779    1.2509997  
C  -10.6222953   -1.5986089    0.5893805  
H  -10.4155841   -0.6305929    4.4807571  
H  -12.8983770   -2.9081749    3.2188903  
H  -10.7374424   -1.9040526   -0.4419658  
H   -7.1742111    1.3613002    1.3492279  
C    2.5528530    2.1414826    2.8079335  
C    2.0663498    1.7338582    4.0032312  
C    0.9804344    0.8229586    3.6752840  
C    0.9495562    0.7966882    2.1971295  
N    1.8690446    1.5676019    1.6831036  
C    0.0000000    0.0000000    1.4700000  
C   -0.8785127   -0.7372425    2.1869543  
O   -1.8187535   -1.5261249    1.6395491  
C   -0.8723269   -0.7321790    3.6796354  
O   -1.7010379   -1.4274584    4.2670412  
C    0.1115397    0.0933559    4.4024240  
H    2.4028853    2.0163452    4.9860947  
H   -2.2861435   -1.9184361    2.3990168  
H    0.0832434    0.0693689    5.4835595  
H    3.3664920    2.8238276    2.6198634  
