60

C    0.0000000    0.0000000    0.0000000  
C    1.0541691   -0.0001722   -0.8560385  
C    0.5103148   -0.0000454   -2.1935953  
C   -0.9576360    0.0002459   -2.0455733  
N   -1.2018453   -0.0001391   -0.6915972  
C   -1.8348299    0.0008316   -3.0810614  
C   -1.2972830    0.0009736   -4.4314610  
O   -2.0050651    0.0014265   -5.4301325  
C    0.2542642    0.0004184   -4.6117570  
O    0.7184692    0.0002257   -5.7439117  
C    1.0974567    0.0000874   -3.4189124  
H    2.0940754   -0.0005483   -0.5817975  
H   -2.1128192    0.0014911   -0.2706798  
C    2.5562225   -0.0001552   -3.6002994  
C    3.5148533    0.0005845   -2.6449949  
C    4.7727400   -0.0000941   -3.3758994  
C    4.3760696   -0.0013664   -4.8004119  
N    3.0779908   -0.0013272   -4.9381826  
C    5.3463917   -0.0022892   -5.8603928  
C    6.6535664   -0.0015669   -5.5130762  
O    7.6652158   -0.0022925   -6.3977275  
C    7.0856184    0.0000915   -4.0842693  
O    8.2923991    0.0005496   -3.8415699  
C    6.0711807    0.0009697   -3.0152322  
H    3.3844842    0.0015699   -1.5763143  
H    5.0281930   -0.0034184   -6.8926999  
H    8.4720678   -0.0014516   -5.8517038  
H    6.4250930    0.0022835   -1.9929929  
C   -4.6947983    2.0138961   -0.3183465  
C   -3.5421868    1.6316849   -0.9158251  
C   -3.9514595    0.7140401   -1.9679294  
C   -5.4250710    0.6562901   -1.8596843  
N   -5.8665587    1.4162658   -0.8945336  
C   -6.2212650   -0.1556055   -2.7383125  
C   -5.5747422   -0.8767179   -3.6824208  
O   -6.1913447   -1.6769196   -4.5687161  
C   -4.0886034   -0.8392734   -3.8171472  
O   -3.5672033   -1.5214562   -4.6991838  
C   -3.2941060    0.0012872   -2.9038252  
H   -2.5382356    1.9350695   -0.6726889  
H   -7.2964334   -0.1789342   -2.6364367  
H   -5.4711290   -2.0523909   -5.1067347  
H   -4.8199146    2.6921156    0.5107118  
C    1.1188642   -0.0008217    2.2703808  
C    0.0000000    0.0000000    1.4700000  
C   -1.1323862   -0.0008904    2.3373528  
C   -0.6382662   -0.0019682    3.6669281  
N    0.7324016   -0.0038477    3.5902241  
C   -1.4770914   -0.0027325    4.7854808  
C   -2.8395474   -0.0020958    4.5576857  
O   -3.7039201   -0.0024443    5.6140350  
C   -3.3517868   -0.0013946    3.2384331  
O   -4.7300496   -0.0012389    3.1773122  
C   -2.5248543   -0.0009135    2.1344818  
H    1.3576314    0.0056174    4.3757045  
H   -1.1067570   -0.0036993    5.8013813  
H   -4.5940033   -0.0021850    5.2385129  
H   -4.9934601   -0.0007286    2.2519915  
H   -2.9462578   -0.0005617    1.1360343  
H    2.1619896   -0.0009344    2.0042067  
