58

C    1.0965516    0.0001358   -0.8010306  
C    0.0000000    0.0000000    0.0000000  
C   -1.1546562    0.0001470   -0.8669514  
C   -0.6372014    0.0003521   -2.2486283  
N    0.7342871    0.0007338   -2.1395008  
C   -1.4147739    0.0001353   -3.3608717  
C   -2.8576050   -0.0001047   -3.1854460  
O   -3.6427777   -0.0002490   -4.1244903  
C   -3.4275843   -0.0000725   -1.7311663  
O   -4.6406829    0.0000331   -1.5710055  
C   -2.4891867   -0.0001091   -0.6116746  
H   -2.8919122   -0.0002919    0.3920862  
H    2.1388268    0.0000664   -0.5261644  
H    1.3735872   -0.0006096   -2.9130260  
C    1.9957415   -2.1407949   -5.0258942  
C    1.9855629   -1.7332337   -6.3163861  
C    0.8551750   -0.8225478   -6.4132066  
C    0.2799736   -0.7963193   -5.0512081  
N    0.9444051   -1.5670712   -4.2336131  
C   -0.8712825    0.0001712   -4.7267109  
C   -1.4226086    0.7372647   -5.7177042  
O   -2.4987598    1.5259555   -5.5567521  
C   -0.8649830    0.7322387   -7.1023300  
O   -1.4179254    1.4273753   -7.9545392  
C    0.3165528   -0.0930920   -7.4101072  
H    2.6616910   -2.0156328   -7.1051683  
H   -2.6523125    1.9181966   -6.4352284  
H    2.6823207   -2.8229901   -4.5502976  
C    1.9455475   -3.1044761  -10.2635939  
C    1.4250047   -2.5471942   -9.1455365  
C    1.2778175   -1.1352671   -9.4638094  
C    1.7712335   -1.0128116  -10.8523794  
N    2.1639240   -2.1638918  -11.3265087  
C    1.7916626    0.2465248  -11.5442910  
C    1.3393543    1.3340232  -10.8793849  
O    1.3010694    2.5713606  -11.4024248  
C    0.8347317    1.2426906   -9.4775375  
O    0.4383415    2.2734260   -8.9337729  
C    0.8239917   -0.0604680   -8.7893609  
H    1.1720563   -3.0341291   -8.2192608  
H    2.1578422    0.3069215  -12.5587731  
H    0.9322192    3.1288401  -10.6936808  
H    2.2027441   -4.1380506  -10.4325508  
C    0.8175213    0.6860729    2.3021913  
C    0.0000000    0.0000000    1.4700000  
C   -0.8887526   -0.7456559    2.3478473  
C   -0.4549825   -0.3816753    3.7138435  
N    0.5448156    0.4573574    3.6934124  
C   -1.0945674   -0.9182058    4.8835240  
C   -2.1210866   -1.7789155    4.6970523  
O   -2.8083856   -2.3554314    5.6976972  
C   -2.5824069   -2.1655116    3.3310774  
O   -3.5227682   -2.9541547    3.2362962  
C   -1.9100805   -1.6015804    2.1470656  
H   -0.7567140   -0.6349833    5.8697035  
H   -3.4728268   -2.9124471    5.2533954  
H   -2.2742832   -1.9066565    1.1752040  
H    1.6189533    1.3585343    2.0405121  
