58

C    6.5698745   -0.0006426    0.9721612  
C    7.6069601   -0.0018566    0.1026609  
C    6.9912940   -0.0024303   -1.2154642  
C    5.5370520   -0.0015106   -0.9475762  
N    5.2839240   -0.0003802    0.3330154  
C    4.5679461   -0.0016854   -2.0086701  
C    5.0305956   -0.0023424   -3.2796101  
O    4.2398096   -0.0025846   -4.3662096  
C    6.4922745   -0.0029067   -3.5823559  
O    6.8417597   -0.0036170   -4.7626441  
C    7.4664605   -0.0027577   -2.4765142  
H    8.6597315   -0.0022169    0.3279341  
H    4.8556979   -0.0030409   -5.1210835  
H    8.5162194   -0.0030652   -2.7377356  
C    7.7154471    0.0000769    3.2364020  
C    6.6202815    0.0003740    2.4412962  
C    5.4909441    0.0020791    3.3584079  
C    6.1037011    0.0025272    4.7041839  
N    7.4074420    0.0014390    4.6390087  
C    5.3094759    0.0041843    5.9018018  
C    3.9642579    0.0057303    5.7613757  
O    3.1020196    0.0073650    6.7921926  
C    3.3158809    0.0056983    4.4168426  
O    2.0860650    0.0070333    4.3642010  
C    4.1522836    0.0039377    3.2034378  
H    5.7838959    0.0042702    6.8722838  
H    2.2202606    0.0082191    6.3778829  
H    3.6441432    0.0040883    2.2484383  
H    8.7520404   -0.0010432    2.9390027  
C    3.1301149   -0.0010311   -1.7028252  
C    2.5367768   -0.0002767   -0.4864665  
C    1.1089904    0.0001028   -0.7656183  
C    1.0177872   -0.0004148   -2.2415132  
N    2.1993578   -0.0011611   -2.7963820  
C   -0.2459209   -0.0002877   -2.9257118  
C   -1.3675319   -0.0000605   -2.1698524  
O   -2.6129313    0.0000867   -2.6748490  
C   -1.3083584    0.0000910   -0.6783232  
O   -2.3693261    0.0004206   -0.0541692  
C    0.0000000    0.0000000    0.0000000  
H    3.0096017   -0.0001007    0.4807525  
H   -0.2829630   -0.0004687   -4.0053125  
H   -3.1967441    0.0002094   -1.8949034  
C    2.5528530    2.1414826    2.8079335  
C    2.0663498    1.7338582    4.0032312  
C    0.9804344    0.8229586    3.6752840  
C    0.9495562    0.7966882    2.1971295  
N    1.8690446    1.5676019    1.6831036  
C    0.0000000    0.0000000    1.4700000  
C   -0.8785127   -0.7372425    2.1869543  
O   -1.8187535   -1.5261249    1.6395491  
C   -0.8723269   -0.7321790    3.6796354  
O   -1.7010379   -1.4274584    4.2670412  
C    0.1115397    0.0933559    4.4024240  
H    2.4028853    2.0163452    4.9860947  
H   -2.2861435   -1.9184361    2.3990168  
H    0.0832434    0.0693689    5.4835595  
H    3.3664920    2.8238276    2.6198634  
