58

C   -1.0965489    0.0022444   -0.8010316  
C    0.0000000    0.0000000    0.0000000  
C    1.1546538   -0.0026532   -0.8669508  
C    0.6372003   -0.0017350   -2.2486280  
N   -0.7342859    0.0008601   -2.1395018  
C    1.4147721   -0.0032061   -3.3608712  
C    2.8576001   -0.0060978   -3.1854449  
O    3.6427720   -0.0076576   -4.1244888  
C    3.4275768   -0.0073672   -1.7311654  
O    4.6406725   -0.0101061   -1.5710036  
C    2.4891815   -0.0052939   -0.6116730  
H    2.8919055   -0.0059852    0.3920872  
H   -2.1388220    0.0045762   -0.5261662  
H   -1.3735808    0.0035913   -2.9130273  
C    0.8712826   -0.0020623   -4.7267106  
C   -0.4275879    0.0005450   -5.1068522  
C   -0.3927372    0.0005281   -6.5612544  
C    1.0467481   -0.0022225   -6.8995719  
N    1.7925756   -0.0038308   -5.8282514  
C    1.5084831   -0.0031080   -8.2604121  
C    0.5746238   -0.0017155   -9.2387988  
O    0.8627955   -0.0023100  -10.5514290  
C   -0.8856642    0.0006934   -8.9294227  
O   -1.6794896    0.0019877   -9.8701987  
C   -1.3340921    0.0016052   -7.5255575  
H   -1.3014231    0.0021767   -4.4779752  
H   -0.0042864   -0.0009955  -10.9956357  
H   -2.4004290    0.0032431   -7.3434791  
C    4.8723189   -2.1163334   -6.3889892  
C    5.8872444   -1.6536280   -7.1635244  
C    5.3022623   -0.7574253   -8.1327780  
C    3.8529488   -0.7357619   -7.8574387  
N    3.6576435   -1.5804377   -6.7891376  
C    2.9481723   -0.0055778   -8.5573784  
C    3.4342106    0.8134787   -9.6553079  
O    2.6985413    1.5067061  -10.3456169  
C    4.9652042    0.8056019   -9.9648281  
O    5.3860602    1.4909797  -10.8869986  
C    5.8417536   -0.0220758   -9.1399265  
H    6.9270037   -1.9109201   -7.0670129  
H    6.9005339   -0.0217952   -9.3606257  
H    4.9095043   -2.8038954   -5.5596726  
H    2.7697773   -1.7757788   -6.3641870  
C    0.0000000    0.0000000    1.4700000  
C    1.0662921    0.0000102    2.3034270  
C    0.4961870   -0.0000064    3.6418889  
C   -0.9663858    0.0000850    3.4240247  
N   -1.2632773    0.0000084    2.1528658  
C   -1.8985362    0.0000517    4.5177257  
C   -1.3925775   -0.0004564    5.7720543  
O   -2.1456383   -0.0005410    6.8851312  
C    0.0786232   -0.0009323    6.0245000  
O    0.4683759   -0.0012588    7.1921102  
C    1.0143166   -0.0008442    4.8859032  
H    2.1107198   -0.0000632    2.0421868  
H   -2.9622183    0.0003270    4.3293377  
H   -1.5042274   -0.0009692    7.6184419  
H    2.0724152   -0.0013148    5.1109744  
