58

C    4.3047788   -2.1086500   -1.2859243  
C    5.3774559   -1.6442162   -1.9771117  
C    4.8701585   -0.7486138   -2.9897228  
C    3.4034918   -0.7291862   -2.8306572  
N    3.1250159   -1.5744517   -1.7814350  
C    2.5562217   -0.0001543   -3.6003001  
C    3.1269051    0.8199333   -4.6559103  
O    2.4474939    1.5122577   -5.4024942  
C    4.6776928    0.8144233   -4.8425425  
O    5.1696074    1.5006857   -5.7281637  
C    5.4870227   -0.0121793   -3.9505978  
H    6.4066157   -1.8999864   -1.7981563  
H    6.5600124   -0.0102599   -4.0862903  
H    2.2064273   -1.7712342   -1.4285628  
C    7.4733506   -4.2650923    0.9064123  
C    6.7863214   -3.4740780    0.0424896  
C    5.3871102   -3.6042233    0.3743092  
C    5.3147712   -4.5426059    1.5105296  
N    6.6129739   -4.9066973    1.7843847  
C    4.1637668   -4.9274697    2.1177970  
C    2.9126845   -4.3811845    1.6188991  
O    1.8231467   -4.6662482    2.0984269  
C    2.9656208   -3.3858284    0.4162897  
O    1.9187192   -2.9196289   -0.0125649  
C    4.2666879   -3.0465534   -0.1546479  
H    7.2112136   -2.8686689   -0.7382530  
H    4.1326992   -5.6169201    2.9500257  
H    8.5357903   -4.4334660    0.9754240  
H    6.8925342   -5.5393240    2.5114866  
C    0.0000000    0.0000000    0.0000000  
C    1.0541688   -0.0001719   -0.8560391  
C    0.5103141   -0.0000449   -2.1935955  
C   -0.9576367    0.0002461   -2.0455733  
N   -1.2018459   -0.0001392   -0.6915970  
C   -1.8348306    0.0008319   -3.0810611  
C   -1.2972842    0.0009739   -4.4314605  
O   -2.0050664    0.0014267   -5.4301321  
C    0.2542628    0.0004190   -4.6117571  
O    0.7184677    0.0002263   -5.7439119  
C    1.0974556    0.0000880   -3.4189127  
H    2.0940752   -0.0005479   -0.5817978  
H   -2.9081050    0.0011669   -2.9507065  
H   -2.1128195    0.0014911   -0.2706793  
C    0.0000000    0.0000000    1.4700000  
C    1.0662921    0.0000102    2.3034270  
C    0.4961870   -0.0000064    3.6418889  
C   -0.9663858    0.0000850    3.4240247  
N   -1.2632773    0.0000084    2.1528658  
C   -1.8985362    0.0000517    4.5177257  
C   -1.3925775   -0.0004564    5.7720543  
O   -2.1456383   -0.0005410    6.8851312  
C    0.0786232   -0.0009323    6.0245000  
O    0.4683759   -0.0012588    7.1921102  
C    1.0143166   -0.0008442    4.8859032  
H    2.1107198   -0.0000632    2.0421868  
H   -2.9622183    0.0003270    4.3293377  
H   -1.5042274   -0.0009692    7.6184419  
H    2.0724152   -0.0013148    5.1109744  
