58

C    3.2798086    0.0005860   -1.4499646  
C    2.5571147    0.0005569   -2.5996555  
C    1.1637436    0.0001551   -2.2210361  
C    1.1336965   -0.0000198   -0.7459476  
N    2.4483514   -0.0001426   -0.3402723  
C    0.0000000    0.0000000    0.0000000  
C   -1.2757367   -0.0000185   -0.6964415  
O   -2.3524594   -0.0000640   -0.1142315  
C   -1.2676491   -0.0000871   -2.2584082  
O   -2.3355760   -0.0004099   -2.8557300  
C    0.0181560    0.0001764   -2.9516299  
H    0.0150794    0.0003323   -4.0331631  
H    4.3498550    0.0008616   -1.3200019  
H    2.7563626    0.0012824    0.6148062  
C    5.9694212   -2.1380306   -4.2640191  
C    5.9589015   -1.7308757   -5.5546365  
C    4.8277513   -0.8211661   -5.6517373  
C    4.2525283   -0.7949995   -4.2897469  
N    4.9176048   -1.5649429   -3.4719146  
C    3.1006058    0.0006268   -3.9654948  
C    2.5486627    0.7369531   -4.9567145  
O    1.4718516    1.5247924   -4.7960052  
C    3.1062923    0.7319673   -6.3413395  
O    2.5527682    1.4263781   -7.1937626  
C    4.2885186   -0.0924689   -6.6488625  
H    6.6352657   -2.0129519   -6.3433318  
H    1.3179707    1.9166340   -5.6746028  
H    6.6565709   -2.8195040   -3.7882126  
C    4.7959302   -0.0598451   -8.0281268  
C    5.8562342   -0.7255849   -8.5420570  
C    5.9051563   -0.3300373   -9.9412170  
C    4.7701273    0.6035750  -10.1044988  
N    4.1162709    0.7659350   -8.9864195  
C    4.4722372    1.2260242  -11.3650168  
C    5.2721215    0.9295827  -12.4146073  
O    5.1107177    1.4375812  -13.6482715  
C    6.4255687   -0.0085038  -12.2815127  
O    7.1112095   -0.2324408  -13.2789944  
C    6.7104964   -0.6342648  -10.9779931  
H    6.5228908   -1.4015246   -8.0343658  
H    3.6363068    1.9041857  -11.4557209  
H    5.8288587    1.0425974  -14.1749724  
H    7.5551595   -1.3078795  -10.9230641  
C    2.3971438    2.0127888    3.1728260  
C    1.9431056    1.6308205    1.9564670  
C    0.8496017    0.7127664    2.2356185  
C    0.7794028    0.6545384    3.7115134  
N    1.6840587    1.4146091    4.2663826  
C   -0.1885723   -0.1578550    4.3957118  
C   -1.0476298   -0.8789867    3.6398520  
O   -2.0015663   -1.6796266    4.1448486  
C   -1.0022026   -0.8410666    2.1483229  
O   -1.8147390   -1.5232959    1.5241687  
C    0.0000000    0.0000000    1.4700000  
H    2.3054237    1.9346118    0.9892483  
H   -0.2170646   -0.1815267    5.4753125  
H   -2.4487139   -2.0549881    3.3649027  
H    3.2048689    2.6911772    3.3971983  
