60

C    1.1188643    0.0008223   -0.8003800  
C    0.0000000    0.0000000    0.0000000  
C   -1.1323863    0.0008900   -0.8673525  
C   -0.6382660    0.0019680   -2.1969276  
N    0.7324020    0.0038481   -2.1202235  
C   -1.4770910    0.0027320   -3.3154805  
C   -2.8395474    0.0020946   -3.0876854  
O   -3.7039197    0.0024427   -4.1440346  
C   -3.3517868    0.0013932   -1.7684330  
O   -4.7300490    0.0012368   -1.7073125  
C   -2.5248544    0.0009124   -0.6644815  
H    1.3576317   -0.0056168   -2.9057037  
H   -4.5940029    0.0021830   -3.7685132  
H   -4.9934599    0.0007264   -0.7819921  
H   -2.9462577    0.0005604    0.3339654  
H    2.1619894    0.0009352   -0.5342064  
C    1.8906703   -2.0861101   -5.2626198  
C    0.9779264   -1.6251676   -4.3690284  
C    0.1016437   -0.7294207   -5.0863857  
C    0.5821191   -0.7061486   -6.4811585  
N    1.6688571   -1.5489157   -6.5215722  
C    0.0179716    0.0235401   -7.4766469  
C   -1.1395629    0.8406742   -7.1527017  
O   -1.7182901    1.5334123   -7.9794359  
C   -1.6653058    0.8314585   -5.6818803  
O   -2.6389757    1.5156844   -5.3971650  
C   -0.9736291    0.0040466   -4.6965759  
H    0.9247008   -1.8830608   -3.3263054  
H    2.7068313   -2.7728805   -5.1073203  
H    2.2153077   -1.7452386   -7.3400443  
C    0.9793144   -1.0847643   -9.5468755  
C    1.3736823   -0.7512139  -10.8027788  
C    1.1584169    0.6691042  -10.9483563  
C    0.6023500    1.1390517   -9.6651065  
N    0.5182900    0.0273768   -8.8588793  
C    0.2629647    2.4258827   -9.3994230  
C    0.4581920    3.4139420  -10.4473546  
O    0.1832476    4.5982804  -10.3057615  
C    1.0455381    2.9385303  -11.8144000  
O    1.2140636    3.7612963  -12.7042962  
C    1.3732978    1.5248608  -11.9816253  
H    1.7699700   -1.4234559  -11.5428189  
H   -0.1433365    2.7496938   -8.4512799  
H    1.7797226    1.2038518  -12.9310967  
H    0.9864892   -2.0495021   -9.0661272  
C    0.8175213    0.6860729    2.3021913  
C    0.0000000    0.0000000    1.4700000  
C   -0.8887526   -0.7456559    2.3478473  
C   -0.4549825   -0.3816753    3.7138435  
N    0.5448156    0.4573574    3.6934124  
C   -1.0945674   -0.9182058    4.8835240  
C   -2.1210866   -1.7789155    4.6970523  
O   -2.8083856   -2.3554314    5.6976972  
C   -2.5824069   -2.1655116    3.3310774  
O   -3.5227682   -2.9541547    3.2362962  
C   -1.9100805   -1.6015804    2.1470656  
H   -0.7567140   -0.6349833    5.8697035  
H   -3.4728268   -2.9124471    5.2533954  
H   -2.2742832   -1.9066565    1.1752040  
H    1.6189533    1.3585343    2.0405121  
