58

C    4.5546443   -2.0975051   -2.8456840  
C    3.3966020   -1.6333854   -2.3093944  
C    2.8128205   -0.7373021   -3.2794817  
C    3.7322609   -0.7172947   -4.4331799  
N    4.7679904   -1.5620813   -4.1068518  
C    3.5352968    0.0116910   -5.5607830  
C    2.3379414    0.8314600   -5.6435731  
O    2.0707007    1.5238123   -6.6169859  
C    1.3504332    0.8257214   -4.4333664  
O    0.3391712    1.5121844   -4.4914813  
C    1.6707636   -0.0012343   -3.2725974  
H    2.9970334   -1.8893867   -1.3442923  
H    4.2221663    0.0121013   -6.3957210  
H    5.2702684   -2.7854721   -2.4255958  
C    6.5104658   -3.0991337   -5.1264659  
C    7.5580252   -3.0375131   -5.9883809  
C    7.6650448   -1.6648901   -6.4234534  
C    6.5862466   -0.9265838   -5.7394283  
N    5.9227652   -1.8531656   -4.9686312  
C    6.3508468    0.4018628   -5.8861282  
C    7.2177236    1.1547035   -6.7773597  
O    7.0871499    2.3553799   -6.9764245  
C    8.3664806    0.3931265   -7.5123173  
O    9.1025153    1.0163527   -8.2653789  
C    8.5210321   -1.0396745   -7.2734704  
H    8.1841953   -3.8598106   -6.2856217  
H    5.5541196    0.9242217   -5.3749763  
H    9.3189825   -1.5595555   -7.7860344  
H    6.1182191   -3.9499811   -4.5934648  
C    1.0965514    0.0001358   -0.8010306  
C    0.0000000    0.0000000    0.0000000  
C   -1.1546565    0.0001470   -0.8669508  
C   -0.6372019    0.0003520   -2.2486278  
N    0.7342867    0.0007338   -2.1395012  
C   -1.4147744    0.0001354   -3.3608712  
C   -2.8576052   -0.0001047   -3.1854454  
O   -3.6427785   -0.0002490   -4.1244896  
C   -3.4275841   -0.0000727   -1.7311660  
O   -4.6406832    0.0000333   -1.5710049  
C   -2.4891868   -0.0001090   -0.6116739  
H   -1.0150456    0.0001617   -4.3654239  
H   -2.8919122   -0.0002919    0.3920871  
H    2.1388270    0.0000663   -0.5261650  
C    2.5528530    2.1414826    2.8079335  
C    2.0663498    1.7338582    4.0032312  
C    0.9804344    0.8229586    3.6752840  
C    0.9495562    0.7966882    2.1971295  
N    1.8690446    1.5676019    1.6831036  
C    0.0000000    0.0000000    1.4700000  
C   -0.8785127   -0.7372425    2.1869543  
O   -1.8187535   -1.5261249    1.6395491  
C   -0.8723269   -0.7321790    3.6796354  
O   -1.7010379   -1.4274584    4.2670412  
C    0.1115397    0.0933559    4.4024240  
H    2.4028853    2.0163452    4.9860947  
H   -2.2861435   -1.9184361    2.3990168  
H    0.0832434    0.0693689    5.4835595  
H    3.3664920    2.8238276    2.6198634  
