60

C    1.1243405    0.0100270   -0.7919011  
C    0.7474059    0.0234779   -2.1148551  
C   -0.6787398    0.0234286   -2.1414701  
C   -1.1201753    0.0098251   -0.7935549  
N    0.0000000    0.0000000    0.0000000  
C   -2.4730820    0.0062951   -0.4408238  
C   -3.3971968    0.0169942   -1.4675055  
O   -4.7313528    0.0144810   -1.1793456  
C   -2.9763670    0.0302601   -2.8186319  
O   -4.0166500    0.0393890   -3.7247613  
C   -1.6418584    0.0334762   -3.1673481  
H    1.4178693    0.0311414   -2.9571219  
H   -2.8160168   -0.0041972    0.5845969  
H   -5.1938835    0.0229277   -2.0274373  
H   -3.6464704    0.0481183   -4.6127336  
H    2.1062462    0.0053469   -0.3505421  
C   -0.2201715   -0.6516354   -5.1344353  
C   -1.2456361    0.0471353   -4.5828766  
C   -1.8642321    0.7990473   -5.6490858  
C   -1.1097058    0.4787363   -6.8758216  
N   -0.1264542   -0.4053972   -6.4958036  
C   -1.3840484    0.9897602   -8.1027263  
C   -2.4965753    1.9173118   -8.2230091  
O   -2.8231685    2.4316773   -9.2846429  
C   -3.3092978    2.2709620   -6.9368442  
O   -4.2479088    3.0509437   -7.0257222  
C   -2.9183445    1.6560857   -5.6707739  
H   -0.8181874    0.7416387   -8.9899390  
H   -3.4863015    1.9060251   -4.7849528  
H    0.4751036   -1.3255995   -4.6608804  
C    1.5865311   -4.4644909   -6.7888414  
C    0.8741249   -3.3685610   -6.4207512  
C    1.2587872   -2.2981386   -7.3101700  
C    2.2608549   -2.8643515   -8.2332374  
N    2.4150595   -4.1806690   -7.8638886  
C    2.8701895   -2.1694307   -9.2269682  
C    2.5155599   -0.7704037   -9.3987107  
O    3.0088020   -0.0596684  -10.2646600  
C    1.4568371   -0.1499579   -8.4322954  
O    1.1504944    1.0270121   -8.5670395  
C    0.8690474   -0.9995833   -7.3995840  
H    0.1607223   -3.3159617   -5.6176924  
H    3.6025372   -2.6037897   -9.8932343  
H    1.5761389   -5.4555462   -6.3650592  
H    3.0326877   -4.8349715   -8.3082667  
C    0.8175213    0.6860729    2.3021913  
C    0.0000000    0.0000000    1.4700000  
C   -0.8887526   -0.7456559    2.3478473  
C   -0.4549825   -0.3816753    3.7138435  
N    0.5448156    0.4573574    3.6934124  
C   -1.0945674   -0.9182058    4.8835240  
C   -2.1210866   -1.7789155    4.6970523  
O   -2.8083856   -2.3554314    5.6976972  
C   -2.5824069   -2.1655116    3.3310774  
O   -3.5227682   -2.9541547    3.2362962  
C   -1.9100805   -1.6015804    2.1470656  
H   -0.7567140   -0.6349833    5.8697035  
H   -3.4728268   -2.9124471    5.2533954  
H   -2.2742832   -1.9066565    1.1752040  
H    1.6189533    1.3585343    2.0405121  
