58

C    1.1319248    0.0015696   -0.8009268  
C    0.7969912    0.0034971   -2.1169400  
C   -0.6453339    0.0035684   -2.1842669  
C   -1.1266833    0.0015392   -0.7896024  
N    0.0000000    0.0000000    0.0000000  
C   -2.4346126    0.0013873   -0.4276294  
C   -3.4350110    0.0031282   -1.4820179  
O   -4.6384612    0.0030804   -1.2583909  
C   -2.9478963    0.0050398   -2.9661070  
O   -3.7809381    0.0062078   -3.8623773  
C   -1.5113830    0.0053032   -3.2312123  
H   -2.7664562    0.0000130    0.6013450  
H   -1.1823533    0.0068362   -4.2614848  
H    2.1104315    0.0009468   -0.3488058  
C    4.5953966   -2.1014890   -2.7684681  
C    4.9007896   -1.6358374   -4.0070072  
C    3.8360934   -0.7408463   -4.3946268  
C    2.8785335   -0.7231045   -3.2723281  
N    3.3968165   -1.5686630   -2.3187544  
C    1.7334691    0.0049309   -3.2500364  
C    1.4233467    0.8256481   -4.4088217  
O    0.4162238    1.5171702   -4.4849913  
C    2.4231572    0.8219202   -5.6088924  
O    2.1725267    1.5087261   -6.5900873  
C    3.6246487   -0.0037263   -5.5162700  
H    4.3119091   -0.0005742   -6.3513669  
H    5.1449916   -2.7892376   -2.1465060  
H    2.9710736   -1.7664948   -1.4318201  
C    6.6832727   -3.1948908   -4.9187231  
C    6.0920755   -1.9838117   -4.7948222  
C    6.8938433   -1.0893192   -5.6155233  
C    7.9567165   -1.9507055   -6.1766813  
N    7.8384029   -3.1860510   -5.7718197  
C    8.9696149   -1.4343886   -7.0556240  
C    8.9226047   -0.1174925   -7.3604351  
O    9.8033448    0.4979810   -8.1676088  
C    7.8623033    0.7776762   -6.8103504  
O    7.8809472    1.9661764   -7.1302578  
C    6.8344966    0.2241961   -5.9107962  
H    9.7345781   -2.0866848   -7.4509092  
H    9.5106192    1.4269012   -8.1915188  
H    6.0836899    0.9055895   -5.5336717  
H    6.3896917   -4.1269909   -4.4626825  
C    2.3971438    2.0127888    3.1728260  
C    1.9431056    1.6308205    1.9564670  
C    0.8496017    0.7127664    2.2356185  
C    0.7794028    0.6545384    3.7115134  
N    1.6840587    1.4146091    4.2663826  
C   -0.1885723   -0.1578550    4.3957118  
C   -1.0476298   -0.8789867    3.6398520  
O   -2.0015663   -1.6796266    4.1448486  
C   -1.0022026   -0.8410666    2.1483229  
O   -1.8147390   -1.5232959    1.5241687  
C    0.0000000    0.0000000    1.4700000  
H    2.3054237    1.9346118    0.9892483  
H   -0.2170646   -0.1815267    5.4753125  
H   -2.4487139   -2.0549881    3.3649027  
H    3.2048689    2.6911772    3.3971983  
