58

C   -3.2573544   -0.0091035   -1.5109382  
C   -2.5379369   -0.0071495   -0.3591961  
C   -1.1434991   -0.0033314   -0.7338498  
C   -1.1092557   -0.0031912   -2.2088475  
N   -2.4227454   -0.0071791   -2.6182608  
C    0.0265528    0.0003290   -2.9515659  
C    1.3002985    0.0040146   -2.2514974  
O    2.3786675    0.0072743   -2.8306420  
C    1.2877671    0.0036833   -0.6895604  
O    2.3539865    0.0064591   -0.0892031  
C    0.0000000    0.0000000    0.0000000  
H   -2.9383968   -0.0084388    0.6389238  
H    0.0296280    0.0004941   -4.0327229  
H   -2.7280417   -0.0065281   -3.5742114  
C   -5.6736347   -0.0157238   -0.7359117  
C   -4.7161153   -0.0130596   -1.6923260  
C   -5.4441004   -0.0148113   -2.9519025  
C   -6.8695232   -0.0187464   -2.5585351  
N   -7.0103013   -0.0192175   -1.2607791  
C   -7.9272500   -0.0213966   -3.5313115  
C   -7.5769077   -0.0197824   -4.8376770  
O   -8.4592094   -0.0219093   -5.8513731  
C   -6.1471091   -0.0154462   -5.2664168  
O   -5.9016154   -0.0143058   -6.4726307  
C   -5.0804286   -0.0128330   -4.2495041  
H   -7.9113207   -0.0199163   -6.6569576  
H   -4.0573757   -0.0095943   -4.6010469  
H   -5.5430472   -0.0155193    0.3345646  
C   -9.8917976    0.6584857   -2.0761708  
C   -9.3330218   -0.0255677   -3.1015585  
C  -10.4302248   -0.7740862   -3.6951628  
C  -11.6107576   -0.4138002   -2.8808405  
N  -11.3013090    0.4257086   -1.9303377  
C  -12.9147919   -0.9539171   -3.1507569  
C  -13.0341276   -1.8145270   -4.1873111  
O  -14.1903474   -2.3941694   -4.5522916  
C  -11.8616050   -2.1974399   -5.0279835  
O  -12.0436416   -2.9862074   -5.9553070  
C  -10.5343717   -1.6298680   -4.7309339  
H  -13.7599149   -0.6733517   -2.5392345  
H  -13.9581270   -2.9502025   -5.3178330  
H   -9.7105819   -1.9323388   -5.3634783  
H   -9.4091620    1.3320248   -1.3859667  
C    0.8175213    0.6860729    2.3021913  
C    0.0000000    0.0000000    1.4700000  
C   -0.8887526   -0.7456559    2.3478473  
C   -0.4549825   -0.3816753    3.7138435  
N    0.5448156    0.4573574    3.6934124  
C   -1.0945674   -0.9182058    4.8835240  
C   -2.1210866   -1.7789155    4.6970523  
O   -2.8083856   -2.3554314    5.6976972  
C   -2.5824069   -2.1655116    3.3310774  
O   -3.5227682   -2.9541547    3.2362962  
C   -1.9100805   -1.6015804    2.1470656  
H   -0.7567140   -0.6349833    5.8697035  
H   -3.4728268   -2.9124471    5.2533954  
H   -2.2742832   -1.9066565    1.1752040  
H    1.6189533    1.3585343    2.0405121  
