58

C    3.2798085    0.0005856   -1.4499649  
C    2.5571143    0.0005565   -2.5996559  
C    1.1637433    0.0001547   -2.2210360  
C    1.1336962   -0.0000200   -0.7459472  
N    2.4483513   -0.0001427   -0.3402725  
C    0.0000000    0.0000000    0.0000000  
C   -1.2757370   -0.0000187   -0.6964418  
O   -2.3524597   -0.0000639   -0.1142312  
C   -1.2676497   -0.0000874   -2.2584083  
O   -2.3355764   -0.0004102   -2.8557298  
C    0.0181558    0.0001758   -2.9516298  
H    2.9547351    0.0006074   -3.5989111  
H    4.3498549    0.0008611   -1.3200028  
H    2.7563628    0.0012824    0.6148065  
C    0.0139736    0.0003878   -4.4216241  
C    1.0778895    0.0017004   -5.2580809  
C    0.5039791    0.0012669   -6.5949156  
C   -0.9579668   -0.0005057   -6.3728911  
N   -1.2512405   -0.0009472   -5.1008931  
C   -1.8932246   -0.0013662   -7.4639358  
C   -1.3908374   -0.0001066   -8.7196985  
O   -2.1470615   -0.0007110   -9.8306288  
C    0.0796376    0.0020652   -8.9763288  
O    0.4660664    0.0029997  -10.1450427  
C    1.0185661    0.0028685   -7.8403987  
H    2.1230560    0.0029144   -4.9998129  
H   -1.5077404    0.0005464  -10.5657611  
H    2.0760187    0.0045651   -8.0684792  
C   -4.5937682    2.0065920   -4.5416747  
C   -3.4766013    1.6263946   -5.2042208  
C   -3.9438713    0.7081429   -6.2313393  
C   -5.4087708    0.6478746   -6.0389295  
N   -5.7955744    1.4070159   -5.0499517  
C   -6.2525759   -0.1653015   -6.8706890  
C   -5.6599346   -0.8852323   -7.8503883  
O   -6.3249022   -1.6864081   -8.7000801  
C   -4.1840105   -0.8452458   -8.0699565  
O   -3.7127993   -1.5264653   -8.9805168  
C   -3.3399614   -0.0034106   -7.2034582  
H   -2.4608941    1.9314678   -5.0188965  
H   -7.3201087   -0.1904697   -6.7074394  
H   -5.6360296   -2.0606070   -9.2785113  
H   -4.6723715    2.6845275   -3.7066907  
C    2.3971438    2.0127888    3.1728260  
C    1.9431056    1.6308205    1.9564670  
C    0.8496017    0.7127664    2.2356185  
C    0.7794028    0.6545384    3.7115134  
N    1.6840587    1.4146091    4.2663826  
C   -0.1885723   -0.1578550    4.3957118  
C   -1.0476298   -0.8789867    3.6398520  
O   -2.0015663   -1.6796266    4.1448486  
C   -1.0022026   -0.8410666    2.1483229  
O   -1.8147390   -1.5232959    1.5241687  
C    0.0000000    0.0000000    1.4700000  
H    2.3054237    1.9346118    0.9892483  
H   -0.2170646   -0.1815267    5.4753125  
H   -2.4487139   -2.0549881    3.3649027  
H    3.2048689    2.6911772    3.3971983  
