62

C   -3.3003348   -0.0115608   -1.4738976  
C   -2.5232667   -0.0087851   -2.6090741  
C   -1.1623149   -0.0037539   -2.1820099  
C   -1.1711822   -0.0039737   -0.7636137  
N   -2.4852215   -0.0068163   -0.3662350  
C    0.0000000    0.0000000    0.0000000  
C    1.2020312    0.0039664   -0.6806485  
O    2.3759132    0.0075934    0.0157737  
C    1.2314556    0.0046279   -2.0955514  
O    2.5054213    0.0091793   -2.6250188  
C    0.0764476    0.0009826   -2.8495196  
H   -2.8919825   -0.0091063   -3.6205293  
H   -2.8035816   -0.0181906    0.5858671  
H    3.0835468    0.0102736   -0.6418832  
H    2.4359867    0.0092962   -3.5845929  
H    0.1304030    0.0017779   -3.9319085  
C   -5.6708211   -0.0191139   -2.3611549  
C   -4.7630227   -0.0163985   -1.3275387  
C   -5.5133219   -0.0174486   -0.1144229  
C   -6.8854821   -0.0211453   -0.4737102  
N   -6.9456323   -0.0201197   -1.8452050  
C   -7.9149589   -0.0233851    0.4723142  
C   -7.5526461   -0.0221726    1.8053203  
O   -8.5176837   -0.0246029    2.7705718  
C   -6.1889539   -0.0181188    2.1836650  
O   -5.9909145   -0.0169609    3.5489936  
C   -5.1728235   -0.0156340    1.2509277  
H   -8.9626801   -0.0260606    0.2049664  
H   -8.0554100   -0.0229080    3.6188439  
H   -5.0439692   -0.0142134    3.7189671  
H   -4.1373856   -0.0123599    1.5708279  
H   -5.5098267   -0.0189672   -3.4255981  
C   -8.4300221   -0.7341869   -3.7754424  
C   -8.1810835   -0.0385019   -2.6415855  
C   -9.4085832    0.6953132   -2.3746389  
C  -10.3176097    0.3146724   -3.4770762  
N   -9.7495292   -0.5231335   -4.3013063  
C  -11.6530817    0.8359548   -3.5764032  
C  -12.0619874    1.6979990   -2.6177527  
O  -13.2816850    2.2613341   -2.5856399  
C  -11.1681535    2.1012283   -1.4923068  
O  -11.6066482    2.8901431   -0.6553140  
C   -9.8025971    1.5527562   -1.4125706  
H  -12.2957486    0.5407284   -4.3929387  
H  -13.2743889    2.8232604   -1.7898144  
H   -9.1864793    1.8696315   -0.5817763  
H   -7.7684919   -1.4025975   -4.3032478  
C    0.0000000    0.0000000    1.4700000  
C    1.0662921    0.0000102    2.3034270  
C    0.4961870   -0.0000064    3.6418889  
C   -0.9663858    0.0000850    3.4240247  
N   -1.2632773    0.0000084    2.1528658  
C   -1.8985362    0.0000517    4.5177257  
C   -1.3925775   -0.0004564    5.7720543  
O   -2.1456383   -0.0005410    6.8851312  
C    0.0786232   -0.0009323    6.0245000  
O    0.4683759   -0.0012588    7.1921102  
C    1.0143166   -0.0008442    4.8859032  
H    2.1107198   -0.0000632    2.0421868  
H   -2.9622183    0.0003270    4.3293377  
H   -1.5042274   -0.0009692    7.6184419  
H    2.0724152   -0.0013148    5.1109744  
