58

C    3.2798081    0.0005858   -1.4499647  
C    2.5571143    0.0005565   -2.5996555  
C    1.1637432    0.0001548   -2.2210360  
C    1.1336963   -0.0000200   -0.7459475  
N    2.4483512   -0.0001427   -0.3402721  
C    0.0000000    0.0000000    0.0000000  
C   -1.2757371   -0.0000186   -0.6964413  
O   -2.3524597   -0.0000640   -0.1142312  
C   -1.2676500   -0.0000874   -2.2584082  
O   -2.3355764   -0.0004102   -2.8557296  
C    0.0181557    0.0001759   -2.9516298  
H    2.9547347    0.0006075   -3.5989106  
H    4.3498548    0.0008613   -1.3200025  
H    2.7563627    0.0012824    0.6148056  
C    2.5654228   -2.1380210   -5.7671300  
C    2.0750614   -1.7307734   -6.9609784  
C    0.9890570   -0.8211466   -6.6298091  
C    0.9623546   -0.7951240   -5.1515689  
N    1.8841704   -1.5650741   -4.6402744  
C    0.0139734    0.0003876   -4.4216239  
C   -0.8674063    0.7367422   -5.1359668  
O   -1.8069748    1.5244844   -4.5857733  
C   -0.8654615    0.7319007   -6.6286605  
O   -1.6966240    1.4263295   -7.2136038  
C    0.1172749   -0.0924197   -7.3543666  
H   -2.2769659    1.9163776   -5.3438504  
H    0.0858757   -0.0683088   -8.4354139  
H    3.3803624   -2.8194747   -5.5814760  
C    2.9225102   -3.3388414   -8.7315917  
C    2.5311833   -2.1157706   -8.3043439  
C    2.6587358   -1.2531366   -9.4688573  
C    3.1532414   -2.1441682  -10.5403569  
N    3.3096945   -3.3680316  -10.1141288  
C    3.4119021   -1.6643266  -11.8699934  
C    3.1864193   -0.3539954  -12.1180339  
O    3.3848251    0.2287366  -13.3126463  
C    2.6871104    0.5705157  -11.0577832  
O    2.5042589    1.7510870  -11.3544942  
C    2.4293826    0.0542315   -9.7017030  
H    3.7731075   -2.3377541  -12.6334955  
H    3.1384009    1.1615578  -13.1774705  
H    2.0681638    0.7561059   -8.9620262  
H    2.9718737   -4.2555593   -8.1657600  
C    0.8175213    0.6860729    2.3021913  
C    0.0000000    0.0000000    1.4700000  
C   -0.8887526   -0.7456559    2.3478473  
C   -0.4549825   -0.3816753    3.7138435  
N    0.5448156    0.4573574    3.6934124  
C   -1.0945674   -0.9182058    4.8835240  
C   -2.1210866   -1.7789155    4.6970523  
O   -2.8083856   -2.3554314    5.6976972  
C   -2.5824069   -2.1655116    3.3310774  
O   -3.5227682   -2.9541547    3.2362962  
C   -1.9100805   -1.6015804    2.1470656  
H   -0.7567140   -0.6349833    5.8697035  
H   -3.4728268   -2.9124471    5.2533954  
H   -2.2742832   -1.9066565    1.1752040  
H    1.6189533    1.3585343    2.0405121  
