62

C    4.1072309   -0.7191034   -4.4475461  
C    3.0267439   -0.0008958   -3.9901693  
C    2.5087349    0.7258910   -5.1028450  
C    3.3206458    0.4084330   -6.2217500  
N    4.2827396   -0.4698441   -5.7885964  
C    3.1000334    0.9464840   -7.4932137  
C    2.0403153    1.8207013   -7.6378508  
O    1.7797478    2.3748838   -8.8576868  
C    1.2191171    2.1500691   -6.5333300  
O    0.2053889    3.0346599   -6.8386149  
C    1.4363353    1.6198567   -5.2786521  
H    4.9963749   -0.8790804   -6.3641242  
H    1.0098914    2.9463160   -8.7391489  
H   -0.3015560    3.2041262   -6.0386827  
H    0.7906454    1.8909166   -4.4515550  
H    4.7674530   -1.3883367   -3.9229585  
C    3.3003550    0.0005271   -1.4738980  
C    2.5232818    0.0003492   -2.6090740  
C    1.1623204   -0.0001324   -2.1820096  
C    1.1711884    0.0000582   -0.7636136  
N    2.4852300   -0.0014919   -0.3662355  
C    0.0000000    0.0000000    0.0000000  
C   -1.2020384    0.0000519   -0.6806474  
O   -2.3759249    0.0003495    0.0157742  
C   -1.2314655   -0.0005117   -2.0955509  
O   -2.5054387   -0.0008042   -2.6250186  
C   -0.0764509   -0.0007278   -2.8495195  
H    2.8036264    0.0088184    0.5858664  
H   -3.0835635    0.0000345   -0.6418820  
H   -2.4360043   -0.0011535   -3.5845924  
H   -0.1304089   -0.0013428   -3.9319088  
H    4.3715554    0.0004891   -1.3667124  
C    3.9364605    0.6231674   -8.6580122  
C    5.0071381   -0.2028765   -8.7116873  
C    5.4498236   -0.1536070  -10.0966429  
C    4.5076667    0.7758364  -10.7562334  
N    3.6183497    1.2344356   -9.9179063  
C    4.6085718    1.0971826  -12.1532443  
C    5.6056130    0.5167142  -12.8591481  
O    5.8177541    0.7258877  -14.1695996  
C    6.5725052   -0.4252411  -12.2219659  
O    7.4550908   -0.9167301  -12.9253164  
C    6.4480027   -0.7388901  -10.7873755  
H    5.4427718   -0.7749125   -7.9103922  
H    3.9062084    1.7795622  -12.6092634  
H    6.5940586    0.1783059  -14.3856045  
H    7.1682330   -1.4258225  -10.3635574  
C    2.3971438    2.0127888    3.1728260  
C    1.9431056    1.6308205    1.9564670  
C    0.8496017    0.7127664    2.2356185  
C    0.7794028    0.6545384    3.7115134  
N    1.6840587    1.4146091    4.2663826  
C   -0.1885723   -0.1578550    4.3957118  
C   -1.0476298   -0.8789867    3.6398520  
O   -2.0015663   -1.6796266    4.1448486  
C   -1.0022026   -0.8410666    2.1483229  
O   -1.8147390   -1.5232959    1.5241687  
C    0.0000000    0.0000000    1.4700000  
H    2.3054237    1.9346118    0.9892483  
H   -0.2170646   -0.1815267    5.4753125  
H   -2.4487139   -2.0549881    3.3649027  
H    3.2048689    2.6911772    3.3971983  
