58

C    3.1301152   -0.0010311   -1.7028248  
C    2.5367767   -0.0002766   -0.4864663  
C    1.1089906    0.0001028   -0.7656180  
C    1.0177872   -0.0004148   -2.2415129  
N    2.1993581   -0.0011610   -2.7963816  
C   -0.2459210   -0.0002877   -2.9257117  
C   -1.3675316   -0.0000605   -2.1698524  
O   -2.6129307    0.0000866   -2.6748494  
C   -1.3083586    0.0000911   -0.6783233  
O   -2.3693263    0.0004206   -0.0541693  
C    0.0000000    0.0000000    0.0000000  
H    3.0096017   -0.0001007    0.4807526  
H   -3.1967436    0.0002093   -1.8949037  
C    5.6039779   -0.0014371   -1.1379120  
C    4.5679462   -0.0016852   -2.0086697  
C    5.1852106   -0.0028975   -3.3260469  
C    6.6391268   -0.0031436   -3.0563953  
N    6.8907017   -0.0023714   -1.7754976  
C    7.6095179   -0.0043134   -4.1163127  
C    7.1484104   -0.0055863   -5.3878123  
O    7.9405131   -0.0067605   -6.4734520  
C    5.6870991   -0.0057477   -5.6923302  
O    5.3390451   -0.0068138   -6.8730408  
C    4.7115731   -0.0044882   -4.5876710  
H    8.6658411   -0.0042611   -3.8902799  
H    7.3255410   -0.0075177   -7.2290714  
H    3.6621316   -0.0047652   -4.8501656  
H    5.5656912   -0.0006307   -0.0601797  
C   -0.2963280   -0.0005339   -4.3948472  
C    0.7407584   -0.0008424   -5.2643476  
C    0.1250922   -0.0009651   -6.5824732  
C   -1.3291498   -0.0008024   -6.3145845  
N   -1.5822781   -0.0004687   -5.0339934  
C   -2.2982555   -0.0008136   -7.3756789  
C   -1.8356058   -0.0005908   -8.6466195  
O   -2.6263915   -0.0005806   -9.7332194  
C   -0.3739267   -0.0003762   -8.9493645  
O   -0.0244410   -0.0003032  -10.1296528  
C    0.6002594   -0.0004128   -7.8435228  
H    1.7935301   -0.0008806   -5.0390746  
H   -3.3548522   -0.0008990   -7.1509277  
H   -2.0105034   -0.0003707  -10.4880931  
H    1.6500179   -0.0001373   -8.1047442  
C    0.8681109    0.7263879    2.2709268  
C    0.6127770    0.5096195    3.5869401  
C   -0.4920590   -0.4175482    3.6542670  
C   -0.8620974   -0.7254003    2.2596025  
N    0.0000000    0.0000000    1.4700000  
C   -1.8641242   -1.5660088    1.8976294  
C   -2.6293522   -2.2103885    2.9520183  
O   -3.5512764   -2.9839180    2.7283916  
C   -2.2549728   -1.8987399    4.4361073  
O   -2.8923672   -2.4351063    5.3323774  
C   -1.1543735   -0.9755647    4.7012123  
H    1.1382914    0.9492124    4.4159191  
H   -2.1192137   -1.7782617    0.8686553  
H   -0.9013378   -0.7652422    5.7314848  
H    1.6172880    1.3558399    1.8188057  
