58

C    0.2055739   -0.7043959   -5.1603477  
C   -0.8712826    0.0001710   -4.7267111  
C   -1.3726447    0.7423359   -5.8592582  
C   -0.4933186    0.4099884   -6.9964127  
N    0.4429028   -0.4710986   -6.5064482  
C   -0.6357679    0.9095507   -8.2501475  
C   -1.7278975    1.8365869   -8.4958965  
O   -1.9397499    2.3410845   -9.5908403  
C   -2.6713157    2.2028687   -7.3061049  
O   -3.5940523    2.9825344   -7.5008824  
C   -2.4172085    1.5997592   -6.0001415  
H    0.0202135    0.6527125   -9.0702891  
H   -3.0751241    1.8584032   -5.1816215  
H    0.8458871   -1.3742665   -4.6097462  
C    1.9558952   -2.3891629   -7.1921951  
C    2.9763095   -2.6368521   -8.0532869  
C    3.2341092   -1.4074699   -8.7653225  
C    2.2733726   -0.4161343   -8.2447173  
N    1.5273207   -1.0743986   -7.2944628  
C    2.1949418    0.8722496   -8.6637886  
C    3.1182398    1.3118393   -9.6966568  
O    3.1268621    2.4524178  -10.1408492  
C    4.1440352    0.2787465  -10.2625786  
O    4.9261671    0.6372240  -11.1326497  
C    4.1325297   -1.0819136   -9.7312368  
H    3.4896939   -3.5738870   -8.1758262  
H    1.4828374    1.5833836   -8.2686869  
H    4.8461027   -1.7910852  -10.1282421  
H    1.4807850   -3.0565498   -6.4916563  
C    1.0965514    0.0001359   -0.8010305  
C    0.0000000    0.0000000    0.0000000  
C   -1.1546563    0.0001470   -0.8669513  
C   -0.6372014    0.0003519   -2.2486282  
N    0.7342871    0.0007337   -2.1395014  
C   -1.4147739    0.0001352   -3.3608717  
C   -2.8576049   -0.0001048   -3.1854462  
O   -3.6427779   -0.0002494   -4.1244907  
C   -3.4275840   -0.0000725   -1.7311666  
O   -4.6406831    0.0000333   -1.5710060  
C   -2.4891867   -0.0001091   -0.6116744  
H   -2.8919122   -0.0002918    0.3920866  
H    2.1388272    0.0000663   -0.5261648  
H    1.3735872   -0.0006099   -2.9130262  
C    0.0000000    0.0000000    1.4700000  
C    1.0662921    0.0000102    2.3034270  
C    0.4961870   -0.0000064    3.6418889  
C   -0.9663858    0.0000850    3.4240247  
N   -1.2632773    0.0000084    2.1528658  
C   -1.8985362    0.0000517    4.5177257  
C   -1.3925775   -0.0004564    5.7720543  
O   -2.1456383   -0.0005410    6.8851312  
C    0.0786232   -0.0009323    6.0245000  
O    0.4683759   -0.0012588    7.1921102  
C    1.0143166   -0.0008442    4.8859032  
H    2.1107198   -0.0000632    2.0421868  
H   -2.9622183    0.0003270    4.3293377  
H   -1.5042274   -0.0009692    7.6184419  
H    2.0724152   -0.0013148    5.1109744  
