58

C    1.9999929   -2.1070892   -5.1447764  
C    1.9105680   -1.6426499   -6.4177158  
C    0.7784262   -0.7475275   -6.4606979  
C    0.2115589   -0.7283878   -5.0986827  
N    0.9973795   -1.5733448   -4.3494006  
C   -0.8712820    0.0001708   -4.7267112  
C   -1.5219791    0.8200161   -5.7351668  
O   -2.5037630    1.5119145   -5.4992076  
C   -0.9387690    0.8148040   -7.1841817  
O   -1.4783577    1.5008660   -8.0417500  
C    0.2330312   -0.0112905   -7.4640111  
H    2.5631048   -1.8981144   -7.2335260  
H    0.6308010   -0.0091677   -8.4697441  
H    0.8643851   -1.7702172   -3.3744130  
C    1.0965515    0.0001358   -0.8010305  
C    0.0000000    0.0000000    0.0000000  
C   -1.1546563    0.0001469   -0.8669514  
C   -0.6372011    0.0003518   -2.2486282  
N    0.7342874    0.0007336   -2.1395013  
C   -1.4147735    0.0001349   -3.3608718  
C   -2.8576044   -0.0001050   -3.1854466  
O   -3.6427774   -0.0002497   -4.1244912  
C   -3.4275835   -0.0000731   -1.7311675  
O   -4.6406827    0.0000327   -1.5710069  
C   -2.4891864   -0.0001094   -0.6116751  
H   -2.8919123   -0.0002921    0.3920859  
H    2.1388273    0.0000663   -0.5261648  
H    1.3735875   -0.0006099   -2.9130261  
C    2.9735234   -3.0445983   -4.5666631  
C    4.0085748   -3.6584310   -5.1859019  
C    4.6366901   -4.4680536   -4.1531955  
C    3.8298256   -4.2161337   -2.9398979  
N    2.8534253   -3.3825779   -3.1761521  
C    4.1318052   -4.8417214   -1.6819097  
C    5.1914308   -5.6811310   -1.6380927  
O    5.5873507   -6.3329403   -0.5315516  
C    6.0248768   -5.9560660   -2.8455444  
O    6.9745316   -6.7310601   -2.7325820  
C    5.6948022   -5.3020771   -4.1243224  
H    4.3087101   -3.5725036   -6.2162471  
H    3.5252937   -4.6392524   -0.8112435  
H    6.3633401   -6.8504601   -0.8129175  
H    6.3229615   -5.5276598   -4.9756499  
C    2.5528530    2.1414826    2.8079335  
C    2.0663498    1.7338582    4.0032312  
C    0.9804344    0.8229586    3.6752840  
C    0.9495562    0.7966882    2.1971295  
N    1.8690446    1.5676019    1.6831036  
C    0.0000000    0.0000000    1.4700000  
C   -0.8785127   -0.7372425    2.1869543  
O   -1.8187535   -1.5261249    1.6395491  
C   -0.8723269   -0.7321790    3.6796354  
O   -1.7010379   -1.4274584    4.2670412  
C    0.1115397    0.0933559    4.4024240  
H    2.4028853    2.0163452    4.9860947  
H   -2.2861435   -1.9184361    2.3990168  
H    0.0832434    0.0693689    5.4835595  
H    3.3664920    2.8238276    2.6198634  
