60

C    3.3003552    0.0005276   -1.4738980  
C    2.5232822    0.0003497   -2.6090742  
C    1.1623210   -0.0001319   -2.1820102  
C    1.1711889    0.0000583   -0.7636142  
N    2.4852305   -0.0014919   -0.3662355  
C    0.0000000    0.0000000    0.0000000  
C   -1.2020381    0.0000520   -0.6806483  
O   -2.3759252    0.0003496    0.0157737  
C   -1.2314649   -0.0005113   -2.0955516  
O   -2.5054380   -0.0008037   -2.6250188  
C   -0.0764507   -0.0007272   -2.8495199  
H    2.8036268    0.0088180    0.5858669  
H   -3.0835632    0.0000349   -0.6418826  
H   -2.4360041   -0.0011526   -3.5845928  
H   -0.1304082   -0.0013421   -3.9319088  
H    4.3715554    0.0004893   -1.3667123  
C    4.0912594   -0.7049387   -4.4540730  
C    3.0267448   -0.0008952   -3.9901694  
C    2.4918049    0.7392283   -5.1086021  
C    3.3379767    0.4062536   -6.2704581  
N    4.2890161   -0.4732104   -5.8068234  
C    3.1585244    0.9039806   -7.5201656  
C    2.0587104    1.8295626   -7.7352070  
O    1.8145057    2.3323674   -8.8241751  
C    1.1499704    2.1964768   -6.5189127  
O    0.2211191    2.9749316   -6.6877463  
C    1.4426654    1.5953879   -5.2201159  
H    3.7906033    0.6467125   -8.3587354  
H    0.8086039    1.8544577   -4.3831137  
H    4.7480576   -1.3734090   -3.9214824  
C    5.8129352   -2.3477223   -6.5833528  
C    5.3506549   -1.0764565   -6.6253078  
C    6.1353406   -0.4260814   -7.6634699  
C    7.0482847   -1.4799355   -8.1559217  
N    6.8638713   -2.6086035   -7.5265652  
C    8.0014366   -1.2327117   -9.2025668  
C    8.0405072    0.0106798   -9.7334015  
O    8.8796442    0.3814919  -10.7154338  
C    7.1319485    1.0954711   -9.2581007  
O    7.2227611    2.2034318   -9.7866813  
C    6.1629362    0.8169505   -8.1832212  
H    8.6565117   -2.0214126   -9.5427682  
H    8.6711654    1.3190297  -10.8788724  
H    5.5225163    1.6295441   -7.8673348  
H    5.4880143   -3.1517125   -5.9422600  
C    2.5528530    2.1414826    2.8079335  
C    2.0663498    1.7338582    4.0032312  
C    0.9804344    0.8229586    3.6752840  
C    0.9495562    0.7966882    2.1971295  
N    1.8690446    1.5676019    1.6831036  
C    0.0000000    0.0000000    1.4700000  
C   -0.8785127   -0.7372425    2.1869543  
O   -1.8187535   -1.5261249    1.6395491  
C   -0.8723269   -0.7321790    3.6796354  
O   -1.7010379   -1.4274584    4.2670412  
C    0.1115397    0.0933559    4.4024240  
H    2.4028853    2.0163452    4.9860947  
H   -2.2861435   -1.9184361    2.3990168  
H    0.0832434    0.0693689    5.4835595  
H    3.3664920    2.8238276    2.6198634  
