58

C    1.0965517    0.0001357   -0.8010303  
C    0.0000000    0.0000000    0.0000000  
C   -1.1546559    0.0001468   -0.8669513  
C   -0.6372014    0.0003518   -2.2486279  
N    0.7342875    0.0007336   -2.1395010  
C   -1.4147734    0.0001352   -3.3608717  
C   -2.8576047   -0.0001048   -3.1854460  
O   -3.6427777   -0.0002494   -4.1244909  
C   -3.4275841   -0.0000724   -1.7311669  
O   -4.6406823    0.0000332   -1.5710061  
C   -2.4891866   -0.0001090   -0.6116746  
H   -1.0150442    0.0001614   -4.3654247  
H   -2.8919121   -0.0002917    0.3920862  
H    2.1388273    0.0000661   -0.5261641  
C    4.5566859   -2.0943516   -2.8440014  
C    3.3981929   -1.6309283   -2.3080836  
C    2.8135377   -0.7361952   -3.2788908  
C    3.7329572   -0.7162214   -4.4326065  
N    4.7695091   -1.5597360   -4.1056005  
C    3.5352823    0.0116643   -5.5607961  
C    2.3371289    0.8302000   -5.6442437  
O    2.0692130    1.5215077   -6.6182129  
C    1.3496283    0.8244739   -4.4340310  
O    0.3376980    1.5099051   -4.4926968  
C    1.6707647   -0.0012347   -3.2725970  
H    2.9988748   -1.8865416   -1.3427751  
H    4.2221499    0.0120713   -6.3957353  
H    5.2729796   -2.7812829   -2.4233609  
C    6.9433680   -5.2882539   -4.9154356  
C    7.8733575   -4.8212060   -5.7878234  
C    7.6269590   -3.4076513   -5.9490301  
C    6.4689025   -3.0871560   -5.0928885  
N    6.1016157   -4.2701074   -4.4940429  
C    5.9245662   -1.8503893   -4.9671474  
C    6.5188023   -0.7623500   -5.7258232  
O    6.1009831    0.3872883   -5.6804435  
C    7.7457824   -1.0789712   -6.6391012  
O    8.2542881   -0.1710592   -7.2828237  
C    8.2432590   -2.4514064   -6.6919358  
H    8.6439022   -5.4008119   -6.2641944  
H    9.0932870   -2.6622643   -7.3265344  
H    6.8019836   -6.2906194   -4.5450794  
H    5.3406884   -4.3769309   -3.8485774  
C    0.8175213    0.6860729    2.3021913  
C    0.0000000    0.0000000    1.4700000  
C   -0.8887526   -0.7456559    2.3478473  
C   -0.4549825   -0.3816753    3.7138435  
N    0.5448156    0.4573574    3.6934124  
C   -1.0945674   -0.9182058    4.8835240  
C   -2.1210866   -1.7789155    4.6970523  
O   -2.8083856   -2.3554314    5.6976972  
C   -2.5824069   -2.1655116    3.3310774  
O   -3.5227682   -2.9541547    3.2362962  
C   -1.9100805   -1.6015804    2.1470656  
H   -0.7567140   -0.6349833    5.8697035  
H   -3.4728268   -2.9124471    5.2533954  
H   -2.2742832   -1.9066565    1.1752040  
H    1.6189533    1.3585343    2.0405121  
