58

C    3.1301146   -0.0010311   -1.7028257  
C    2.5367758   -0.0002767   -0.4864668  
C    1.1089899    0.0001027   -0.7656184  
C    1.0177861   -0.0004148   -2.2415133  
N    2.1993568   -0.0011611   -2.7963824  
C   -0.2459219   -0.0002877   -2.9257117  
C   -1.3675318   -0.0000604   -2.1698524  
O   -2.6129311    0.0000867   -2.6748491  
C   -1.3083598    0.0000910   -0.6783228  
O   -2.3693273    0.0004206   -0.0541686  
C    0.0000000    0.0000000    0.0000000  
H    3.0096011   -0.0001008    0.4807520  
H   -0.2829643   -0.0004686   -4.0053122  
H   -3.1967440    0.0002094   -1.8949030  
C    6.5698745   -0.0006428    0.9721598  
C    7.6069601   -0.0018568    0.1026596  
C    6.9912933   -0.0024304   -1.2154657  
C    5.5370515   -0.0015106   -0.9475772  
N    5.2839239   -0.0003802    0.3330143  
C    4.5679455   -0.0016853   -2.0086708  
C    5.0305943   -0.0023424   -3.2796113  
O    4.2398084   -0.0025847   -4.3662106  
C    6.4922737   -0.0029067   -3.5823570  
O    6.8417587   -0.0036171   -4.7626453  
C    7.4664600   -0.0027579   -2.4765155  
H    8.6597316   -0.0022171    0.3279319  
H    4.8556968   -0.0030410   -5.1210845  
H    6.6068541    0.0001031    2.0499376  
C   11.1237823   -2.0159892   -0.9159597  
C    9.8338675   -1.6337622   -1.0629373  
C    9.8409142   -0.7159971   -2.1917230  
C   11.2561946   -0.6582021   -2.6162525  
N   12.0129211   -1.4182571   -1.8721623  
C   11.6865891    0.1538113   -3.7210064  
C   10.7458218    0.8749932   -4.3723033  
O   11.0057046    1.6753068   -5.4201582  
C    9.3093924    0.8375059   -3.9680423  
O    8.5076576    1.5197569   -4.6059885  
C    8.8929582   -0.0031758   -2.8314853  
H    8.9826936   -1.9372090   -0.4777039  
H   12.7273667    0.1771706   -4.0093594  
H   10.1409502    2.0508044   -5.6658305  
H   11.5364047   -2.6942866   -0.1861457  
C    2.5528530    2.1414826    2.8079335  
C    2.0663498    1.7338582    4.0032312  
C    0.9804344    0.8229586    3.6752840  
C    0.9495562    0.7966882    2.1971295  
N    1.8690446    1.5676019    1.6831036  
C    0.0000000    0.0000000    1.4700000  
C   -0.8785127   -0.7372425    2.1869543  
O   -1.8187535   -1.5261249    1.6395491  
C   -0.8723269   -0.7321790    3.6796354  
O   -1.7010379   -1.4274584    4.2670412  
C    0.1115397    0.0933559    4.4024240  
H    2.4028853    2.0163452    4.9860947  
H   -2.2861435   -1.9184361    2.3990168  
H    0.0832434    0.0693689    5.4835595  
H    3.3664920    2.8238276    2.6198634  
