58

C    0.0000000    0.0000000    0.0000000  
C    1.0541693   -0.0001723   -0.8560387  
C    0.5103147   -0.0000456   -2.1935954  
C   -0.9576362    0.0002458   -2.0455734  
N   -1.2018452   -0.0001392   -0.6915973  
C   -1.8348299    0.0008314   -3.0810616  
C   -1.2972829    0.0009735   -4.4314608  
O   -2.0050649    0.0014262   -5.4301328  
C    0.2542648    0.0004182   -4.6117572  
O    0.7184698    0.0002254   -5.7439116  
C    1.0974567    0.0000872   -3.4189126  
H    2.0940757   -0.0005483   -0.5817976  
H    2.1707290   -0.0000912   -3.5523662  
H   -2.1128189    0.0014911   -0.2706799  
C   -3.2941061    0.0012872   -2.9038251  
C   -3.9928917    0.0012411   -1.7448266  
C   -5.3903257    0.0018076   -2.1493958  
C   -5.3503919    0.0022630   -3.6275667  
N   -4.1243019    0.0018800   -4.0755544  
C   -6.5485024    0.0028438   -4.4210506  
C   -7.7326777    0.0025751   -3.7675502  
O   -8.9284306    0.0030578   -4.3809146  
C   -7.8059009    0.0017434   -2.2766448  
O   -8.9180020    0.0016638   -1.7489580  
C   -6.5627953    0.0012025   -1.4850567  
H   -3.6076316    0.0007786   -0.7395153  
H   -6.4897352    0.0033745   -5.4996866  
H   -9.5790577    0.0026677   -3.6557686  
C   -4.3186803    2.1070438    1.6474693  
C   -4.9719844    1.6417707    2.7432748  
C   -6.0018276    0.7466890    2.2709533  
C   -5.8941577    0.7284813    0.7996048  
N   -4.8552149    1.5738842    0.4853111  
C   -6.6930516    0.0002336   -0.0208394  
C   -7.7281557   -0.8202368    0.5857273  
O   -8.4981294   -1.5119206   -0.0677366  
C   -7.8604345   -0.8160152    2.1420980  
O   -8.7283920   -1.5026101    2.6641109  
C   -6.9406292    0.0098238    2.9204294  
H   -4.7571129    1.8966582    3.7657600  
H   -7.0387110    0.0070137    3.9975070  
H   -3.4905478    2.7947291    1.5911186  
H   -4.5346616    1.7714073   -0.4448919  
C    3.3321173   -0.0004715    2.8079335  
C    2.6974184   -0.0000116    4.0032312  
C    1.2800439    0.0002118    3.6752840  
C    1.2395035   -0.0000644    2.1971295  
N    2.4394063   -0.0005460    1.6831036  
C    0.0000000    0.0000000    1.4700000  
C   -1.1468701   -0.0000635    2.1869543  
O   -2.3742202   -0.0000073    1.6395491  
C   -1.1388768   -0.0001607    3.6796354  
O   -2.2206231   -0.0000905    4.2670412  
C    0.1454524   -0.0001816    4.4024240  
H    3.1367986    0.0000651    4.9860947  
H   -2.9844344   -0.0001026    2.3990168  
H    0.1083576   -0.0003682    5.4835595  
H    4.3940039   -0.0007619    2.6198634  
