58

C   -0.9538468    0.5409270   -0.8010306  
C    0.0000000    0.0000000    0.0000000  
C    1.0042464   -0.5698419   -0.8669517  
C    0.5540638   -0.3147048   -2.2486285  
N   -0.6390446    0.3616635   -2.1395014  
C    1.2305028   -0.6981749   -3.3608718  
C    2.4855946   -1.4098677   -3.1854466  
O    3.1686088   -1.7971507   -4.1244909  
C    2.9813457   -1.6911263   -1.7311670  
O    4.0364461   -2.2897682   -1.5710060  
C    2.1651465   -1.2280841   -0.6116749  
H    0.8828056   -0.5009694   -4.3654247  
H    2.5155269   -1.4266321    0.3920864  
H   -1.8603832    1.0552520   -0.5261648  
C   -3.0107563    4.0225972   -3.0543723  
C   -2.2213000    3.1343974   -2.4067308  
C   -2.0948745    2.0091930   -3.3202028  
C   -2.8933297    2.3975555   -4.5026693  
N   -3.4325527    3.5768464   -4.3526669  
C   -3.0231926    1.5396555   -5.6481953  
C   -2.3841207    0.3481177   -5.6141516  
O   -2.4184263   -0.5507714   -6.6125818  
C   -1.5704073   -0.0722371   -4.4354516  
O   -1.0162563   -1.1707410   -4.4732213  
C   -1.4526204    0.8254384   -3.2725976  
H   -1.7792643    3.2309067   -1.4298141  
H   -3.6132583    1.8488659   -6.4985606  
H   -1.8718692   -1.2929260   -6.2969313  
C   -3.1607319    5.9146855   -1.3937961  
C   -3.4627064    5.3410151   -2.5870219  
C   -4.3067856    6.2708762   -3.2995686  
C   -4.4729794    7.4417076   -2.4173424  
N   -3.7538875    7.1626890   -1.2780687  
C   -5.2036086    8.5419606   -2.7293193  
C   -5.8710064    8.5751235   -4.0200612  
O   -6.5522448    9.5210093   -4.3935786  
C   -5.7089494    7.3460067   -4.9702276  
O   -6.2664370    7.3623992   -6.0593548  
C   -4.8954622    6.2181374   -4.5230135  
H   -5.3125831    9.3901668   -2.0678206  
H   -4.7881025    5.3711025   -5.1868886  
H   -2.5549500    5.5306523   -0.5891615  
H   -3.6709199    7.7726547   -0.4855374  
C    2.3971438    2.0127888    3.1728260  
C    1.9431056    1.6308205    1.9564670  
C    0.8496017    0.7127664    2.2356185  
C    0.7794028    0.6545384    3.7115134  
N    1.6840587    1.4146091    4.2663826  
C   -0.1885723   -0.1578550    4.3957118  
C   -1.0476298   -0.8789867    3.6398520  
O   -2.0015663   -1.6796266    4.1448486  
C   -1.0022026   -0.8410666    2.1483229  
O   -1.8147390   -1.5232959    1.5241687  
C    0.0000000    0.0000000    1.4700000  
H    2.3054237    1.9346118    0.9892483  
H   -0.2170646   -0.1815267    5.4753125  
H   -2.4487139   -2.0549881    3.3649027  
H    3.2048689    2.6911772    3.3971983  
