58

C   -3.2573531    0.0097044   -1.5109374  
C   -2.5379358    0.0075046   -0.3591955  
C   -1.1434995    0.0032711   -0.7338496  
C   -1.1092566    0.0032135   -2.2088472  
N   -2.4227475    0.0068098   -2.6182604  
C    0.0265537    0.0001756   -2.9515662  
C    1.3002989   -0.0034934   -2.2514983  
O    2.3786687   -0.0064601   -2.8306427  
C    1.2877664   -0.0037522   -0.6895611  
O    2.3539852   -0.0071328   -0.0892040  
C    0.0000000    0.0000000    0.0000000  
H   -2.9383964    0.0085275    0.6389242  
H    0.0296297    0.0003230   -4.0327232  
H   -2.7280345    0.0092237   -3.5742108  
C   -5.6505901    0.0153853   -0.6678789  
C   -6.9152179    0.0173530   -1.1626391  
C   -6.8040582    0.0170401   -2.6022498  
C   -5.3606573    0.0146829   -2.9078290  
N   -4.7161123    0.0141711   -1.6923246  
C   -4.8400631    0.0133302   -4.1610986  
C   -5.7629530    0.0144842   -5.2839553  
O   -5.3925398    0.0134804   -6.4506148  
C   -7.2958057    0.0172329   -4.9836885  
O   -8.0824352    0.0185305   -5.9209580  
C   -7.7361396    0.0182189   -3.5908653  
H   -3.7780063    0.0114754   -4.3634381  
H   -8.7991382    0.0199183   -3.3914791  
H   -5.3226647    0.0149368    0.3589385  
C   -8.3784825    0.7249974    0.7655986  
C   -8.1552085    0.0196519   -0.3731337  
C   -9.3628015   -0.7206162   -0.6534153  
C  -10.3147462   -0.3863069    0.4230738  
N   -9.6567671    0.4939889    1.2507405  
C  -11.5738133   -0.8837524    0.5179568  
C  -12.0211465   -1.8104176   -0.5085517  
O  -13.1372261   -2.3130703   -0.5115616  
C  -11.0295458   -2.1787528   -1.6578402  
O  -11.3948627   -2.9581272   -2.5275406  
C   -9.6981046   -1.5778442   -1.6528496  
H  -12.2562710   -0.6254987    1.3157450  
H   -9.0176049   -1.8379009   -2.4522339  
H   -7.7166666    1.3939621    1.2913130  
H  -10.0459838    0.9067820    2.0784844  
C    2.5528530    2.1414826    2.8079335  
C    2.0663498    1.7338582    4.0032312  
C    0.9804344    0.8229586    3.6752840  
C    0.9495562    0.7966882    2.1971295  
N    1.8690446    1.5676019    1.6831036  
C    0.0000000    0.0000000    1.4700000  
C   -0.8785127   -0.7372425    2.1869543  
O   -1.8187535   -1.5261249    1.6395491  
C   -0.8723269   -0.7321790    3.6796354  
O   -1.7010379   -1.4274584    4.2670412  
C    0.1115397    0.0933559    4.4024240  
H    2.4028853    2.0163452    4.9860947  
H   -2.2861435   -1.9184361    2.3990168  
H    0.0832434    0.0693689    5.4835595  
H    3.3664920    2.8238276    2.6198634  
