60

C   -1.0725985    0.3373047   -0.7919014  
C   -0.7181969    0.2082316   -2.1148554  
C    0.6384097   -0.2316663   -2.1414703  
C    1.0625126   -0.3549030   -0.7935549  
N    0.0000000    0.0000000    0.0000000  
C    2.3505259   -0.7688969   -0.4408238  
C    3.2262705   -1.0641495   -1.4675054  
O    4.4961336   -1.4733263   -1.1793458  
C    2.8218728   -0.9469481   -2.8186316  
O    3.8086037   -1.2765437   -3.7247614  
C    1.5514568   -0.5383315   -3.1673482  
H   -1.3583251    0.4077701   -2.9571216  
H    2.6799720   -0.8647065    0.5845968  
H    4.9335006   -1.6240445   -2.0274371  
H    3.4537857   -1.1706521   -4.6127337  
H   -2.0051720    0.6446599   -0.3505418  
C    1.1703450   -0.4290952   -4.5828766  
C   -0.0215927   -0.0476728   -5.0980274  
C    0.1531511   -0.1190408   -6.5405503  
C    1.5482045   -0.5733570   -6.7249606  
N    2.1494551   -0.7568442   -5.5809248  
C    2.1177424   -0.7714046   -8.0293722  
C    1.3293371   -0.5270839   -9.1008481  
O    1.7299333   -0.6700818  -10.3756483  
C   -0.0826969   -0.0679786   -8.9474080  
O   -0.7422123    0.1352534   -9.9667002  
C   -0.6438208    0.1278465   -7.5988098  
H   -0.9097430    0.2457742   -4.5649668  
H    3.1401469   -1.1038405   -8.1346575  
H    0.9526661   -0.4238181  -10.9089049  
C   -2.6703730    3.0133815   -4.9411406  
C   -1.7544691    2.2240295   -5.5592977  
C   -2.4539140    1.4973194   -6.5924986  
C   -3.8624805    1.9311323   -6.5251404  
N   -3.9273415    2.8502464   -5.5034202  
C   -4.8474630    1.4743210   -7.3392892  
C   -4.4969387    0.4895148   -8.3491529  
O   -5.3125075    0.0169181   -9.1300499  
C   -3.0112474    0.0156180   -8.4383070  
O   -2.7042731   -0.8133856   -9.2843449  
C   -2.0392096    0.5807661   -7.5057827  
H   -0.7083110    2.1582094   -5.3188091  
H   -5.8744728    1.8056923   -7.2733022  
H   -2.5328895    3.7003887   -4.1219892  
H   -4.7592094    3.3302515   -5.2124942  
C    0.0000000    0.0000000    1.4700000  
C    1.0662921    0.0000102    2.3034270  
C    0.4961870   -0.0000064    3.6418889  
C   -0.9663858    0.0000850    3.4240247  
N   -1.2632773    0.0000084    2.1528658  
C   -1.8985362    0.0000517    4.5177257  
C   -1.3925775   -0.0004564    5.7720543  
O   -2.1456383   -0.0005410    6.8851312  
C    0.0786232   -0.0009323    6.0245000  
O    0.4683759   -0.0012588    7.1921102  
C    1.0143166   -0.0008442    4.8859032  
H    2.1107198   -0.0000632    2.0421868  
H   -2.9622183    0.0003270    4.3293377  
H   -1.5042274   -0.0009692    7.6184419  
H    2.0724152   -0.0013148    5.1109744  
