58

C   -3.9687257    2.7672500   -1.3068085  
C   -2.8482502    2.1159987   -1.7123719  
C   -3.2295286    1.2720669   -2.8201812  
C   -4.6743335    1.4865944   -3.0282840  
N   -5.0618044    2.4035750   -2.0785980  
C   -5.4133068    0.8697074   -3.9848786  
C   -4.7408280   -0.0682912   -4.8683195  
O   -5.3190421   -0.6742644   -5.7609363  
C   -3.2111577   -0.3110330   -4.6658591  
O   -2.6342544   -1.0987397   -5.4033969  
C   -2.5226238    0.4130913   -3.6002997  
H   -1.8667032    2.2153157   -1.2842196  
H   -6.4720810    1.0413238   -4.1207266  
H   -5.9945149    2.7560133   -1.9650838  
C    0.0000000    0.0000000    0.0000000  
C   -1.0402957    0.1704629   -0.8560389  
C   -0.5036049    0.0824820   -2.1935954  
C    0.9450184   -0.1549421   -2.0455737  
N    1.1860831   -0.1940122   -0.6915975  
C    1.8105964   -0.2972244   -3.0810616  
C    1.2800867   -0.2105279   -4.4314612  
O    1.9784993   -0.3253122   -5.4301331  
C   -0.2509921    0.0406609   -4.6117574  
O   -0.7090696    0.1158396   -5.7439121  
C   -1.0830566    0.1771994   -3.4189125  
H   -2.0664827    0.3388234   -0.5817975  
H    2.8697198   -0.4709348   -2.9507076  
H    2.0848282   -0.3427820   -0.2706801  
C   -4.1313058    3.7421413   -0.2186655  
C   -3.1858493    4.2105056    0.6288756  
C   -3.8886657    5.1432560    1.4963580  
C   -5.2878110    5.1145567    1.0187044  
N   -5.4361493    4.2949682    0.0135877  
C   -6.3158741    5.9136163    1.6267142  
C   -5.9623454    6.7050667    2.6649620  
O   -6.8182857    7.5027688    3.3260809  
C   -4.5587061    6.7557313    3.1703246  
O   -4.3086322    7.4990002    4.1191323  
C   -3.5222189    5.9266576    2.5298130  
H   -2.1406173    3.9545636    0.6614320  
H   -7.3300737    5.8730423    1.2570351  
H   -6.2753055    7.9380271    4.0078986  
H   -2.5175493    5.9918559    2.9255629  
C    3.1301144    0.0010313    3.1728260  
C    2.5367765    0.0002768    1.9564670  
C    1.1089900   -0.0001027    2.2356185  
C    1.0177864    0.0004150    3.7115134  
N    2.1993570    0.0011613    4.2663826  
C   -0.2459220    0.0002880    4.3957118  
C   -1.3675327    0.0000606    3.6398520  
O   -2.6129319   -0.0000866    4.1448486  
C   -1.3083589   -0.0000910    2.1483229  
O   -2.3693264   -0.0004206    1.5241687  
C    0.0000000    0.0000000    1.4700000  
H    3.0096015    0.0001008    0.9892483  
H   -0.2829642    0.0004689    5.4753125  
H   -3.1967446   -0.0002093    3.3649027  
H    4.1849273    0.0015113    3.3971983  
