58

C   -1.1319185    0.0039065   -0.8009265  
C   -0.7969986    0.0003587   -2.1169399  
C    0.6453096   -0.0066905   -2.1842666  
C    1.1266632   -0.0069899   -0.7896019  
N    0.0000000    0.0000000    0.0000000  
C    2.4345780   -0.0131657   -0.4276288  
C    3.4349559   -0.0197462   -1.4820178  
O    4.6383927   -0.0255204   -1.2583902  
C    2.9478379   -0.0193009   -2.9661066  
O    3.7808645   -0.0244992   -3.8623763  
C    1.5113395   -0.0126151   -3.2312122  
H    2.7664242   -0.0133968    0.6013454  
H    1.1823071   -0.0125561   -4.2614844  
H   -2.1104111    0.0092632   -0.3488058  
C   -1.7334723    0.0034555   -3.2500363  
C   -3.0863160    0.0092246   -3.2131614  
C   -3.4995527    0.0098873   -4.6080576  
C   -2.2334018    0.0040289   -5.3718712  
N   -1.1947562    0.0001597   -4.5811822  
C   -2.2116454    0.0028000   -6.8087468  
C   -3.4007218    0.0068339   -7.4532741  
O   -3.5293526    0.0062670   -8.7909942  
C   -4.6955553    0.0124132   -6.7106195  
O   -5.7398141    0.0160097   -7.3623332  
C   -4.6914412    0.0136155   -5.2368807  
H   -3.7249420    0.0125219   -2.3464303  
H   -4.4909183    0.0097917   -8.9476234  
H   -5.6504141    0.0175915   -4.7362963  
C    1.5592872   -2.1190714   -6.0597020  
C    2.2885682   -1.6582788   -7.1084604  
C    1.4364169   -0.7602379   -7.8515602  
C    0.1416261   -0.7354114   -7.1446719  
N    0.2816769   -1.5801969   -6.0678187  
C   -0.9326075   -0.0027996   -7.5332679  
C   -0.8051128    0.8157186   -8.7275494  
O   -1.7155326    1.5109830   -9.1588767  
C    0.5569557    0.8045102   -9.4920415  
O    0.6760490    1.4894071  -10.4990142  
C    1.6424531   -0.0255958   -8.9758326  
H    3.3071592   -1.9179930   -7.3356923  
H    2.5823847   -0.0276158   -9.5108547  
H    1.8476196   -2.8071492   -5.2816896  
H   -0.4333545   -1.7737335   -5.3908248  
C    2.3971438    2.0127888    3.1728260  
C    1.9431056    1.6308205    1.9564670  
C    0.8496017    0.7127664    2.2356185  
C    0.7794028    0.6545384    3.7115134  
N    1.6840587    1.4146091    4.2663826  
C   -0.1885723   -0.1578550    4.3957118  
C   -1.0476298   -0.8789867    3.6398520  
O   -2.0015663   -1.6796266    4.1448486  
C   -1.0022026   -0.8410666    2.1483229  
O   -1.8147390   -1.5232959    1.5241687  
C    0.0000000    0.0000000    1.4700000  
H    2.3054237    1.9346118    0.9892483  
H   -0.2170646   -0.1815267    5.4753125  
H   -2.4487139   -2.0549881    3.3649027  
H    3.2048689    2.6911772    3.3971983  
