60

C    1.1243353    0.0105905   -0.7919006  
C    0.7473943    0.0238517   -2.1148545  
C   -0.6787511    0.0230872   -2.1414699  
C   -1.1201797    0.0092629   -0.7935547  
N    0.0000000    0.0000000    0.0000000  
C   -2.4730852    0.0050546   -0.4408234  
C   -3.3972050    0.0152897   -1.4675052  
O   -4.7313597    0.0121079   -1.1793461  
C   -2.9763814    0.0287659   -2.8186319  
O   -4.0166691    0.0373733   -3.7247613  
C   -1.6418747    0.0326515   -3.1673479  
H   -2.8160142   -0.0056097    0.5845976  
H   -5.1938938    0.0203222   -2.0274371  
H   -3.6464943    0.0462878   -4.6127335  
H   -1.3497712    0.0428676   -4.2109230  
H    2.1062430    0.0064026   -0.3505409  
C    2.8198362   -0.6677298   -3.3744987  
C    1.6628757    0.0347745   -3.2649302  
C    1.5099691    0.7874339   -4.4876153  
C    2.6810671    0.4634926   -5.3245033  
N    3.4363134   -0.4232432   -4.5922515  
C    2.9070243    0.9740368   -6.5614318  
C    1.9318251    1.9048656   -7.1046434  
O    2.0453930    2.4190888   -8.2096216  
C    0.6841112    2.2623883   -6.2356244  
O   -0.1435483    3.0451486   -6.6823093  
C    0.5500224    1.6476767   -4.9172916  
H    3.7725231    0.7232275   -7.1588572  
H   -0.3168598    1.9003083   -4.3219628  
H    3.2740801   -1.3433136   -2.6680015  
C    5.1285669   -2.2943970   -4.8646179  
C    4.7029616   -1.0214503   -5.0379549  
C    5.7761338   -0.3631353   -5.7669417  
C    6.7985388   -1.4147128   -5.9552432  
N    6.4244883   -2.5489963   -5.4284826  
C    8.0343296   -1.1599315   -6.6429890  
C    8.2392497    0.0885173   -7.1212337  
O    9.3463708    0.4665726   -7.7825939  
C    7.2264320    1.1711860   -6.9474883  
O    7.4797613    2.2840393   -7.4085772  
C    5.9666576    0.8848770   -6.2383192  
H    8.7637886   -1.9471268   -6.7659636  
H    9.2001227    1.4062747   -7.9940748  
H    5.2587997    1.6961610   -6.1335101  
H    4.6174134   -3.1037297   -4.3679528  
C    2.5528530    2.1414826    2.8079335  
C    2.0663498    1.7338582    4.0032312  
C    0.9804344    0.8229586    3.6752840  
C    0.9495562    0.7966882    2.1971295  
N    1.8690446    1.5676019    1.6831036  
C    0.0000000    0.0000000    1.4700000  
C   -0.8785127   -0.7372425    2.1869543  
O   -1.8187535   -1.5261249    1.6395491  
C   -0.8723269   -0.7321790    3.6796354  
O   -1.7010379   -1.4274584    4.2670412  
C    0.1115397    0.0933559    4.4024240  
H    2.4028853    2.0163452    4.9860947  
H   -2.2861435   -1.9184361    2.3990168  
H    0.0832434    0.0693689    5.4835595  
H    3.3664920    2.8238276    2.6198634  
