60

C   -3.3041232    0.0064568   -1.5420398  
C   -2.5845322    0.0056207   -0.3695828  
C   -1.2039993    0.0023964   -0.7283578  
C   -1.1422396    0.0016690   -2.1454364  
N   -2.4348672    0.0022339   -2.6077441  
C    0.0655126   -0.0010103   -2.8497916  
C    1.2321704   -0.0026844   -2.1101410  
O    2.4392731   -0.0049686   -2.7472546  
C    1.1911172   -0.0023693   -0.6955280  
O    2.4371472   -0.0046175   -0.1032889  
C    0.0000000    0.0000000    0.0000000  
H   -3.0031471    0.0060418    0.6222612  
H   -2.7054473    0.0124931   -3.5745231  
H    0.1193475   -0.0017221   -3.9297473  
H    3.1132901   -0.0061302   -2.0551820  
H    2.3200255   -0.0042093    0.8516386  
C   -4.7577163    0.0089541   -1.7610415  
C   -5.7406947    0.0122646   -0.8308149  
C   -6.9792840    0.0135142   -1.5939617  
C   -6.5459610    0.0106506   -3.0077535  
N   -5.2447597    0.0078898   -3.1119529  
C   -7.4885852    0.0108277   -4.0924404  
C   -8.8042911    0.0133446   -3.7789987  
O   -9.7927559    0.0138200   -4.6894812  
C   -9.2730961    0.0158977   -2.3618266  
O  -10.4857399    0.0182436   -2.1503751  
C   -8.2866053    0.0157054   -1.2669479  
H   -5.6379666    0.0135933    0.2408761  
H   -7.1438342    0.0089030   -5.1161846  
H  -10.6134385    0.0157711   -4.1644777  
C   -8.8032425    0.0181266    0.1092715  
C   -8.0978870    0.0185164    1.2642832  
C   -9.1020289    0.0212354    2.3169897  
C  -10.3947264    0.0223303    1.5989949  
N  -10.2259236    0.0204364    0.3045873  
C  -11.6517944    0.0249666    2.2953124  
C  -11.6189535    0.0260533    3.6474423  
O  -12.7151680    0.0285035    4.4248417  
C  -10.3303338    0.0246229    4.4008450  
O  -10.3758070    0.0258566    5.6309468  
C   -9.0541692    0.0219641    3.6637415  
H   -7.0282756    0.0170399    1.3867795  
H  -12.5814083    0.0259224    1.7451054  
H  -12.3724021    0.0286857    5.3367979  
H   -8.1426755    0.0208787    4.2463291  
C    0.8175213    0.6860729    2.3021913  
C    0.0000000    0.0000000    1.4700000  
C   -0.8887526   -0.7456559    2.3478473  
C   -0.4549825   -0.3816753    3.7138435  
N    0.5448156    0.4573574    3.6934124  
C   -1.0945674   -0.9182058    4.8835240  
C   -2.1210866   -1.7789155    4.6970523  
O   -2.8083856   -2.3554314    5.6976972  
C   -2.5824069   -2.1655116    3.3310774  
O   -3.5227682   -2.9541547    3.2362962  
C   -1.9100805   -1.6015804    2.1470656  
H   -0.7567140   -0.6349833    5.8697035  
H   -3.4728268   -2.9124471    5.2533954  
H   -2.2742832   -1.9066565    1.1752040  
H    1.6189533    1.3585343    2.0405121  
