60

C    1.1188646    0.0008226   -0.8003804  
C    0.0000000    0.0000000    0.0000000  
C   -1.1323862    0.0008896   -0.8673522  
C   -0.6382659    0.0019677   -2.1969274  
N    0.7324021    0.0038484   -2.1202236  
C   -1.4770910    0.0027315   -3.3154805  
C   -2.8395469    0.0020939   -3.0876856  
O   -3.7039197    0.0024417   -4.1440350  
C   -3.3517869    0.0013922   -1.7684325  
O   -4.7300491    0.0012352   -1.7073121  
C   -2.5248542    0.0009116   -0.6644816  
H    1.3576318   -0.0056163   -2.9057038  
H   -4.5940029    0.0021815   -3.7685127  
H   -4.9934600    0.0007250   -0.7819914  
H   -2.9462576    0.0005593    0.3339654  
H    2.1619893    0.0009359   -0.5342063  
C    0.1166616   -0.7214345   -5.1522985  
C    0.3273818   -0.5035452   -6.4760040  
C   -0.6880510    0.4234399   -6.9169464  
C   -1.5135277    0.7299635   -5.7331297  
N   -0.9736292    0.0040463   -4.6965760  
C   -2.5793559    1.5700278   -5.7355905  
C   -2.9375154    2.2151825   -6.9878017  
O   -3.8806689    2.9883095   -7.0928594  
C   -2.0773313    1.9049433   -8.2541505  
O   -2.3694869    2.4419715   -9.3141069  
C   -0.9520259    0.9822472   -8.1269833  
H   -3.1715411    1.7813044   -4.8560518  
H   -0.3613266    0.7729020   -9.0084441  
H    0.6660045   -1.3511262   -4.4714163  
C    2.0131355   -4.5574941   -6.5600933  
C    2.9386903   -4.3956909   -7.5405232  
C    2.8458151   -3.0250852   -7.9851020  
C    1.7826803   -2.3971389   -7.1775017  
N    1.3181624   -3.3792200   -6.3333278  
C    1.3906262   -1.1032347   -7.2950185  
C    2.0602955   -0.2737811   -8.2829887  
O    1.7792156    0.9035775   -8.4649836  
C    3.1889599   -0.9180662   -9.1494861  
O    3.7596974   -0.2296520   -9.9847136  
C    3.5232836   -2.3231589   -8.9308683  
H    3.6097586   -5.1504033   -7.9102391  
H    4.3060577   -2.7616454   -9.5347874  
H    1.7801283   -5.4384306   -5.9842911  
H    0.5882590   -3.2580714   -5.6553814  
C    2.5528530    2.1414826    2.8079335  
C    2.0663498    1.7338582    4.0032312  
C    0.9804344    0.8229586    3.6752840  
C    0.9495562    0.7966882    2.1971295  
N    1.8690446    1.5676019    1.6831036  
C    0.0000000    0.0000000    1.4700000  
C   -0.8785127   -0.7372425    2.1869543  
O   -1.8187535   -1.5261249    1.6395491  
C   -0.8723269   -0.7321790    3.6796354  
O   -1.7010379   -1.4274584    4.2670412  
C    0.1115397    0.0933559    4.4024240  
H    2.4028853    2.0163452    4.9860947  
H   -2.2861435   -1.9184361    2.3990168  
H    0.0832434    0.0693689    5.4835595  
H    3.3664920    2.8238276    2.6198634  
