58

C    2.5049806   -2.0931565   -5.9399561  
C    1.9571820   -1.6308521   -4.7865848  
C    0.8879546   -0.7344215   -5.1580690  
C    0.8574975   -0.7122319   -6.6329826  
N    1.8627391   -1.5562152   -7.0453792  
C   -0.0149277    0.0176855   -7.3731166  
C   -0.9887732    0.8362264   -6.6701578  
O   -1.8166674    1.5292762   -7.2468494  
C   -0.9745395    0.8281733   -5.1082557  
O   -1.7894804    1.5135872   -4.5054785  
C    0.0139741    0.0003876   -4.4216236  
H    2.2669046   -1.8882735   -3.7893789  
H   -0.0204604    0.0196986   -8.4542617  
H    2.0929225   -1.7534655   -8.0020166  
C    4.3378323   -3.6282905   -5.1374465  
C    3.6218743   -3.0308848   -6.1246574  
C    4.1677328   -3.4927002   -7.3790896  
C    5.2682636   -4.4147592   -7.0393412  
N    5.3197424   -4.4530723   -5.6650149  
C    6.0371425   -5.0630819   -7.9504983  
C    5.7625768   -4.8375125   -9.3598476  
O    6.3991631   -5.3746944  -10.2567841  
C    4.6018979   -3.8648131   -9.7425830  
O    4.3616231   -3.6668434  -10.9259415  
C    3.8430795   -3.2247506   -8.6709640  
H    6.8395078   -5.7354171   -7.6801575  
H    3.0409218   -2.5528037   -8.9443773  
H    4.2308931   -3.5352458   -4.0688982  
H    5.9691270   -4.9979855   -5.1279712  
C    3.2798085    0.0005853   -1.4499648  
C    2.5571144    0.0005562   -2.5996554  
C    1.1637436    0.0001546   -2.2210360  
C    1.1336965   -0.0000201   -0.7459470  
N    2.4483513   -0.0001430   -0.3402717  
C    0.0000000    0.0000000    0.0000000  
C   -1.2757367   -0.0000188   -0.6964414  
O   -2.3524597   -0.0000640   -0.1142313  
C   -1.2676494   -0.0000875   -2.2584081  
O   -2.3355762   -0.0004102   -2.8557294  
C    0.0181562    0.0001757   -2.9516296  
H    2.9547357    0.0006072   -3.5989105  
H    4.3498550    0.0008609   -1.3200021  
H    2.7563627    0.0012824    0.6148063  
C    0.8175213    0.6860729    2.3021913  
C    0.0000000    0.0000000    1.4700000  
C   -0.8887526   -0.7456559    2.3478473  
C   -0.4549825   -0.3816753    3.7138435  
N    0.5448156    0.4573574    3.6934124  
C   -1.0945674   -0.9182058    4.8835240  
C   -2.1210866   -1.7789155    4.6970523  
O   -2.8083856   -2.3554314    5.6976972  
C   -2.5824069   -2.1655116    3.3310774  
O   -3.5227682   -2.9541547    3.2362962  
C   -1.9100805   -1.6015804    2.1470656  
H   -0.7567140   -0.6349833    5.8697035  
H   -3.4728268   -2.9124471    5.2533954  
H   -2.2742832   -1.9066565    1.1752040  
H    1.6189533    1.3585343    2.0405121  
