62

C    3.3041272    0.0001177   -1.5420434  
C    2.5845370   -0.0004780   -0.3695851  
C    1.2040004   -0.0000009   -0.7283586  
C    1.1422373    0.0006035   -2.1454377  
N    2.4348637    0.0026107   -2.6077466  
C   -0.0655184    0.0008795   -2.8497920  
C   -1.2321773    0.0002321   -2.1101396  
O   -2.4392818    0.0001142   -2.7472517  
C   -1.1911213   -0.0000008   -0.6955263  
O   -2.4371528   -0.0002322   -0.1032857  
C    0.0000000    0.0000000    0.0000000  
H    3.0031534   -0.0000660    0.6222583  
H   -0.1193551    0.0014839   -3.9297468  
H   -3.1132995   -0.0000650   -2.0551788  
H   -2.3200282   -0.0004072    0.8516412  
H    4.3686622    0.0004073   -1.7024294  
C    5.6928652   -2.1325520   -4.8023231  
C    4.8437654   -1.6629839   -3.8271294  
C    3.9187210   -0.7861193   -4.4674434  
C    4.2553071   -0.7600055   -5.8451058  
N    5.3381028   -1.5868707   -6.0138198  
C    3.5511949    0.0032252   -6.7813181  
C    2.4877422    0.7535302   -6.3184054  
O    1.7657453    1.5166936   -7.1897919  
C    2.1367186    0.7408777   -4.9474784  
O    1.0544921    1.5406693   -4.6434021  
C    2.8310660   -0.0116222   -4.0232754  
H    4.8866013   -1.9198940   -2.7825456  
H    5.7930173   -1.7762038   -6.8885700  
H    1.0801159    1.9528830   -6.6673787  
H    0.8837164    1.4751238   -3.6988685  
H    6.5243667   -2.8124293   -4.7293100  
C    3.8932280    0.0362953   -8.2105903  
C    4.8899831   -0.6241548   -8.8445186  
C    4.7721716   -0.2308935  -10.2402142  
C    3.6202087    0.6957436  -10.2703721  
N    3.1009499    0.8563156   -9.0835382  
C    3.1728629    1.3141219  -11.4879834  
C    3.8459788    1.0204534  -12.6237689  
O    3.5380148    1.5252330  -13.8305816  
C    5.0127205    0.0893947  -12.6257422  
O    5.5780523   -0.1323454  -13.6964672  
C    5.4522543   -0.5322924  -11.3639035  
H    5.6156248   -1.2952401   -8.4177107  
H    2.3279822    1.9872007  -11.4808386  
H    4.1918393    1.1335032  -14.4373880  
H    6.3015866   -1.2008392  -11.4076065  
C    0.0000000    0.0000000    1.4700000  
C    1.0662921    0.0000102    2.3034270  
C    0.4961870   -0.0000064    3.6418889  
C   -0.9663858    0.0000850    3.4240247  
N   -1.2632773    0.0000084    2.1528658  
C   -1.8985362    0.0000517    4.5177257  
C   -1.3925775   -0.0004564    5.7720543  
O   -2.1456383   -0.0005410    6.8851312  
C    0.0786232   -0.0009323    6.0245000  
O    0.4683759   -0.0012588    7.1921102  
C    1.0143166   -0.0008442    4.8859032  
H    2.1107198   -0.0000632    2.0421868  
H   -2.9622183    0.0003270    4.3293377  
H   -1.5042274   -0.0009692    7.6184419  
H    2.0724152   -0.0013148    5.1109744  
