62

C    1.1243400    0.0100500   -0.7919010  
C    0.7474052    0.0234928   -2.1148550  
C   -0.6787406    0.0234143   -2.1414695  
C   -1.1201754    0.0098019   -0.7935541  
N    0.0000000    0.0000000    0.0000000  
C   -2.4730823    0.0062441   -0.4408232  
C   -3.3971975    0.0169240   -1.4675048  
O   -4.7313531    0.0143835   -1.1793446  
C   -2.9763680    0.0301984   -2.8186306  
O   -4.0166520    0.0393063   -3.7247603  
C   -1.6418601    0.0334421   -3.1673475  
H   -2.8160164   -0.0042554    0.5845986  
H   -5.1938846    0.0228207   -2.0274351  
H   -3.6464723    0.0480426   -4.6127324  
H   -1.3497516    0.0435180   -4.2109228  
H    2.1062459    0.0053899   -0.3505419  
C    4.6036339   -2.0930716   -2.9144245  
C    3.4418649   -1.6362332   -2.3364471  
C    2.8381164   -0.7399517   -3.2674505  
C    3.6839306   -0.6894178   -4.4049794  
N    4.7475931   -1.5210622   -4.1567729  
C    3.3988584    0.0973662   -5.5250210  
C    2.2386550    0.8465548   -5.4963344  
O    1.9118972    1.6321378   -6.5636216  
C    1.3821518    0.8097215   -4.3703406  
O    0.2663906    1.6116414   -4.4942143  
C    1.6628913    0.0339758   -3.2649309  
H    3.0752696   -1.9138828   -1.3630448  
H    4.0394695    0.1403668   -6.3950614  
H    1.0768251    2.0632292   -6.3398371  
H   -0.2582085    1.5289057   -3.6919960  
H    5.3416944   -2.7805788   -2.5381801  
C    6.9088618   -5.2060673   -5.1731363  
C    7.7889481   -4.7077327   -6.0793292  
C    7.5225714   -3.2930143   -6.1909138  
C    6.4071761   -3.0059320   -5.2688142  
N    6.0811353   -4.2073661   -4.6830301  
C    5.8594620   -1.7782052   -5.0833396  
C    6.4047726   -0.6653261   -5.8427287  
O    5.9800330    0.4786056   -5.7461993  
C    7.5860401   -0.9463963   -6.8252828  
O    8.0531570   -0.0173600   -7.4702270  
C    8.0918469   -2.3120659   -6.9391137  
H    8.5390089   -5.2673539   -6.6092786  
H    8.9100366   -2.4982494   -7.6214812  
H    6.7951800   -6.2189171   -4.8222781  
H    5.3551921   -4.3381450   -4.0026247  
C    0.8175213    0.6860729    2.3021913  
C    0.0000000    0.0000000    1.4700000  
C   -0.8887526   -0.7456559    2.3478473  
C   -0.4549825   -0.3816753    3.7138435  
N    0.5448156    0.4573574    3.6934124  
C   -1.0945674   -0.9182058    4.8835240  
C   -2.1210866   -1.7789155    4.6970523  
O   -2.8083856   -2.3554314    5.6976972  
C   -2.5824069   -2.1655116    3.3310774  
O   -3.5227682   -2.9541547    3.2362962  
C   -1.9100805   -1.6015804    2.1470656  
H   -0.7567140   -0.6349833    5.8697035  
H   -3.4728268   -2.9124471    5.2533954  
H   -2.2742832   -1.9066565    1.1752040  
H    1.6189533    1.3585343    2.0405121  
