58

C    3.2573668   -0.0002920   -1.5109379  
C    2.5379467   -0.0001710   -0.3591960  
C    1.1435040    0.0000332   -0.7338495  
C    1.1092603   -0.0000082   -2.2088472  
N    2.4227559    0.0001909   -2.6182607  
C   -0.0265537   -0.0002523   -2.9515654  
C   -1.3003041   -0.0002640   -2.2514973  
O   -2.3786787   -0.0004131   -2.8306424  
C   -1.2877728    0.0000312   -0.6895600  
O   -2.3539956    0.0003307   -0.0892030  
C    0.0000000    0.0000000    0.0000000  
H    2.9384089   -0.0000367    0.6389240  
H   -0.0296296   -0.0004085   -4.0327227  
H    4.3270393   -0.0004766   -1.6439440  
C    5.7077615   -2.0955290   -4.6950678  
C    4.8321760   -1.6318731   -3.7663869  
C    3.9281494   -0.7371777   -4.4498269  
C    4.3518499   -0.7174793   -5.8629371  
N    5.4355520   -1.5611011   -5.9452790  
C    3.7483560    0.0102942   -6.8365108  
C    2.6053636    0.8289907   -6.4679465  
O    1.9941032    1.5202154   -7.2722291  
C    2.1395164    0.8235571   -4.9770537  
O    1.1785715    1.5091256   -4.6548103  
C    2.8699637   -0.0020525   -4.0185822  
H    4.8209984   -1.8873090   -2.7217620  
H    6.5291166   -2.7825107   -4.5712830  
H    5.9483424   -1.7597065   -6.7847131  
C    5.1526113   -3.2698664   -9.3377332  
C    5.4073847   -2.6448012  -10.5107476  
C    5.0717577   -1.2493678  -10.2728006  
C    4.6187706   -1.2096834   -8.8657420  
N    4.6640519   -2.3911103   -8.3124166  
C    4.1923785    0.0105723   -8.2378476  
C    4.2177481    1.1399176   -8.9816689  
O    3.8476771    2.3482425   -8.5244611  
C    4.6700456    1.1323468  -10.4041768  
O    4.6670188    2.1975240  -11.0211127  
C    5.1025608   -0.1320523  -11.0255870  
H    5.7774629   -3.0772388  -11.4245941  
H    3.9754097    2.9492146   -9.2805489  
H    5.4231137   -0.0952919  -12.0581203  
H    5.2731547   -4.3153754   -9.1024603  
C    0.0000000    0.0000000    1.4700000  
C    1.0662921    0.0000102    2.3034270  
C    0.4961870   -0.0000064    3.6418889  
C   -0.9663858    0.0000850    3.4240247  
N   -1.2632773    0.0000084    2.1528658  
C   -1.8985362    0.0000517    4.5177257  
C   -1.3925775   -0.0004564    5.7720543  
O   -2.1456383   -0.0005410    6.8851312  
C    0.0786232   -0.0009323    6.0245000  
O    0.4683759   -0.0012588    7.1921102  
C    1.0143166   -0.0008442    4.8859032  
H    2.1107198   -0.0000632    2.0421868  
H   -2.9622183    0.0003270    4.3293377  
H   -1.5042274   -0.0009692    7.6184419  
H    2.0724152   -0.0013148    5.1109744  
