60

C    0.0000000    0.0000000    0.0000000  
C    1.0521663   -0.0011902   -0.8862345  
C    0.4917215   -0.0011956   -2.1979133  
C   -0.9187430    0.0003149   -2.0478683  
N   -1.1833172   -0.0009411   -0.7007910  
C   -1.7951704    0.0010351   -3.1372088  
C   -1.2375840    0.0005226   -4.4010423  
O   -2.0474221    0.0015361   -5.4997580  
C    0.1673576   -0.0013565   -4.5711965  
O    0.5673516   -0.0020685   -5.8915550  
C    1.0325767   -0.0023411   -3.4969892  
H    2.0953056   -0.0030649   -0.6200563  
H   -2.0989778    0.0102372   -0.2891821  
H   -1.4634890    0.0006499   -6.2693592  
H    1.5290706   -0.0033151   -5.9180044  
C   -3.9705538    0.7070935   -2.0745734  
C   -3.2578654    0.0024039   -2.9908502  
C   -4.2093229   -0.7382558   -3.7851981  
C   -5.5443148   -0.4048912   -3.2527937  
N   -5.3302029    0.4752874   -2.2172594  
C   -6.7108607   -0.9029348   -3.7353162  
C   -6.6473135   -1.8292928   -4.8535106  
O   -7.6421010   -2.3324327   -5.3590289  
C   -5.2441046   -2.1966305   -5.4330564  
O   -5.1780522   -2.9757386   -6.3742727  
C   -4.0579909   -1.5951409   -4.8287417  
H   -7.6796709   -0.6453709   -3.3303741  
H   -3.0902094   -1.8545078   -5.2359910  
H   -3.6168795    1.3760906   -1.3069490  
H   -6.0507902    0.8875044   -1.6534521  
C    3.4298597   -0.6918158   -3.0313917  
C    2.4861696   -0.0045381   -3.7159924  
C    3.2229077    0.7397635   -4.7258100  
C    4.6377464    0.3737620   -4.5002917  
N    4.7652612   -0.4651925   -3.5083821  
C    5.6998745    0.9085139   -5.3071440  
C    5.3638174    1.7694535   -6.2946578  
O    6.2517466    2.3444410   -7.1235191  
C    3.9449281    2.1580691   -6.5474283  
O    3.7122682    2.9468091   -7.4633866  
C    2.8734667    1.5959394   -5.7060572  
H    6.7249644    0.6238336   -5.1199077  
H    5.7142334    2.9020893   -7.7145018  
H    1.8586412    1.9024507   -5.9214875  
H    3.2895110   -1.3638480   -2.1997375  
C    1.0672568    0.0000697    2.3021913  
C    0.0000000    0.0000000    1.4700000  
C   -1.1601224    0.0000736    2.3478473  
C   -0.5938729    0.0000769    3.7138435  
N    0.7113367    0.0001554    3.6934124  
C   -1.4286986    0.0001879    4.8835240  
C   -2.7683114    0.0006799    4.6970523  
O   -3.6653903    0.0008304    5.6976972  
C   -3.3702025    0.0010610    3.3310774  
O   -4.5974910    0.0013779    3.2362962  
C   -2.4926826    0.0008943    2.1470656  
H   -0.9878360   -0.0000190    5.8697035  
H   -4.5324246    0.0012261    5.2533954  
H   -2.9677772    0.0012974    1.1752040  
H    2.1134392    0.0000545    2.0405121  
