58

C    3.2573672   -0.0002920   -1.5109380  
C    2.5379470   -0.0001710   -0.3591959  
C    1.1435044    0.0000331   -0.7338498  
C    1.1092609   -0.0000083   -2.2088475  
N    2.4227564    0.0001909   -2.6182609  
C   -0.0265532   -0.0002524   -2.9515660  
C   -1.3003037   -0.0002640   -2.2514978  
O   -2.3786783   -0.0004133   -2.8306423  
C   -1.2877723    0.0000311   -0.6895608  
O   -2.3539957    0.0003306   -0.0892035  
C    0.0000000    0.0000000    0.0000000  
H    2.9384091   -0.0000368    0.6389235  
H    2.7280494   -0.0013407   -3.5742112  
C    5.6506114    0.0009427   -0.6678802  
C    6.9152391    0.0026292   -1.1626405  
C    6.8040788    0.0026208   -2.6022513  
C    5.3606770    0.0008072   -2.9078302  
N    4.7161333   -0.0005436   -1.6923256  
C    4.8400806    0.0006555   -4.1610997  
C    5.7629700    0.0021685   -5.2839569  
O    5.3925554    0.0021018   -6.4506157  
C    7.2958242    0.0038490   -4.9836903  
O    8.0824545    0.0048244   -5.9209602  
C    7.7361592    0.0041354   -3.5908670  
H    7.8224240    0.0035686   -0.5850346  
H    3.7780229   -0.0005585   -4.3634388  
H    8.7991586    0.0055076   -3.3914806  
H    5.3226860    0.0004435    0.3589375  
C    0.7844859   -0.6865739   -5.2559748  
C   -0.0307352   -0.0004647   -4.4215603  
C   -0.9220584    0.7449731   -5.2969825  
C   -0.4921387    0.3808398   -6.6641549  
N    0.5077999   -0.4580874   -6.6464474  
C   -1.1351039    0.9171357   -7.8320886  
C   -2.1611771    1.7777670   -7.6428215  
O   -2.8513795    2.3540676   -8.6415895  
C   -2.6186494    2.1645130   -6.2755955  
O   -3.5588185    2.9530733   -6.1782529  
C   -1.9428992    1.6008219   -5.0934198  
H   -0.8000284    0.6338054   -8.8191842  
H   -3.5146113    2.9110795   -8.1954797  
H   -2.3043669    1.9060010   -4.1205702  
H    1.5867285   -1.3589153   -4.9964798  
C    0.8400945    0.7047457    2.2710304  
C    0.0000000    0.0000000    1.4700000  
C   -0.8844236   -0.7423113    2.3369512  
C   -0.4878984   -0.4098547    3.7186280  
N    0.5629682    0.4714286    3.6095011  
C   -1.0836927   -0.9095027    4.8308716  
C   -2.1891196   -1.8367527    4.6554461  
O   -2.7906899   -2.3413415    5.5944904  
C   -2.6257283   -2.2031529    3.2011665  
O   -3.5549479   -2.9829990    3.0410059  
C   -1.9068976   -1.5999348    2.0816745  
H   -0.7774656   -0.6525820    5.8354244  
H   -2.2155208   -1.8586617    1.0779135  
H    1.6384792    1.3747609    1.9961646  
H    1.0518368    0.8833920    4.3830260  
