58

C    0.0171479   -0.0595765   -8.8030473  
C    0.7819566   -0.7252869   -9.6994163  
C    0.2652762   -0.3294751  -11.0005206  
C   -0.8397334    0.6042422  -10.6943988  
N   -0.9898629    0.7664309   -9.4078751  
C   -1.6183948    1.2269515  -11.7292933  
C   -1.3070451    0.9306589  -13.0117149  
O   -1.9499330    1.4389036  -14.0768078  
C   -0.1972821   -0.0075280  -13.3528789  
O    0.0303522   -0.2313189  -14.5417108  
C    0.5867650   -0.6335567  -12.2733951  
H    1.5962322   -1.4013669   -9.5020659  
H   -2.4203577    1.9051846  -11.4767764  
H   -1.5036095    1.0439739  -14.8475073  
H    1.3823689   -1.3072369  -12.5621849  
C    2.6001987   -2.1411819   -5.8266045  
C    2.0730548   -1.7332819   -7.0044479  
C    0.9991590   -0.8222834   -6.6393046  
C    1.0189898   -0.7962635   -5.1609565  
N    1.9554493   -1.5673975   -4.6788913  
C    0.0950446    0.0004351   -4.4015596  
C   -0.8074266    0.7379268   -5.0878442  
O   -1.7282260    1.5268491   -4.5083866  
C   -0.8524305    0.7331199   -6.5798603  
O   -1.7006930    1.4286191   -7.1383869  
C    0.1059497   -0.0924309   -7.3360995  
H    2.3756471   -2.0156473   -7.9983212  
H   -2.2213256    1.9193584   -5.2513151  
H    3.4197067   -2.8236756   -5.6666595  
C    3.3321173    0.0004713   -1.3379338  
C    2.6974181    0.0000116   -2.5332314  
C    1.2800438   -0.0002119   -2.2052841  
C    1.2395034    0.0000643   -0.7271299  
N    2.4394062    0.0005460   -0.2131038  
C    0.0000000    0.0000000    0.0000000  
C   -1.1468702    0.0000634   -0.7169543  
O   -2.3742203    0.0000074   -0.1695487  
C   -1.1388770    0.0001607   -2.2096355  
O   -2.2206234    0.0000905   -2.7970411  
C    0.1454522    0.0001815   -2.9324241  
H    3.1367984   -0.0000653   -3.5160950  
H   -2.9844346    0.0001026   -0.9290167  
H    4.3940038    0.0007618   -1.1498640  
C    0.0000000    0.0000000    1.4700000  
C    1.0662921    0.0000102    2.3034270  
C    0.4961870   -0.0000064    3.6418889  
C   -0.9663858    0.0000850    3.4240247  
N   -1.2632773    0.0000084    2.1528658  
C   -1.8985362    0.0000517    4.5177257  
C   -1.3925775   -0.0004564    5.7720543  
O   -2.1456383   -0.0005410    6.8851312  
C    0.0786232   -0.0009323    6.0245000  
O    0.4683759   -0.0012588    7.1921102  
C    1.0143166   -0.0008442    4.8859032  
H    2.1107198   -0.0000632    2.0421868  
H   -2.9622183    0.0003270    4.3293377  
H   -1.5042274   -0.0009692    7.6184419  
H    2.0724152   -0.0013148    5.1109744  
