58

C   -1.0965395   -0.0050990   -0.8010311  
C    0.0000000    0.0000000    0.0000000  
C    1.1546455    0.0050791   -0.8669506  
C    0.6371975    0.0025319   -2.2486278  
N   -0.7342757   -0.0040574   -2.1395013  
C    1.4147611    0.0062678   -3.3608708  
C    2.8575760    0.0130382   -3.1854450  
O    3.6427410    0.0167364   -4.1244892  
C    3.4275490    0.0155860   -1.7311656  
O    4.6406359    0.0209708   -1.5710040  
C    2.4891608    0.0113753   -0.6116737  
H    1.0150363    0.0044323   -4.3654240  
H    2.8918810    0.0133809    0.3920873  
H   -2.1388044   -0.0097469   -0.5261651  
C   -1.6707518   -0.0063280   -3.2725976  
C   -3.0235979   -0.0114807   -3.2357233  
C   -3.4368361   -0.0114926   -4.6306192  
C   -2.1706841   -0.0057487   -5.3944319  
N   -1.1320355   -0.0027828   -4.6037428  
C   -2.1489282   -0.0040833   -6.8313070  
C   -3.3380031   -0.0083678   -7.4758356  
O   -3.4666342   -0.0074346   -8.8135555  
C   -4.6328347   -0.0145809   -6.7331827  
O   -5.6770931   -0.0181275   -7.3848972  
C   -4.6287204   -0.0161351   -5.2594442  
H   -3.6622239   -0.0149467   -2.3689930  
H   -4.4281979   -0.0113267   -8.9701850  
H   -5.5876908   -0.0207991   -4.7588613  
C    1.5612834   -2.1311776   -5.9962644  
C    2.3598410   -1.7191951   -7.0082704  
C    1.5355283   -0.8108605   -7.7905338  
C    0.2340691   -0.7906899   -7.0888344  
N    0.2431837   -1.5626802   -6.0362484  
C   -0.8698916    0.0019484   -7.5558266  
C   -0.6821051    0.7411461   -8.6728126  
O   -1.6250653    1.5267266   -9.2202886  
C    0.6197360    0.7422143   -9.4031339  
O    0.7195224    1.4389733  -10.4129809  
C    1.7369494   -0.0792501   -8.9041791  
H    3.3820557   -1.9972714   -7.2001717  
H   -1.1962367    1.9216291  -10.0008723  
H    2.6635927   -0.0508588   -9.4616346  
H    1.8014749   -2.8133805   -5.1963391  
C    2.3971438    2.0127888    3.1728260  
C    1.9431056    1.6308205    1.9564670  
C    0.8496017    0.7127664    2.2356185  
C    0.7794028    0.6545384    3.7115134  
N    1.6840587    1.4146091    4.2663826  
C   -0.1885723   -0.1578550    4.3957118  
C   -1.0476298   -0.8789867    3.6398520  
O   -2.0015663   -1.6796266    4.1448486  
C   -1.0022026   -0.8410666    2.1483229  
O   -1.8147390   -1.5232959    1.5241687  
C    0.0000000    0.0000000    1.4700000  
H    2.3054237    1.9346118    0.9892483  
H   -0.2170646   -0.1815267    5.4753125  
H   -2.4487139   -2.0549881    3.3649027  
H    3.2048689    2.6911772    3.3971983  
