60

C    3.3003545    0.0005278   -1.4738988  
C    2.5232807    0.0003503   -2.6090753  
C    1.1623197   -0.0001316   -2.1820107  
C    1.1711881    0.0000584   -0.7636149  
N    2.4852299   -0.0014915   -0.3662360  
C    0.0000000    0.0000000    0.0000000  
C   -1.2020386    0.0000521   -0.6806477  
O   -2.3759251    0.0003494    0.0157750  
C   -1.2314662   -0.0005110   -2.0955506  
O   -2.5054392   -0.0008036   -2.6250182  
C   -0.0764522   -0.0007269   -2.8495195  
H    2.8919952   -0.0005616   -3.6205308  
H    2.8036262    0.0088184    0.5858648  
H   -3.0835640    0.0000346   -0.6418821  
H   -2.4360052   -0.0011526   -3.5845919  
H    4.3715548    0.0004900   -1.3667142  
C    0.6778488   -0.7280272   -5.1604561  
C    0.3572088   -0.5121159   -6.4622422  
C   -0.7500359    0.4145351   -6.4749820  
C   -1.0503181    0.7230182   -5.0637914  
N   -0.1496422   -0.0015608   -4.3176961  
C   -2.0334666    1.5633981   -4.6528350  
C   -2.8505395    2.2068480   -5.6681670  
O   -3.7605421    2.9801051   -5.3993373  
C   -2.5503724    1.8945197   -7.1688850  
O   -3.2318477    2.4301015   -8.0326005  
C   -1.4639124    0.9716708   -7.4879567  
H    0.8409999   -0.9519514   -7.3161188  
H   -2.2371058    1.7761243   -3.6125523  
H    1.4488977   -1.3568982   -4.7458537  
C   -0.4033448   -2.7510751   -9.5615272  
C   -0.3028339   -2.2802456  -10.8312879  
C   -0.5929532   -0.8667142  -10.7803441  
C   -0.8727018   -0.5503533   -9.3666796  
N   -0.7416104   -1.7354326   -8.6801727  
C   -1.1900083    0.6851603   -8.9035087  
C   -1.2609361    1.7761179   -9.8612746  
O   -1.5388352    2.9249222   -9.5429636  
C   -0.9686902    1.4638926  -11.3635774  
O   -1.0256930    2.3742883  -12.1791700  
C   -0.6370062    0.0924480  -11.7416997  
H   -0.0540465   -2.8573337  -11.7040361  
H   -0.4358176   -0.1153596  -12.7838433  
H   -0.2589717   -3.7546086   -9.1955126  
H   -0.8697362   -1.8451797   -7.6909374  
C    0.0000000    0.0000000    1.4700000  
C    1.0662921    0.0000102    2.3034270  
C    0.4961870   -0.0000064    3.6418889  
C   -0.9663858    0.0000850    3.4240247  
N   -1.2632773    0.0000084    2.1528658  
C   -1.8985362    0.0000517    4.5177257  
C   -1.3925775   -0.0004564    5.7720543  
O   -2.1456383   -0.0005410    6.8851312  
C    0.0786232   -0.0009323    6.0245000  
O    0.4683759   -0.0012588    7.1921102  
C    1.0143166   -0.0008442    4.8859032  
H    2.1107198   -0.0000632    2.0421868  
H   -2.9622183    0.0003270    4.3293377  
H   -1.5042274   -0.0009692    7.6184419  
H    2.0724152   -0.0013148    5.1109744  
