60

C    0.0000000    0.0000000    0.0000000  
C    1.0521665   -0.0011901   -0.8862342  
C    0.4917217   -0.0011956   -2.1979130  
C   -0.9187428    0.0003148   -2.0478683  
N   -1.1833173   -0.0009411   -0.7007911  
C   -1.7951703    0.0010349   -3.1372088  
C   -1.2375840    0.0005224   -4.4010424  
O   -2.0474220    0.0015359   -5.4997576  
C    0.1673578   -0.0013566   -4.5711965  
O    0.5673521   -0.0020688   -5.8915549  
C    1.0325768   -0.0023412   -3.4969890  
H    2.0953059   -0.0030648   -0.6200563  
H   -2.0989774    0.0102371   -0.2891826  
H   -1.4634888    0.0006496   -6.2693593  
H    1.5290706   -0.0033152   -5.9180048  
C    4.3492258   -2.0980283   -1.4710659  
C    3.1288514   -1.6343955   -1.8449707  
C    3.3413738   -0.7396614   -2.9581287  
C    4.7960251   -0.7199156   -3.2038712  
N    5.3496885   -1.5635496   -2.2686550  
C    5.4017602    0.0079028   -4.1760185  
C    4.5652083    0.8266013   -5.0376727  
O    5.0157109    1.5178647   -5.9418317  
C    3.0221522    0.8211179   -4.7952825  
O    2.3077377    1.5066874   -5.5142170  
C    2.4861699   -0.0045381   -3.7159922  
H    2.1872508   -1.8898703   -1.3924946  
H    6.4704877    0.0081417   -4.3395230  
H    4.6019078   -2.7850257   -0.6798161  
H    6.3294058   -1.7621300   -2.1805279  
C   -4.3329831    2.1449844   -0.3175482  
C   -5.5711587    1.7385011   -0.6826118  
C   -5.3538080    0.8273591   -1.7957508  
C   -3.8860980    0.7997141   -1.9736450  
N   -3.2823598    1.5700958   -1.1099309  
C   -3.2578657    0.0024038   -2.9908504  
C   -4.0594124   -0.7341201   -3.7935892  
O   -3.6090765   -1.5234579   -4.7836319  
C   -5.5440554   -0.7276670   -3.6388180  
O   -6.2116997   -1.4223514   -4.4049025  
C   -6.1645251    0.0984839   -2.5879058  
H   -6.5153680    2.0218840   -0.2499011  
H   -4.4116709   -1.9150347   -5.1730704  
H   -7.2431281    0.0755053   -2.5084188  
H   -4.0642024    2.8271070    0.4732988  
C    1.0672568    0.0000697    2.3021913  
C    0.0000000    0.0000000    1.4700000  
C   -1.1601224    0.0000736    2.3478473  
C   -0.5938729    0.0000769    3.7138435  
N    0.7113367    0.0001554    3.6934124  
C   -1.4286986    0.0001879    4.8835240  
C   -2.7683114    0.0006799    4.6970523  
O   -3.6653903    0.0008304    5.6976972  
C   -3.3702025    0.0010610    3.3310774  
O   -4.5974910    0.0013779    3.2362962  
C   -2.4926826    0.0008943    2.1470656  
H   -0.9878360   -0.0000190    5.8697035  
H   -4.5324246    0.0012261    5.2533954  
H   -2.9677772    0.0012974    1.1752040  
H    2.1134392    0.0000545    2.0405121  
