60

C    3.1301152   -0.0010311   -1.7028248  
C    2.5367767   -0.0002766   -0.4864663  
C    1.1089906    0.0001028   -0.7656180  
C    1.0177872   -0.0004148   -2.2415129  
N    2.1993581   -0.0011610   -2.7963816  
C   -0.2459210   -0.0002877   -2.9257117  
C   -1.3675316   -0.0000605   -2.1698524  
O   -2.6129307    0.0000866   -2.6748494  
C   -1.3083586    0.0000911   -0.6783233  
O   -2.3693263    0.0004206   -0.0541693  
C    0.0000000    0.0000000    0.0000000  
H    3.0096017   -0.0001007    0.4807526  
H   -3.1967436    0.0002093   -1.8949037  
C    6.5698743   -0.0006425    0.9721619  
C    7.6069603   -0.0018566    0.1026619  
C    6.9912940   -0.0024303   -1.2154638  
C    5.5370518   -0.0015104   -0.9475758  
N    5.2839239   -0.0003800    0.3330159  
C    4.5679462   -0.0016852   -2.0086697  
C    5.0305956   -0.0023423   -3.2796100  
O    4.2398098   -0.0025845   -4.3662092  
C    6.4922748   -0.0029066   -3.5823555  
O    6.8417601   -0.0036168   -4.7626434  
C    7.4664608   -0.0027577   -2.4765134  
H    8.6597310   -0.0022169    0.3279342  
H    4.8556983   -0.0030409   -5.1210829  
H    8.5162200   -0.0030652   -2.7377351  
H    6.6068536    0.0001033    2.0499396  
C    0.4920782   -0.6868678   -5.2544640  
C   -0.2963280   -0.0005339   -4.3948472  
C   -1.2145530    0.7451072   -5.2418310  
C   -0.8279307    0.3808332   -6.6218354  
N    0.1718600   -0.4583448   -6.6355552  
C   -1.5071716    0.9172630   -7.7689886  
C   -2.5265699    1.7781567   -7.5475759  
O   -3.2476948    2.3546073   -8.5241638  
C   -2.9407238    2.1650503   -6.1666517  
O   -3.8771692    2.9538492   -6.0398172  
C   -2.2282730    1.6012172   -5.0062937  
H   -1.2033739    0.6338251   -8.7661242  
H   -3.8964302    2.9117964   -8.0574356  
H   -2.5588924    1.9065103   -4.0225673  
H    1.3019159   -1.3594047   -5.0203037  
C    2.5311839    2.1237619    3.0120429  
C    1.9795631    1.6616747    1.8395852  
C    0.9223175    0.7739173    2.1983588  
C    0.8753926    0.7337535    3.6154372  
N    1.8668922    1.5631002    4.0777464  
C   -0.0496243   -0.0427881    4.3197917  
C   -0.9437528   -0.7922060    3.5801400  
O   -1.8685244   -1.5680278    4.2172520  
C   -0.9124520   -0.7656372    2.1655264  
O   -1.8671164   -1.5663939    1.5732860  
C    0.0000000    0.0000000    1.4700000  
H    2.3005065    1.9304404    0.8477417  
H    2.0679347    1.7444845    5.0445261  
H   -0.0904770   -0.0778569    5.3997470  
H   -2.3849669   -2.0011402    3.5251786  
H   -1.7775064   -1.4909735    0.6183591  
H    3.3468514    2.8078103    3.1724291  
