58

C    3.3321166    0.0004714   -1.3379344  
C    2.6974168    0.0000116   -2.5332317  
C    1.2800427   -0.0002119   -2.2052842  
C    1.2395030    0.0000643   -0.7271295  
N    2.4394059    0.0005460   -0.2131038  
C    0.0000000    0.0000000    0.0000000  
C   -1.1468706    0.0000634   -0.7169528  
O   -2.3742202    0.0000071   -0.1695480  
C   -1.1388777    0.0001605   -2.2096346  
O   -2.2206248    0.0000900   -2.7970393  
C    0.1454507    0.0001813   -2.9324238  
H   -2.9844350    0.0001025   -0.9290149  
H    0.1083554    0.0003680   -4.0135588  
H    4.3940030    0.0007619   -1.1498648  
C    6.1837835   -2.0089286   -4.4499602  
C    5.2722818   -1.6276453   -3.5251001  
C    4.3865201   -0.7114700   -4.2269180  
C    4.9246822   -0.6534666   -5.6029996  
N    5.9781767   -1.4120392   -5.7397758  
C    4.3189868    0.1572325   -6.6232873  
C    3.2251523    0.8769576   -6.2843821  
O    2.5591558    1.6759399   -7.1353328  
C    2.6579640    0.8392212   -4.9041524  
O    1.6604105    1.5201138   -4.6664700  
C    3.2973484   -0.0000933   -3.8752387  
H    5.2087765   -1.9307520   -2.4939987  
H    1.8320619    2.0505970   -6.6060695  
H    7.0137814   -2.6859600   -4.3246365  
C    5.3841276   -0.8430487   -8.6979034  
C    4.8831199    0.1892744   -7.9803532  
C    5.0224218    1.3502497   -8.8459340  
C    5.6430461    0.8226917  -10.0800703  
N    5.8573535   -0.4624236   -9.9991949  
C    5.9496928    1.6698473  -11.1996155  
C    5.6496086    2.9842140  -11.0913369  
O    5.8807507    3.8889512  -12.0578069  
C    5.0225755    3.5467855   -9.8590619  
O    4.7769614    4.7526263   -9.8300229  
C    4.7177487    2.6573054   -8.7242359  
H    6.4034001    1.2574593  -12.0889948  
H    5.5622673    4.7325782  -11.6890055  
H    4.2635298    3.1036639   -7.8497762  
H    5.4618370   -1.8784578   -8.4065913  
C    0.8175213    0.6860729    2.3021913  
C    0.0000000    0.0000000    1.4700000  
C   -0.8887526   -0.7456559    2.3478473  
C   -0.4549825   -0.3816753    3.7138435  
N    0.5448156    0.4573574    3.6934124  
C   -1.0945674   -0.9182058    4.8835240  
C   -2.1210866   -1.7789155    4.6970523  
O   -2.8083856   -2.3554314    5.6976972  
C   -2.5824069   -2.1655116    3.3310774  
O   -3.5227682   -2.9541547    3.2362962  
C   -1.9100805   -1.6015804    2.1470656  
H   -0.7567140   -0.6349833    5.8697035  
H   -3.4728268   -2.9124471    5.2533954  
H   -2.2742832   -1.9066565    1.1752040  
H    1.6189533    1.3585343    2.0405121  
