60

C    3.3003554    0.0005273   -1.4738973  
C    2.5232827    0.0003494   -2.6090737  
C    1.1623213   -0.0001321   -2.1820100  
C    1.1711892    0.0000583   -0.7636139  
N    2.4852305   -0.0014921   -0.3662348  
C    0.0000000    0.0000000    0.0000000  
C   -1.2020378    0.0000520   -0.6806488  
O   -2.3759246    0.0003493    0.0157732  
C   -1.2314646   -0.0005114   -2.0955514  
O   -2.5054373   -0.0008039   -2.6250195  
C   -0.0764502   -0.0007275   -2.8495198  
H    2.8036264    0.0088182    0.5858676  
H   -3.0835630    0.0000348   -0.6418832  
H   -2.4360027   -0.0011530   -3.5845934  
H   -0.1304074   -0.0013424   -3.9319089  
H    4.3715557    0.0004892   -1.3667119  
C    5.8913017   -2.0917718   -4.5522438  
C    4.9785007   -1.6292459   -3.6595293  
C    4.1021084   -0.7349694   -4.3785855  
C    4.5825821   -0.7142855   -5.7734001  
N    5.6694235   -1.5569948   -5.8122132  
C    4.0183459    0.0134434   -6.7702714  
C    2.8607109    0.8310489   -6.4478777  
O    2.2818996    1.5221458   -7.2759259  
C    2.3349682    0.8245604   -4.9770422  
O    1.3612145    1.5092060   -4.6936270  
C    3.0267455   -0.0008954   -3.9901689  
H    4.9253058   -1.8851662   -2.6163186  
H    6.7075464   -2.7781460   -4.3956404  
H    6.2158986   -1.7548036   -6.6303110  
C    4.5186650    0.0147180   -8.1525087  
C    5.5706367   -0.6607642   -8.6827484  
C    5.6334923   -0.3107052  -10.0821561  
C    4.5239706    0.6308619  -10.3254738  
N    3.8866801    0.7860159   -9.1160616  
C    4.2437452    1.1947985  -11.5276188  
C    5.0913532    0.8513223  -12.6572741  
O    4.9207697    1.3064727  -13.7806789  
C    6.2720260   -0.1440337  -12.4225753  
O    6.9922265   -0.4409181  -13.3662029  
C    6.4743116   -0.6861046  -11.0812731  
H    6.2274988   -1.3282355   -8.1539500  
H    3.4250736    1.8832880  -11.6846814  
H    7.2941317   -1.3744702  -10.9270919  
H    3.0870159    1.3711557   -8.9573271  
C    0.8175213    0.6860729    2.3021913  
C    0.0000000    0.0000000    1.4700000  
C   -0.8887526   -0.7456559    2.3478473  
C   -0.4549825   -0.3816753    3.7138435  
N    0.5448156    0.4573574    3.6934124  
C   -1.0945674   -0.9182058    4.8835240  
C   -2.1210866   -1.7789155    4.6970523  
O   -2.8083856   -2.3554314    5.6976972  
C   -2.5824069   -2.1655116    3.3310774  
O   -3.5227682   -2.9541547    3.2362962  
C   -1.9100805   -1.6015804    2.1470656  
H   -0.7567140   -0.6349833    5.8697035  
H   -3.4728268   -2.9124471    5.2533954  
H   -2.2742832   -1.9066565    1.1752040  
H    1.6189533    1.3585343    2.0405121  
