58

C   -3.2798079    0.0004304   -1.4499660  
C   -2.5571136    0.0002357   -2.5996563  
C   -1.1637425    0.0002059   -2.2210365  
C   -1.1336961    0.0003712   -0.7459474  
N   -2.4483509    0.0009014   -0.3402733  
C    0.0000000    0.0000000    0.0000000  
C    1.2757374   -0.0003764   -0.6964417  
O    2.3524598   -0.0006646   -0.1142307  
C    1.2676503   -0.0003051   -2.2584081  
O    2.3355768   -0.0003131   -2.8557292  
C   -0.0181553   -0.0001700   -2.9516298  
H   -2.9547342    0.0003080   -3.5989116  
H   -0.0150778   -0.0003268   -4.0331631  
H   -2.7563630   -0.0004285    0.6148048  
C   -6.6317371    0.0026356   -4.3241612  
C   -5.4016576    0.0021794   -3.7488536  
C   -5.6054517    0.0014002   -2.3194121  
C   -7.0655604    0.0014108   -2.1075794  
N   -7.6303538    0.0025757   -3.3621301  
C   -7.6659170    0.0003885   -0.8905027  
C   -6.8173813   -0.0005755    0.2895481  
O   -7.2622823   -0.0014702    1.4298832  
C   -5.2683491   -0.0003524    0.0887878  
O   -4.5438182   -0.0008508    1.0748485  
C   -4.7390843    0.0005067   -1.2727296  
H   -4.4591021    0.0025499   -4.2667365  
H   -8.7388165    0.0002862   -0.7570955  
H   -8.6161394    0.0013133   -3.5499389  
C   -4.1565723    0.0043311   -7.9514047  
C   -5.1361460    0.0050416   -8.8918885  
C   -6.3963733    0.0046413   -8.1871455  
C   -6.0683478    0.0036615   -6.7486779  
N   -4.6945852    0.0031185   -6.6734059  
C   -6.9876832    0.0034424   -5.7504159  
C   -8.3940922    0.0039977   -6.1172250  
O   -9.2977963    0.0037946   -5.2916225  
C   -8.7644602    0.0047851   -7.6346679  
O   -9.9452423    0.0049507   -7.9556249  
C   -7.6847751    0.0052357   -8.6186047  
H   -4.9923174    0.0055813   -9.9576870  
H   -7.9496432    0.0059856   -9.6672078  
H   -3.0868998    0.0043744   -8.0844105  
H   -4.1644767    0.0039732   -5.8213311  
C    0.8175213    0.6860729    2.3021913  
C    0.0000000    0.0000000    1.4700000  
C   -0.8887526   -0.7456559    2.3478473  
C   -0.4549825   -0.3816753    3.7138435  
N    0.5448156    0.4573574    3.6934124  
C   -1.0945674   -0.9182058    4.8835240  
C   -2.1210866   -1.7789155    4.6970523  
O   -2.8083856   -2.3554314    5.6976972  
C   -2.5824069   -2.1655116    3.3310774  
O   -3.5227682   -2.9541547    3.2362962  
C   -1.9100805   -1.6015804    2.1470656  
H   -0.7567140   -0.6349833    5.8697035  
H   -3.4728268   -2.9124471    5.2533954  
H   -2.2742832   -1.9066565    1.1752040  
H    1.6189533    1.3585343    2.0405121  
