58

C   -3.2564933   -0.0753714   -1.5109401  
C   -2.5372651   -0.0587815   -0.3591977  
C   -1.1431940   -0.0265950   -0.7338499  
C   -1.1089594   -0.0257581   -2.2088479  
N   -2.4220956   -0.0564676   -2.6182624  
C    0.0265429    0.0008690   -2.9515654  
C    1.2999493    0.0304678   -2.2514961  
O    2.3780299    0.0556659   -2.8306401  
C    1.2874272    0.0298817   -0.6895587  
O    2.3533682    0.0543488   -0.0892012  
C    0.0000000    0.0000000    0.0000000  
H   -2.9376172   -0.0682177    0.6389222  
H    0.0296151    0.0010967   -4.0327227  
H   -4.3258812   -0.1000337   -1.6439470  
C   -2.8692340   -0.0646125   -4.0185844  
C   -4.1382163   -0.0929371   -4.4881166  
C   -4.0024086   -0.0876894   -5.9365735  
C   -2.5432733   -0.0538598   -6.1739839  
N   -1.8738740   -0.0402895   -5.0533991  
C   -1.9882244   -0.0392198   -7.4994244  
C   -2.8515942   -0.0579316   -8.5403741  
O   -2.4729926   -0.0474336   -9.8297895  
C   -4.3294565   -0.0925291   -8.3332821  
O   -5.0557853   -0.1079941   -9.3269760  
C   -4.8742247   -0.1069443   -6.9639963  
H   -5.0534033   -0.1147935   -3.9215207  
H   -0.9179393   -0.0142420   -7.6435613  
H   -3.3068801   -0.0661914  -10.3332101  
C   -7.8392606    1.8339971   -4.2610814  
C   -6.6654563    1.4800030   -4.8341873  
C   -7.0303801    0.5544212   -5.8956149  
C   -8.5041827    0.4616757   -5.8188771  
N   -8.9840006    1.2096304   -4.8626723  
C   -9.2620306   -0.3675845   -6.7150245  
C   -8.5786492   -1.0718665   -7.6457835  
O   -9.1571108   -1.8851771   -8.5457542  
C   -7.0912818   -0.9990870   -7.7487478  
O   -6.5352036   -1.6674980   -8.6200825  
C   -6.3365469   -0.1412591   -6.8179245  
H   -5.6743775    1.8067076   -4.5694181  
H  -10.3382716   -0.4164842   -6.6361247  
H   -8.4169090   -2.2427457   -9.0686310  
H   -7.9980337    2.5078948   -3.4342644  
C    0.0000000    0.0000000    1.4700000  
C    1.0662921    0.0000102    2.3034270  
C    0.4961870   -0.0000064    3.6418889  
C   -0.9663858    0.0000850    3.4240247  
N   -1.2632773    0.0000084    2.1528658  
C   -1.8985362    0.0000517    4.5177257  
C   -1.3925775   -0.0004564    5.7720543  
O   -2.1456383   -0.0005410    6.8851312  
C    0.0786232   -0.0009323    6.0245000  
O    0.4683759   -0.0012588    7.1921102  
C    1.0143166   -0.0008442    4.8859032  
H    2.1107198   -0.0000632    2.0421868  
H   -2.9622183    0.0003270    4.3293377  
H   -1.5042274   -0.0009692    7.6184419  
H    2.0724152   -0.0013148    5.1109744  
