60

C    3.3041274    0.0001173   -1.5420423  
C    2.5845372   -0.0004782   -0.3695851  
C    1.2040007   -0.0000010   -0.7283585  
C    1.1422379    0.0006032   -2.1454371  
N    2.4348643    0.0026104   -2.6077458  
C   -0.0655180    0.0008792   -2.8497916  
C   -1.2321769    0.0002319   -2.1101395  
O   -2.4392807    0.0001139   -2.7472519  
C   -1.1911208   -0.0000009   -0.6955263  
O   -2.4371523   -0.0002321   -0.1032864  
C    0.0000000    0.0000000    0.0000000  
H    3.0031534   -0.0000660    0.6222590  
H   -0.1193543    0.0014836   -3.9297468  
H   -3.1132982   -0.0000652   -2.0551783  
H   -2.3200280   -0.0004069    0.8516408  
H    4.3686624    0.0004066   -1.7024282  
C    5.6515803   -2.1002982   -4.7818998  
C    4.8081961   -1.6310303   -3.8266162  
C    3.8761267   -0.7467210   -4.4854631  
C    4.2482789   -0.7392331   -5.9131314  
N    5.3319472   -1.5792879   -6.0265373  
C    3.6067603   -0.0234904   -6.8711869  
C    2.4743168    0.7942192   -6.4693695  
O    1.8313268    1.4750501   -7.2576170  
C    2.0628008    0.8015922   -4.9625827  
O    1.1111845    1.4864532   -4.6123641  
C    2.8310669   -0.0116229   -4.0232744  
H    4.8359715   -1.8762192   -2.7798480  
H    3.8957845   -0.0321206   -7.9129644  
H    6.4798596   -2.7827413   -4.6813289  
C    6.5147150   -3.0930260   -7.6604473  
C    6.0393362   -1.8792938   -7.2797324  
C    6.3621072   -0.9502624   -8.3368771  
C    7.0695440   -1.7278214   -9.3721187  
N    7.1296675   -3.0190894   -8.9010543  
C    7.5409140   -1.2100967  -10.5346487  
C    7.3381407    0.2076051  -10.7827210  
O    7.7256054    0.7679720  -11.7996588  
C    6.5916720    1.0503374   -9.6999500  
O    6.4153585    2.2449556   -9.8975884  
C    6.1297625    0.3800018   -8.4870440  
H    8.0570767   -1.7979679  -11.2809015  
H    5.6135988    0.9705502   -7.7423612  
H    6.4677307   -4.0352392   -7.1389908  
H    7.5530774   -3.7895506   -9.3849565  
C    0.8175213    0.6860729    2.3021913  
C    0.0000000    0.0000000    1.4700000  
C   -0.8887526   -0.7456559    2.3478473  
C   -0.4549825   -0.3816753    3.7138435  
N    0.5448156    0.4573574    3.6934124  
C   -1.0945674   -0.9182058    4.8835240  
C   -2.1210866   -1.7789155    4.6970523  
O   -2.8083856   -2.3554314    5.6976972  
C   -2.5824069   -2.1655116    3.3310774  
O   -3.5227682   -2.9541547    3.2362962  
C   -1.9100805   -1.6015804    2.1470656  
H   -0.7567140   -0.6349833    5.8697035  
H   -3.4728268   -2.9124471    5.2533954  
H   -2.2742832   -1.9066565    1.1752040  
H    1.6189533    1.3585343    2.0405121  
