58

C    3.2573665   -0.0002918   -1.5109388  
C    2.5379466   -0.0001710   -0.3591966  
C    1.1435040    0.0000335   -0.7338503  
C    1.1092603   -0.0000076   -2.2088478  
N    2.4227558    0.0001914   -2.6182613  
C   -0.0265538   -0.0002516   -2.9515662  
C   -1.3003041   -0.0002634   -2.2514980  
O   -2.3786785   -0.0004126   -2.8306424  
C   -1.2877729    0.0000315   -0.6895604  
O   -2.3539958    0.0003310   -0.0892033  
C    0.0000000    0.0000000    0.0000000  
H    2.9384089   -0.0000368    0.6389231  
H    4.3270390   -0.0004762   -1.6439448  
H    2.7280488   -0.0013401   -3.5742116  
C    2.4624159   -2.0918857   -5.9392958  
C    1.9141434   -1.6298141   -4.7860562  
C    0.8439976   -0.7345865   -5.1577959  
C    0.8135178   -0.7128492   -6.6327158  
N    1.8196243   -1.5559191   -7.0448722  
C   -0.0596554    0.0159622   -7.3730584  
C   -1.0343397    0.8337045   -6.6703323  
O   -1.8629443    1.5257407   -7.2472220  
C   -1.0200979    0.8261120   -5.1084280  
O   -1.8357413    1.5108621   -4.5058467  
C   -0.0307360   -0.0004637   -4.4215603  
H    2.2241300   -1.8866333   -3.7887769  
H   -0.0651900    0.0176607   -8.4542043  
H    2.0500099   -1.7532061   -8.0014533  
C    4.3169230   -3.6433559   -5.1693180  
C    3.5802702   -3.0285210   -6.1237291  
C    4.1348790   -3.4960206   -7.3848214  
C    5.2287475   -4.4112430   -6.9944320  
N    5.3401784   -4.5016695   -5.6969745  
C    6.0369120   -5.0904840   -7.9694131  
C    5.7644280   -4.8659378   -9.2750418  
O    6.4379664   -5.4325741  -10.2905758  
C    4.6668600   -3.9482003   -9.7007937  
O    4.4751457   -3.7908396  -10.9064888  
C    3.8519885   -3.2631672   -8.6816570  
H    6.8298833   -5.7536067   -7.6557661  
H    6.0154685   -5.0811060  -11.0950131  
H    3.0664475   -2.6066062   -9.0310616  
H    4.2197508   -3.5594781   -4.0985728  
C    2.3971438    2.0127888    3.1728260  
C    1.9431056    1.6308205    1.9564670  
C    0.8496017    0.7127664    2.2356185  
C    0.7794028    0.6545384    3.7115134  
N    1.6840587    1.4146091    4.2663826  
C   -0.1885723   -0.1578550    4.3957118  
C   -1.0476298   -0.8789867    3.6398520  
O   -2.0015663   -1.6796266    4.1448486  
C   -1.0022026   -0.8410666    2.1483229  
O   -1.8147390   -1.5232959    1.5241687  
C    0.0000000    0.0000000    1.4700000  
H    2.3054237    1.9346118    0.9892483  
H   -0.2170646   -0.1815267    5.4753125  
H   -2.4487139   -2.0549881    3.3649027  
H    3.2048689    2.6911772    3.3971983  
