62

C   -3.8806665    2.9507169   -1.4420380  
C   -2.7551687    2.2520642   -1.8129921  
C   -3.1242330    1.4213273   -2.9122050  
C   -4.4988329    1.6581329   -3.1697387  
N   -4.9275639    2.5905122   -2.2578854  
C   -5.2001481    1.0079489   -4.1896439  
C   -4.5010017    0.1024362   -4.9638655  
O   -5.1370356   -0.5602051   -5.9735104  
C   -3.1292000   -0.1476681   -4.7221533  
O   -2.5742540   -1.0763965   -5.5782143  
C   -2.4367654    0.4931902   -3.7159918  
H   -1.7874958    2.3306079   -1.3477688  
H   -5.8580708    2.9635151   -2.2030548  
H   -6.2478696    1.1838981   -4.3909470  
H   -4.4765524   -1.1353450   -6.3812363  
H   -1.6468491   -1.1868844   -5.3473114  
C    0.0000000    0.0000000    0.0000000  
C   -1.0314018    0.2080059   -0.8862340  
C   -0.4818919    0.0978367   -2.1979128  
C    0.9007536   -0.1809191   -2.0478684  
N    1.1604121   -0.2316984   -0.7007913  
C    1.7599370   -0.3539170   -3.1372090  
C    1.2133315   -0.2438022   -4.4010427  
O    2.0071673   -0.4039968   -5.4997578  
C   -0.1638260    0.0342294   -4.5711964  
O   -0.5558753    0.1135601   -5.8915552  
C   -1.0119682    0.2052831   -3.4969890  
H   -2.0538172    0.4149084   -0.6200559  
H    2.0560078   -0.4226628   -0.2891827  
H    2.8146677   -0.5664131   -3.0295513  
H    1.4348034   -0.2883361   -6.2693593  
H   -1.4985831    0.3038405   -5.9180045  
C   -3.1525502    4.4008527    0.5088785  
C   -4.0707044    3.9416381   -0.3729915  
C   -5.2991446    4.6441180   -0.0354171  
C   -4.9315246    5.5109146    1.1048037  
N   -3.6744513    5.3726862    1.4282991  
C   -5.8850464    6.3791131    1.7389284  
C   -7.1482969    6.3815693    1.2556824  
O   -8.1397871    7.1417891    1.7507112  
C   -7.5500803    5.5184684    0.1059917  
O   -8.7172740    5.5718890   -0.2813392  
C   -6.5536870    4.6364958   -0.5274502  
H   -5.5888828    7.0016841    2.5705546  
H   -8.9155426    6.9252896    1.2025476  
H   -6.8845531    4.0269855   -1.3576641  
H   -2.1132583    4.1246419    0.5898289  
C    3.1301144    0.0010313    3.1728260  
C    2.5367765    0.0002768    1.9564670  
C    1.1089900   -0.0001027    2.2356185  
C    1.0177864    0.0004150    3.7115134  
N    2.1993570    0.0011613    4.2663826  
C   -0.2459220    0.0002880    4.3957118  
C   -1.3675327    0.0000606    3.6398520  
O   -2.6129319   -0.0000866    4.1448486  
C   -1.3083589   -0.0000910    2.1483229  
O   -2.3693264   -0.0004206    1.5241687  
C    0.0000000    0.0000000    1.4700000  
H    3.0096015    0.0001008    0.9892483  
H   -0.2829642    0.0004689    5.4753125  
H   -3.1967446   -0.0002093    3.3649027  
H    4.1849273    0.0015113    3.3971983  
