60

C    3.3041277    0.0001177   -1.5420422  
C    2.5845376   -0.0004780   -0.3695847  
C    1.2040008   -0.0000007   -0.7283587  
C    1.1422386    0.0006037   -2.1454370  
N    2.4348649    0.0026109   -2.6077461  
C   -0.0655170    0.0008800   -2.8497924  
C   -1.2321762    0.0002326   -2.1101400  
O   -2.4392810    0.0001149   -2.7472528  
C   -1.1911205   -0.0000007   -0.6955268  
O   -2.4371522   -0.0002319   -0.1032867  
C    0.0000000    0.0000000    0.0000000  
H    3.0031535   -0.0000662    0.6222589  
H    2.7054639   -0.0071098   -3.5745257  
H   -0.1193542    0.0014846   -3.9297471  
H   -3.1132985   -0.0000646   -2.0551793  
H   -2.3200288   -0.0004071    0.8516403  
C    6.6801371   -0.0033361    1.2661401  
C    7.7093289   -0.0019931    0.3802296  
C    7.1273481   -0.0004471   -0.9411831  
C    5.6642447   -0.0009742   -0.7511341  
N    5.4589564   -0.0031398    0.6092855  
C    4.7577228    0.0005128   -1.7610450  
C    5.2563305    0.0025579   -3.1263002  
O    4.5202061    0.0039398   -4.1042669  
C    6.8020705    0.0028972   -3.3510072  
O    7.2336245    0.0043059   -4.4960050  
C    7.6791171    0.0014556   -2.1828291  
H    8.7566702   -0.0022584    0.6245425  
H    8.7481218    0.0019067   -2.3470001  
H    4.5604254   -0.0024245    1.0561502  
C    9.8999319   -0.0048749    4.3479189  
C    9.2719639   -0.0043815    3.1490710  
C    7.8527688   -0.0057243    3.4690424  
C    7.8039178   -0.0070718    4.9469450  
N    9.0009104   -0.0065005    5.4677103  
C    6.5603455   -0.0085921    5.6670925  
C    5.4175249   -0.0083700    4.9437009  
O    4.1871168   -0.0096809    5.4841957  
C    5.4339110   -0.0066509    3.4510894  
O    4.3554848   -0.0066676    2.8576105  
C    6.7222835   -0.0051545    2.7355348  
H    9.7168644   -0.0031564    2.1686942  
H    6.5542718   -0.0097627    6.7473109  
H    3.5811821   -0.0090914    4.7213091  
H   10.9607443   -0.0042159    4.5419569  
C    2.3971438    2.0127888    3.1728260  
C    1.9431056    1.6308205    1.9564670  
C    0.8496017    0.7127664    2.2356185  
C    0.7794028    0.6545384    3.7115134  
N    1.6840587    1.4146091    4.2663826  
C   -0.1885723   -0.1578550    4.3957118  
C   -1.0476298   -0.8789867    3.6398520  
O   -2.0015663   -1.6796266    4.1448486  
C   -1.0022026   -0.8410666    2.1483229  
O   -1.8147390   -1.5232959    1.5241687  
C    0.0000000    0.0000000    1.4700000  
H    2.3054237    1.9346118    0.9892483  
H   -0.2170646   -0.1815267    5.4753125  
H   -2.4487139   -2.0549881    3.3649027  
H    3.2048689    2.6911772    3.3971983  
