58

C    2.5092667   -2.0880360   -5.9399682  
C    1.9605216   -1.6268625   -4.7865938  
C    0.8894587   -0.7326233   -5.1580727  
C    0.8589566   -0.7104876   -6.6329863  
N    1.8659263   -1.5524061   -7.0453878  
C   -0.0149631    0.0176445   -7.3731170  
C   -0.9904844    0.8341830   -6.6701527  
O   -1.8197975    1.5255377   -7.2468408  
C   -0.9762348    0.8261500   -5.1082510  
O   -1.7925790    1.5098881   -4.5054701  
C    0.0139737    0.0003881   -4.4216233  
H    2.2707711   -1.8836544   -3.7893895  
H    3.3296620   -2.7739652   -6.0754079  
H    2.0965136   -1.7491781   -8.0020269  
C    3.2798083    0.0005857   -1.4499649  
C    2.5571142    0.0005565   -2.5996554  
C    1.1637433    0.0001549   -2.2210361  
C    1.1336964   -0.0000199   -0.7459471  
N    2.4483512   -0.0001430   -0.3402719  
C    0.0000000    0.0000000    0.0000000  
C   -1.2757369   -0.0000185   -0.6964413  
O   -2.3524597   -0.0000639   -0.1142311  
C   -1.2676496   -0.0000872   -2.2584080  
O   -2.3355767   -0.0004098   -2.8557291  
C    0.0181559    0.0001762   -2.9516297  
H    2.9547353    0.0006075   -3.5989106  
H    4.3498547    0.0008612   -1.3200022  
H    2.7563628    0.0012821    0.6148060  
C   -0.0224908    0.0203749   -8.8430949  
C    0.7915902   -0.6616368   -9.6819704  
C    0.3472037   -0.2936692  -11.0174930  
C   -0.7742313    0.6434456  -10.7921422  
N   -0.9955304    0.8314672   -9.5194817  
C   -1.4952155    1.2430625  -11.8810530  
C   -1.1130010    0.9214349  -13.1379550  
O   -1.6966040    1.4063206  -14.2471594  
C    0.0151252   -0.0208517  -13.3979323  
O    0.3084818   -0.2682854  -14.5675217  
C    0.7390232   -0.6228652  -12.2641432  
H    1.5945503   -1.3316016   -9.4260829  
H   -2.3107795    1.9243800  -11.6872203  
H   -1.2078163    0.9968317  -14.9837447  
H    1.5502395   -1.3003855  -12.4946302  
C    0.0000000    0.0000000    1.4700000  
C    1.0662921    0.0000102    2.3034270  
C    0.4961870   -0.0000064    3.6418889  
C   -0.9663858    0.0000850    3.4240247  
N   -1.2632773    0.0000084    2.1528658  
C   -1.8985362    0.0000517    4.5177257  
C   -1.3925775   -0.0004564    5.7720543  
O   -2.1456383   -0.0005410    6.8851312  
C    0.0786232   -0.0009323    6.0245000  
O    0.4683759   -0.0012588    7.1921102  
C    1.0143166   -0.0008442    4.8859032  
H    2.1107198   -0.0000632    2.0421868  
H   -2.9622183    0.0003270    4.3293377  
H   -1.5042274   -0.0009692    7.6184419  
H    2.0724152   -0.0013148    5.1109744  
