58

C    3.2798079    0.0005854   -1.4499652  
C    2.5571138    0.0005562   -2.5996556  
C    1.1637429    0.0001546   -2.2210361  
C    1.1336962   -0.0000201   -0.7459474  
N    2.4483511   -0.0001429   -0.3402725  
C    0.0000000    0.0000000    0.0000000  
C   -1.2757372   -0.0000187   -0.6964411  
O   -2.3524601   -0.0000638   -0.1142301  
C   -1.2676502   -0.0000873   -2.2584078  
O   -2.3355772   -0.0004103   -2.8557289  
C    0.0181553    0.0001757   -2.9516294  
H    2.9547344    0.0006073   -3.5989111  
H    4.3498545    0.0008608   -1.3200031  
H    2.7563626    0.0012822    0.6148059  
C    2.5654221   -2.1380213   -5.7671300  
C    2.0750605   -1.7307737   -6.9609784  
C    0.9890563   -0.8211468   -6.6298090  
C    0.9623541   -0.7951243   -5.1515691  
N    1.8841699   -1.5650744   -4.6402746  
C    0.0139728    0.0003876   -4.4216237  
C   -0.8674069    0.7367420   -5.1359671  
O   -1.8069756    1.5244845   -4.5857729  
C   -0.8654624    0.7319005   -6.6286602  
O   -1.6966245    1.4263295   -7.2136036  
C    0.1172739   -0.0924199   -7.3543664  
H    2.4091164   -2.0127392   -7.9448367  
H   -2.2769664    1.9163771   -5.3438499  
H    0.0858748   -0.0683090   -8.4354136  
C    4.4447765   -3.7122323   -6.4221173  
C    3.6762784   -3.0669212   -5.5140624  
C    4.1879765   -3.4916832   -4.2201375  
C    5.2942969   -4.4182622   -4.5427686  
N    5.4496074   -4.5514338   -5.8320063  
C    6.0690966   -5.0638296   -3.5190428  
C    5.7532998   -4.7956257   -2.2315360  
O    6.3922453   -5.3273778   -1.1755869  
C    4.6425809   -3.8647747   -1.8737924  
O    4.4106507   -3.6672213   -0.6811479  
C    3.8624993   -3.2149744   -2.9420422  
H    6.8718618   -5.7365223   -3.7835465  
H    5.9433538   -4.9492376   -0.3979888  
H    3.0662027   -2.5473458   -2.6413533  
H    4.3838430   -3.6640271   -7.4977271  
C    0.8175213    0.6860729    2.3021913  
C    0.0000000    0.0000000    1.4700000  
C   -0.8887526   -0.7456559    2.3478473  
C   -0.4549825   -0.3816753    3.7138435  
N    0.5448156    0.4573574    3.6934124  
C   -1.0945674   -0.9182058    4.8835240  
C   -2.1210866   -1.7789155    4.6970523  
O   -2.8083856   -2.3554314    5.6976972  
C   -2.5824069   -2.1655116    3.3310774  
O   -3.5227682   -2.9541547    3.2362962  
C   -1.9100805   -1.6015804    2.1470656  
H   -0.7567140   -0.6349833    5.8697035  
H   -3.4728268   -2.9124471    5.2533954  
H   -2.2742832   -1.9066565    1.1752040  
H    1.6189533    1.3585343    2.0405121  
