60

C    3.2573672   -0.0002920   -1.5109380  
C    2.5379470   -0.0001710   -0.3591959  
C    1.1435044    0.0000331   -0.7338498  
C    1.1092609   -0.0000083   -2.2088475  
N    2.4227564    0.0001909   -2.6182609  
C   -0.0265532   -0.0002524   -2.9515660  
C   -1.3003037   -0.0002640   -2.2514978  
O   -2.3786783   -0.0004133   -2.8306423  
C   -1.2877723    0.0000311   -0.6895608  
O   -2.3539957    0.0003306   -0.0892035  
C    0.0000000    0.0000000    0.0000000  
H    2.9384091   -0.0000368    0.6389235  
H    2.7280494   -0.0013407   -3.5742112  
C    5.6736568   -0.0006412   -0.7359113  
C    4.7161333   -0.0005436   -1.6923256  
C    5.4441212   -0.0008917   -2.9519022  
C    6.8695496   -0.0010681   -2.5585347  
N    7.0103281   -0.0010031   -1.2607784  
C    7.9272795   -0.0014688   -3.5313108  
C    7.5769339   -0.0020725   -4.8376766  
O    8.4592379   -0.0024904   -5.8513726  
C    6.1471281   -0.0022845   -5.2664162  
O    5.9016330   -0.0027168   -6.4726299  
C    5.0804453   -0.0018210   -4.2495039  
H    8.9603214   -0.0013834   -3.2155047  
H    7.9113463   -0.0029031   -6.6569570  
H    4.0573868   -0.0021088   -4.6010469  
H    5.5430690   -0.0004691    0.3345653  
C    0.7844859   -0.6865739   -5.2559748  
C   -0.0307352   -0.0004647   -4.4215603  
C   -0.9220584    0.7449731   -5.2969825  
C   -0.4921387    0.3808398   -6.6641549  
N    0.5077999   -0.4580874   -6.6464474  
C   -1.1351039    0.9171357   -7.8320886  
C   -2.1611771    1.7777670   -7.6428215  
O   -2.8513795    2.3540676   -8.6415895  
C   -2.6186494    2.1645130   -6.2755955  
O   -3.5588185    2.9530733   -6.1782529  
C   -1.9428992    1.6008219   -5.0934198  
H   -0.8000284    0.6338054   -8.8191842  
H   -3.5146113    2.9110795   -8.1954797  
H   -2.3043669    1.9060010   -4.1205702  
H    1.5867285   -1.3589153   -4.9964798  
C    0.8576279    0.7185626    2.2703808  
C    0.0000000    0.0000000    1.4700000  
C   -0.8668858   -0.7285659    2.3373528  
C   -0.4876752   -0.4117774    3.6669281  
N    0.5635254    0.4678311    3.5902241  
C   -1.1297612   -0.9515493    4.7854808  
C   -2.1738724   -1.8268314    4.5576857  
O   -2.8357962   -2.3827064    5.6140350  
C   -2.5667212   -2.1555554    3.2384331  
O   -3.6226318   -3.0413663    3.1773122  
C   -1.9335634   -1.6236449    2.1344818  
H    1.0363952    0.8769718    4.3757045  
H   -0.8454472   -0.7142436    5.8013813  
H   -3.5178062   -2.9546422    5.2385129  
H   -3.8247440   -3.2102924    2.2519915  
H   -2.2566033   -1.8942483    1.1360343  
H    1.6567807    1.3889844    2.0042067  
