60

C   -3.2727231   -0.4544674   -1.5420440  
C   -2.5600509   -0.3549264   -0.3695864  
C   -1.1925632   -0.1655615   -0.7283595  
C   -1.1313037   -0.1576672   -2.1454379  
N   -2.4113746   -0.3374045   -2.6077472  
C    0.0650171    0.0081380   -2.8497926  
C    1.2205040    0.1692066   -2.1101404  
O    2.4161248    0.3353123   -2.7472522  
C    1.1798052    0.1637919   -0.6955269  
O    2.4139686    0.3353629   -0.1032864  
C    0.0000000    0.0000000    0.0000000  
H   -2.9746339   -0.4128984    0.6222578  
H    0.1184254    0.0149423   -3.9297475  
H    3.0837148    0.4281742   -2.0551784  
H    2.2979324    0.3194304    0.8516404  
H   -4.3271056   -0.6011384   -1.7024300  
C   -2.8057703   -0.3777886   -4.0232762  
C   -4.0399695   -0.5479479   -4.5635287  
C   -3.8805813   -0.5090772   -5.9980739  
C   -2.4420362   -0.3008597   -6.2511045  
N   -1.8461208   -0.2292712   -5.0131019  
C   -1.8839051   -0.2077211   -7.4846028  
C   -2.7584127   -0.3198233   -8.6401135  
O   -2.3518526   -0.2491355   -9.7925078  
C   -4.2853119   -0.5403086   -8.3956323  
O   -5.0314261   -0.6358696   -9.3607448  
C   -4.7687894   -0.6246410   -7.0197724  
H   -4.9573571   -0.6848678   -4.0192250  
H   -0.8261760   -0.0549984   -7.6482942  
H   -0.8649052   -0.0924516   -4.8532769  
C   -6.9975001   -0.2627070   -5.8617687  
C   -6.2075272   -0.8325443   -6.8013467  
C   -7.0933896   -1.7039460   -7.5579226  
C   -8.4173192   -1.5323833   -6.9220286  
N   -8.3673337   -0.6886730   -5.9272198  
C   -9.5813381   -2.2354885   -7.3865595  
C   -9.4297274   -3.0716685   -8.4387719  
O  -10.4297446   -3.7909382   -8.9760411  
C   -8.1067166   -3.2659042   -9.1021541  
O   -8.0422286   -4.0428291  -10.0547555  
C   -6.9276782   -2.5333120   -8.6070759  
H  -10.5363678   -2.0911349   -6.9028343  
H  -10.0149040   -4.2863102   -9.7051957  
H   -5.9874890   -2.7015939   -9.1149684  
H   -6.7173335    0.4481981   -5.1007862  
C    2.5528530    2.1414826    2.8079335  
C    2.0663498    1.7338582    4.0032312  
C    0.9804344    0.8229586    3.6752840  
C    0.9495562    0.7966882    2.1971295  
N    1.8690446    1.5676019    1.6831036  
C    0.0000000    0.0000000    1.4700000  
C   -0.8785127   -0.7372425    2.1869543  
O   -1.8187535   -1.5261249    1.6395491  
C   -0.8723269   -0.7321790    3.6796354  
O   -1.7010379   -1.4274584    4.2670412  
C    0.1115397    0.0933559    4.4024240  
H    2.4028853    2.0163452    4.9860947  
H   -2.2861435   -1.9184361    2.3990168  
H    0.0832434    0.0693689    5.4835595  
H    3.3664920    2.8238276    2.6198634  
