58

C    6.5597220   -0.0008210    1.3835020  
C    7.6114516   -0.0009113    0.5244669  
C    7.0637930   -0.0009871   -0.8115368  
C    5.5962691   -0.0009037   -0.6593385  
N    5.3559137   -0.0012037    0.6953271  
C    4.7161325   -0.0005435   -1.6923264  
C    5.2498347   -0.0004422   -3.0442503  
O    4.5392139   -0.0001860   -4.0409037  
C    6.8008624   -0.0007797   -3.2289601  
O    7.2618442   -0.0010045   -4.3624314  
C    7.6474458   -0.0008762   -2.0385198  
H    8.6521330   -0.0011060    0.7957480  
H    8.7203338   -0.0009048   -2.1750269  
H    4.4461411    0.0003272    1.1188348  
C    7.6627305   -0.0015696    3.6514033  
C    6.5639046   -0.0006886    2.8534960  
C    5.4117198    0.0001033    3.7237290  
C    5.9331029   -0.0003629    5.1039277  
N    7.3042749   -0.0017770    4.9908997  
C    5.1586985    0.0005335    6.2183791  
C    3.7153749    0.0018334    6.0470590  
O    2.9328771    0.0026478    6.9883331  
C    3.1412607    0.0020951    4.5944073  
O    1.9277112    0.0028790    4.4376981  
C    4.0764689    0.0013312    3.4722500  
H    5.5612839    0.0002998    7.2217903  
H    3.6708894    0.0017237    2.4696388  
H    8.7042193   -0.0023018    3.3735735  
H    7.9457740   -0.0008403    5.7626025  
C    3.2573665   -0.0002920   -1.5109385  
C    2.5379463   -0.0001709   -0.3591964  
C    1.1435038    0.0000331   -0.7338500  
C    1.1092599   -0.0000083   -2.2088477  
N    2.4227553    0.0001909   -2.6182613  
C   -0.0265539   -0.0002524   -2.9515660  
C   -1.3003040   -0.0002640   -2.2514977  
O   -2.3786790   -0.0004133   -2.8306421  
C   -1.2877727    0.0000311   -0.6895603  
O   -2.3539959    0.0003306   -0.0892030  
C    0.0000000    0.0000000    0.0000000  
H    2.9384091   -0.0000367    0.6389234  
H   -0.0296303   -0.0004086   -4.0327229  
H    2.7280482   -0.0013407   -3.5742119  
C    0.8175213    0.6860729    2.3021913  
C    0.0000000    0.0000000    1.4700000  
C   -0.8887526   -0.7456559    2.3478473  
C   -0.4549825   -0.3816753    3.7138435  
N    0.5448156    0.4573574    3.6934124  
C   -1.0945674   -0.9182058    4.8835240  
C   -2.1210866   -1.7789155    4.6970523  
O   -2.8083856   -2.3554314    5.6976972  
C   -2.5824069   -2.1655116    3.3310774  
O   -3.5227682   -2.9541547    3.2362962  
C   -1.9100805   -1.6015804    2.1470656  
H   -0.7567140   -0.6349833    5.8697035  
H   -3.4728268   -2.9124471    5.2533954  
H   -2.2742832   -1.9066565    1.1752040  
H    1.6189533    1.3585343    2.0405121  
