58

C   -3.2573655    0.0019060   -1.5109399  
C   -2.5379463    0.0014285   -0.3591975  
C   -1.1435032    0.0005335   -0.7338505  
C   -1.1092589    0.0005578   -2.2088482  
N   -2.4227539    0.0010095   -2.6182621  
C    0.0265553    0.0002391   -2.9515663  
C    1.3003051   -0.0003804   -2.2514967  
O    2.3786804   -0.0007656   -2.8306408  
C    1.2877732   -0.0006693   -0.6895599  
O    2.3539964   -0.0014971   -0.0892019  
C    0.0000000    0.0000000    0.0000000  
H   -2.9384086    0.0014928    0.6389220  
H    0.0296317    0.0003937   -4.0327229  
H   -2.7280459    0.0026924   -3.5742130  
C   -4.7161314    0.0028805   -1.6923284  
C   -5.6747623    0.0037083   -0.7370247  
C   -6.9326473    0.0044371   -1.4679303  
C   -6.5359767    0.0040204   -2.8924430  
N   -5.2378980    0.0030273   -3.0302125  
C   -7.5062980    0.0044802   -3.9524252  
C   -8.8134725    0.0049293   -3.6051092  
O   -9.8251206    0.0053953   -4.4897612  
C   -9.2455256    0.0049866   -2.1763015  
O  -10.4523053    0.0055310   -1.9336028  
C   -8.2310892    0.0045527   -1.1072636  
H   -5.5443939    0.0037215    0.3316569  
H   -7.1880980    0.0043660   -4.9847324  
H  -10.6319731    0.0056127   -3.9437379  
C   -7.0034789    2.0166092    2.6754660  
C   -7.0346632    1.6348128    1.3774528  
C   -8.1595045    0.7169997    1.2833734  
C   -8.7087075    0.6587087    2.6550735  
N   -8.0352130    1.4185376    3.4754729  
C   -9.8474218   -0.1534949    2.9848327  
C  -10.4120639   -0.8743847    1.9894265  
O  -11.4788814   -1.6748284    2.1544399  
C   -9.8811584   -0.8363949    0.5948449  
O  -10.4449196   -1.5184003   -0.2608783  
C   -8.7120160    0.0044736    0.2818402  
H   -6.3757859    1.9385714    0.5820366  
H  -10.2275549   -0.1772181    3.9956967  
H  -11.6463308   -2.0500433    1.2710777  
H   -6.3134720    2.6947964    3.1518335  
C    2.5528530    2.1414826    2.8079335  
C    2.0663498    1.7338582    4.0032312  
C    0.9804344    0.8229586    3.6752840  
C    0.9495562    0.7966882    2.1971295  
N    1.8690446    1.5676019    1.6831036  
C    0.0000000    0.0000000    1.4700000  
C   -0.8785127   -0.7372425    2.1869543  
O   -1.8187535   -1.5261249    1.6395491  
C   -0.8723269   -0.7321790    3.6796354  
O   -1.7010379   -1.4274584    4.2670412  
C    0.1115397    0.0933559    4.4024240  
H    2.4028853    2.0163452    4.9860947  
H   -2.2861435   -1.9184361    2.3990168  
H    0.0832434    0.0693689    5.4835595  
H    3.3664920    2.8238276    2.6198634  
