58

C   -1.0965489    0.0022444   -0.8010316  
C    0.0000000    0.0000000    0.0000000  
C    1.1546538   -0.0026532   -0.8669508  
C    0.6372003   -0.0017350   -2.2486280  
N   -0.7342859    0.0008601   -2.1395018  
C    1.4147721   -0.0032061   -3.3608712  
C    2.8576001   -0.0060978   -3.1854449  
O    3.6427720   -0.0076576   -4.1244888  
C    3.4275768   -0.0073672   -1.7311654  
O    4.6406725   -0.0101061   -1.5710036  
C    2.4891815   -0.0052939   -0.6116730  
H    2.8919055   -0.0059852    0.3920872  
H   -2.1388220    0.0045762   -0.5261662  
H   -1.3735808    0.0035913   -2.9130273  
C    0.8712826   -0.0020623   -4.7267106  
C   -0.4275879    0.0005450   -5.1068522  
C   -0.3927372    0.0005281   -6.5612544  
C    1.0467481   -0.0022225   -6.8995719  
N    1.7925756   -0.0038308   -5.8282514  
C    1.5084831   -0.0031080   -8.2604121  
C    0.5746238   -0.0017155   -9.2387988  
O    0.8627955   -0.0023100  -10.5514290  
C   -0.8856642    0.0006934   -8.9294227  
O   -1.6794896    0.0019877   -9.8701987  
C   -1.3340921    0.0016052   -7.5255575  
H   -1.3014231    0.0021767   -4.4779752  
H   -0.0042864   -0.0009955  -10.9956357  
H   -2.4004290    0.0032431   -7.3434791  
C    5.0967512   -2.0217501   -6.5534095  
C    3.8143945   -1.6376393   -6.7524076  
C    3.8684341   -0.7198158   -7.8798735  
C    5.2998136   -0.6640522   -8.2467895  
N    6.0247143   -1.4252524   -7.4727848  
C    5.7757287    0.1474027   -9.3331284  
C    4.8631284    0.8699917  -10.0218669  
O    5.1663529    1.6699911  -11.0582523  
C    3.4114667    0.8345676   -9.6760559  
O    2.6371885    1.5180227  -10.3458340  
C    2.9481723   -0.0055778   -8.5573784  
H    2.9398007   -1.9398846   -6.2021265  
H    6.8273530    0.1692668   -9.5791351  
H    4.3127916    2.0467607  -11.3386650  
H    5.4785255   -2.7006916   -5.8075810  
C    2.3971438    2.0127888    3.1728260  
C    1.9431056    1.6308205    1.9564670  
C    0.8496017    0.7127664    2.2356185  
C    0.7794028    0.6545384    3.7115134  
N    1.6840587    1.4146091    4.2663826  
C   -0.1885723   -0.1578550    4.3957118  
C   -1.0476298   -0.8789867    3.6398520  
O   -2.0015663   -1.6796266    4.1448486  
C   -1.0022026   -0.8410666    2.1483229  
O   -1.8147390   -1.5232959    1.5241687  
C    0.0000000    0.0000000    1.4700000  
H    2.3054237    1.9346118    0.9892483  
H   -0.2170646   -0.1815267    5.4753125  
H   -2.4487139   -2.0549881    3.3649027  
H    3.2048689    2.6911772    3.3971983  
