62

C    3.3041272    0.0001177   -1.5420431  
C    2.5845370   -0.0004780   -0.3695856  
C    1.2040004   -0.0000008   -0.7283590  
C    1.1422372    0.0006037   -2.1454372  
N    2.4348639    0.0026111   -2.6077465  
C   -0.0655183    0.0008798   -2.8497916  
C   -1.2321770    0.0002324   -2.1101397  
O   -2.4392813    0.0001147   -2.7472520  
C   -1.1911211   -0.0000007   -0.6955262  
O   -2.4371526   -0.0002320   -0.1032861  
C    0.0000000    0.0000000    0.0000000  
H    3.0031535   -0.0000661    0.6222581  
H    2.7054628   -0.0071098   -3.5745262  
H   -3.1132988   -0.0000650   -2.0551783  
H   -2.3200283   -0.0004072    0.8516412  
C    0.6887308   -0.7238760   -5.1615446  
C    0.3681060   -0.5064782   -6.4630873  
C   -0.7390726    0.4202659   -6.4747852  
C   -1.0393323    0.7271838   -5.0632481  
N   -0.1387085    0.0017018   -4.3179686  
C   -2.0224208    1.5671716   -4.6513473  
C   -2.8394474    2.2118215   -5.6659552  
O   -3.7493947    2.9848412   -5.3962563  
C   -2.5393029    1.9011590   -7.1670237  
O   -3.2207395    2.4377604   -8.0301370  
C   -1.4529093    0.9785914   -7.4871328  
H    0.8518653   -0.9453883   -7.3174577  
H   -2.2260450    1.7787427   -3.6108258  
H   -1.2514017    0.7689506   -8.5288472  
H    1.4597340   -1.3532679   -4.7476501  
C    4.7577221    0.0005130   -1.7610465  
C    5.7407059   -0.0008416   -0.8308209  
C    6.9792949    0.0003734   -1.5939694  
C    6.5459652    0.0023748   -3.0077605  
N    5.2447612    0.0025463   -3.1119587  
C    7.4885870    0.0040732   -4.0924486  
C    8.8042951    0.0041744   -3.7790084  
O    9.7927577    0.0056659   -4.6894921  
C    9.2731065    0.0025541   -2.3618371  
O   10.4857521    0.0026212   -2.1503867  
C    8.2866183    0.0007836   -1.2669571  
H    5.6379823   -0.0023747    0.2408700  
H    7.1438316    0.0053119   -5.1161926  
H   10.6134432    0.0053478   -4.1644895  
H    8.6668151   -0.0002417   -0.2541990  
C    0.8576279    0.7185626    2.2703808  
C    0.0000000    0.0000000    1.4700000  
C   -0.8668858   -0.7285659    2.3373528  
C   -0.4876752   -0.4117774    3.6669281  
N    0.5635254    0.4678311    3.5902241  
C   -1.1297612   -0.9515493    4.7854808  
C   -2.1738724   -1.8268314    4.5576857  
O   -2.8357962   -2.3827064    5.6140350  
C   -2.5667212   -2.1555554    3.2384331  
O   -3.6226318   -3.0413663    3.1773122  
C   -1.9335634   -1.6236449    2.1344818  
H    1.0363952    0.8769718    4.3757045  
H   -0.8454472   -0.7142436    5.8013813  
H   -3.5178062   -2.9546422    5.2385129  
H   -3.8247440   -3.2102924    2.2519915  
H   -2.2566033   -1.8942483    1.1360343  
H    1.6567807    1.3889844    2.0042067  
