64

C    1.9332187   -2.1183845   -5.2802488  
C    1.0132699   -1.6573353   -4.3672340  
C    0.1425865   -0.7692370   -5.0656547  
C    0.5838243   -0.7278050   -6.4130662  
N    1.6739347   -1.5567569   -6.5085385  
C   -0.0442376    0.0493845   -7.3909742  
C   -1.1378300    0.7981578   -7.0016525  
O   -1.7886908    1.5745670   -7.9163010  
C   -1.5929067    0.7703229   -5.6618957  
O   -2.6929014    1.5705680   -5.4317595  
C   -0.9736297    0.0040464   -4.6965763  
H    0.9751833   -1.9269943   -3.3256840  
H    2.1939836   -1.7372803   -7.3481460  
H    0.2872453    0.0854199   -8.4195763  
H   -2.5110532    2.0070704   -7.4425941  
H   -2.9357434    1.4942923   -4.5039592  
C    3.4641634   -4.3547704   -1.7243454  
C    2.7363007   -3.5400412   -2.5603484  
C    3.3310199   -3.6326621   -3.8535344  
C    4.4270369   -4.5264170   -3.7445590  
N    4.4807657   -4.9449253   -2.4381973  
C    5.2451984   -4.8556240   -4.8294664  
C    4.9514034   -4.2721939   -6.0466233  
O    5.7178660   -4.5590474   -7.1389892  
C    3.8623010   -3.3776966   -6.1752616  
O    3.6996761   -2.8798380   -7.4515982  
C    3.0549065   -3.0522595   -5.1053404  
H    1.8824848   -2.9505353   -2.2731658  
H    5.1497525   -5.5930061   -2.0634590  
H    6.0821314   -5.5359828   -4.7529327  
H    5.3462284   -4.0536373   -7.8736398  
H    2.9437049   -2.2847651   -7.4519152  
H    3.3394529   -4.5604918   -0.6750194  
C    1.1188642    0.0008222   -0.8003808  
C    0.0000000    0.0000000    0.0000000  
C   -1.1323862    0.0008899   -0.8673528  
C   -0.6382663    0.0019679   -2.1969280  
N    0.7324016    0.0038481   -2.1202242  
C   -1.4770914    0.0027318   -3.3154808  
C   -2.8395473    0.0020945   -3.0876857  
O   -3.7039201    0.0024425   -4.1440349  
C   -3.3517868    0.0013931   -1.7684331  
O   -4.7300497    0.0012366   -1.7073121  
C   -2.5248543    0.0009123   -0.6644817  
H    1.3576314   -0.0056167   -2.9057046  
H   -4.5940032    0.0021826   -3.7685128  
H   -4.9934602    0.0007259   -0.7819913  
H   -2.9462577    0.0005603    0.3339659  
H    2.1619895    0.0009355   -0.5342068  
C    2.5528530    2.1414826    2.8079335  
C    2.0663498    1.7338582    4.0032312  
C    0.9804344    0.8229586    3.6752840  
C    0.9495562    0.7966882    2.1971295  
N    1.8690446    1.5676019    1.6831036  
C    0.0000000    0.0000000    1.4700000  
C   -0.8785127   -0.7372425    2.1869543  
O   -1.8187535   -1.5261249    1.6395491  
C   -0.8723269   -0.7321790    3.6796354  
O   -1.7010379   -1.4274584    4.2670412  
C    0.1115397    0.0933559    4.4024240  
H    2.4028853    2.0163452    4.9860947  
H   -2.2861435   -1.9184361    2.3990168  
H    0.0832434    0.0693689    5.4835595  
H    3.3664920    2.8238276    2.6198634  
