64

C   -4.5382360    2.1274892   -0.3187876  
C   -3.4269602    1.6643337   -0.9843851  
C   -3.8900483    0.7769752   -2.0006254  
C   -5.3047950    0.7381445   -1.9062262  
N   -5.6653099    1.5678669   -0.8736536  
C   -6.0984770   -0.0376818   -2.7564914  
C   -5.4522278   -0.7877416   -3.7197929  
O   -6.1789762   -1.5629108   -4.5765089  
C   -4.0415022   -0.7625028   -3.8294926  
O   -3.5480072   -1.5637590   -4.8383502  
C   -3.2578655    0.0024282   -2.9908505  
H   -2.4078383    1.9321496   -0.7637973  
H   -7.1771659   -0.0717345   -2.6896157  
H   -5.5421678   -1.9966428   -5.1592753  
H   -2.5888325   -1.4892402   -4.8442641  
H   -4.6159715    2.8116402    0.5087712  
C   -7.7336338    5.2996922    0.4624499  
C   -6.7988472    4.3932969    0.0185055  
C   -7.4516041    3.1275827   -0.0619650  
C   -8.7948945    3.3252090    0.3484546  
N   -8.9318532    4.6547727    0.6616953  
C   -9.7322860    2.2888279    0.3931602  
C   -9.3059479    1.0300720    0.0164015  
O  -10.1802155   -0.0178137    0.0409783  
C   -7.9696188    0.8128601   -0.3957410  
O   -7.6996386   -0.4957241   -0.7393424  
C   -7.0442479    1.8347555   -0.4398304  
H   -5.7724176    4.6166630   -0.2171722  
H   -9.7792650    5.0930315    0.9744298  
H  -10.7575197    2.4328878    0.7051610  
H   -9.6855042   -0.7931439   -0.2546365  
H   -6.7770752   -0.5561623   -1.0054756  
H   -7.6400847    6.3549076    0.6541004  
C    0.0000000    0.0000000    0.0000000  
C    1.0521666   -0.0011982   -0.8862343  
C    0.4917215   -0.0011996   -2.1979132  
C   -0.9187429    0.0003215   -2.0478682  
N   -1.1833171   -0.0009323   -0.7007913  
C   -1.7951703    0.0010483   -3.1372089  
C   -1.2375841    0.0005313   -4.4010422  
O   -2.0474218    0.0015510   -5.4997578  
C    0.1673576   -0.0013585   -4.5711963  
O    0.5673520   -0.0020735   -5.8915554  
C    1.0325768   -0.0023493   -3.4969892  
H    2.0953056   -0.0030808   -0.6200564  
H   -2.0989778    0.0102529   -0.2891822  
H   -1.4634888    0.0006601   -6.2693595  
H    1.5290707   -0.0033271   -5.9180047  
H    2.1042146   -0.0039770   -3.6584456  
C    3.1301144    0.0010313    3.1728260  
C    2.5367765    0.0002768    1.9564670  
C    1.1089900   -0.0001027    2.2356185  
C    1.0177864    0.0004150    3.7115134  
N    2.1993570    0.0011613    4.2663826  
C   -0.2459220    0.0002880    4.3957118  
C   -1.3675327    0.0000606    3.6398520  
O   -2.6129319   -0.0000866    4.1448486  
C   -1.3083589   -0.0000910    2.1483229  
O   -2.3693264   -0.0004206    1.5241687  
C    0.0000000    0.0000000    1.4700000  
H    3.0096015    0.0001008    0.9892483  
H   -0.2829642    0.0004689    5.4753125  
H   -3.1967446   -0.0002093    3.3649027  
H    4.1849273    0.0015113    3.3971983  
