60

C   -3.3003543   -0.0034477   -1.4738961  
C   -2.5232826   -0.0025823   -2.6090725  
C   -1.1623223   -0.0008964   -2.1820090  
C   -1.1711890   -0.0010946   -0.7636130  
N   -2.4852309   -0.0007071   -0.3662339  
C    0.0000000    0.0000000    0.0000000  
C    1.2020365    0.0010116   -0.6806484  
O    2.3759235    0.0017528    0.0157729  
C    1.2314626    0.0016008   -2.0955517  
O    2.5054352    0.0030205   -2.6250196  
C    0.0764477    0.0007949   -2.8495194  
H   -2.8919983   -0.0019969   -3.6205280  
H   -2.8036178   -0.0112989    0.5858685  
H    3.0835617    0.0026936   -0.6418839  
H    2.4359999    0.0033082   -3.5845938  
H    0.1304051    0.0014575   -3.9319086  
C   -4.7630493   -0.0046899   -1.3275368  
C   -5.6984986   -0.0064924   -2.3055502  
C   -6.9735480   -0.0070250   -1.6050154  
C   -6.6111473   -0.0054400   -0.1714021  
N   -5.3167459   -0.0039863   -0.0025480  
C   -7.6066054   -0.0053798    0.8650098  
C   -8.9050767   -0.0064479    0.4864514  
O   -9.9376455   -0.0065354    1.3465926  
C   -9.3027456   -0.0076865   -0.9523047  
O  -10.5033597   -0.0087443   -1.2238686  
C   -8.2629681   -0.0077672   -1.9967117  
H   -5.5425435   -0.0072639   -3.3707989  
H  -10.7311736   -0.0073814    0.7813801  
H   -8.5922693   -0.0085664   -3.0271435  
C   -7.2074027   -0.0040608    2.2797662  
C   -5.9548519   -0.0028488    2.7923028  
C   -6.1400504   -0.0019072    4.2352860  
C   -7.6068239   -0.0026341    4.4227953  
N   -8.2377617   -0.0039776    3.2800337  
C   -8.2069306   -0.0020829    5.7285352  
C   -7.3793524   -0.0012502    6.7983241  
O   -7.8018388   -0.0006567    8.0740776  
C   -5.8948843   -0.0008731    6.6417538  
O   -5.2026951    0.0000139    7.6596407  
C   -5.3035595   -0.0014082    5.2918431  
H   -5.0206183   -0.0027119    2.2572482  
H   -9.2817994   -0.0024296    5.8360878  
H   -6.9853896   -0.0001538    8.6056444  
H   -4.2241026   -0.0012264    5.2211115  
C    0.0000000    0.0000000    1.4700000  
C    1.0662921    0.0000102    2.3034270  
C    0.4961870   -0.0000064    3.6418889  
C   -0.9663858    0.0000850    3.4240247  
N   -1.2632773    0.0000084    2.1528658  
C   -1.8985362    0.0000517    4.5177257  
C   -1.3925775   -0.0004564    5.7720543  
O   -2.1456383   -0.0005410    6.8851312  
C    0.0786232   -0.0009323    6.0245000  
O    0.4683759   -0.0012588    7.1921102  
C    1.0143166   -0.0008442    4.8859032  
H    2.1107198   -0.0000632    2.0421868  
H   -2.9622183    0.0003270    4.3293377  
H   -1.5042274   -0.0009692    7.6184419  
H    2.0724152   -0.0013148    5.1109744  
