58

C    3.3321166    0.0004714   -1.3379344  
C    2.6974168    0.0000116   -2.5332317  
C    1.2800427   -0.0002119   -2.2052842  
C    1.2395030    0.0000643   -0.7271295  
N    2.4394059    0.0005460   -0.2131038  
C    0.0000000    0.0000000    0.0000000  
C   -1.1468706    0.0000634   -0.7169528  
O   -2.3742202    0.0000071   -0.1695480  
C   -1.1388777    0.0001605   -2.2096346  
O   -2.2206248    0.0000900   -2.7970393  
C    0.1454507    0.0001813   -2.9324238  
H   -2.9844350    0.0001025   -0.9290149  
H    0.1083554    0.0003680   -4.0135588  
H    4.3940030    0.0007619   -1.1498648  
C    6.1837835   -2.0089286   -4.4499602  
C    5.2722818   -1.6276453   -3.5251001  
C    4.3865201   -0.7114700   -4.2269180  
C    4.9246822   -0.6534666   -5.6029996  
N    5.9781767   -1.4120392   -5.7397758  
C    4.3189868    0.1572325   -6.6232873  
C    3.2251523    0.8769576   -6.2843821  
O    2.5591558    1.6759399   -7.1353328  
C    2.6579640    0.8392212   -4.9041524  
O    1.6604105    1.5201138   -4.6664700  
C    3.2973484   -0.0000933   -3.8752387  
H    5.2087765   -1.9307520   -2.4939987  
H    1.8320619    2.0505970   -6.6060695  
H    7.0137814   -2.6859600   -4.3246365  
C    5.3841276   -0.8430487   -8.6979034  
C    4.8831199    0.1892744   -7.9803532  
C    5.0224218    1.3502497   -8.8459340  
C    5.6430461    0.8226917  -10.0800703  
N    5.8573535   -0.4624236   -9.9991949  
C    5.9496928    1.6698473  -11.1996155  
C    5.6496086    2.9842140  -11.0913369  
O    5.8807507    3.8889512  -12.0578069  
C    5.0225755    3.5467855   -9.8590619  
O    4.7769614    4.7526263   -9.8300229  
C    4.7177487    2.6573054   -8.7242359  
H    6.4034001    1.2574593  -12.0889948  
H    5.5622673    4.7325782  -11.6890055  
H    4.2635298    3.1036639   -7.8497762  
H    5.4618370   -1.8784578   -8.4065913  
C    2.5528530    2.1414826    2.8079335  
C    2.0663498    1.7338582    4.0032312  
C    0.9804344    0.8229586    3.6752840  
C    0.9495562    0.7966882    2.1971295  
N    1.8690446    1.5676019    1.6831036  
C    0.0000000    0.0000000    1.4700000  
C   -0.8785127   -0.7372425    2.1869543  
O   -1.8187535   -1.5261249    1.6395491  
C   -0.8723269   -0.7321790    3.6796354  
O   -1.7010379   -1.4274584    4.2670412  
C    0.1115397    0.0933559    4.4024240  
H    2.4028853    2.0163452    4.9860947  
H   -2.2861435   -1.9184361    2.3990168  
H    0.0832434    0.0693689    5.4835595  
H    3.3664920    2.8238276    2.6198634  
