58

C    3.2573665   -0.0002916   -1.5109385  
C    2.5379467   -0.0001706   -0.3591970  
C    1.1435037    0.0000335   -0.7338494  
C    1.1092600   -0.0000076   -2.2088471  
N    2.4227553    0.0001917   -2.6182612  
C   -0.0265543   -0.0002514   -2.9515657  
C   -1.3003043   -0.0002632   -2.2514971  
O   -2.3786797   -0.0004124   -2.8306417  
C   -1.2877733    0.0000315   -0.6895596  
O   -2.3539957    0.0003308   -0.0892022  
C    0.0000000    0.0000000    0.0000000  
H    2.9384091   -0.0000368    0.6389234  
H   -0.0296302   -0.0004073   -4.0327226  
H    4.3270390   -0.0004759   -1.6439452  
C    5.7080832   -2.1452796   -4.5132735  
C    5.6084209   -1.7395357   -5.8005258  
C    4.4745312   -0.8282615   -5.8198397  
C    3.9954377   -0.7997391   -4.4211835  
N    4.7146912   -1.5697618   -3.6506453  
C    2.8699628   -0.0020514   -4.0185830  
C    2.2514663    0.7339952   -4.9699146  
O    1.1895385    1.5236039   -4.7356738  
C    2.7114645    0.7266546   -6.3899525  
O    2.1009828    1.4209416   -7.2026631  
C    3.8682925   -0.0998692   -6.7779368  
H    6.2279140   -2.0234834   -6.6339986  
H    0.9754891    1.9147014   -5.6019172  
H    4.1702522   -0.0775352   -7.8164704  
C    9.0816580   -4.4006527   -6.2535935  
C    8.0082281   -3.5905773   -6.0649104  
C    7.6624675   -3.6690411   -4.6652221  
C    8.6294012   -4.5978693   -4.0495049  
N    9.4621264   -5.0063335   -5.0656815  
C    8.6391841   -4.9381641   -2.7358049  
C    7.6298891   -4.3505615   -1.8705987  
O    7.5552720   -4.5940219   -0.6733268  
C    6.5956832   -3.3644792   -2.5013641  
O    5.7410913   -2.8637756   -1.7828731  
C    6.6862760   -3.0748742   -3.9302709  
H    7.5148189   -3.0050435   -6.8201001  
H    9.3574097   -5.6213939   -2.3042271  
H    9.6266586   -4.6062949   -7.1605532  
H   10.2294441   -5.6444075   -4.9601741  
C    0.8175213    0.6860729    2.3021913  
C    0.0000000    0.0000000    1.4700000  
C   -0.8887526   -0.7456559    2.3478473  
C   -0.4549825   -0.3816753    3.7138435  
N    0.5448156    0.4573574    3.6934124  
C   -1.0945674   -0.9182058    4.8835240  
C   -2.1210866   -1.7789155    4.6970523  
O   -2.8083856   -2.3554314    5.6976972  
C   -2.5824069   -2.1655116    3.3310774  
O   -3.5227682   -2.9541547    3.2362962  
C   -1.9100805   -1.6015804    2.1470656  
H   -0.7567140   -0.6349833    5.8697035  
H   -3.4728268   -2.9124471    5.2533954  
H   -2.2742832   -1.9066565    1.1752040  
H    1.6189533    1.3585343    2.0405121  
