62

C    3.3041270    0.0001178   -1.5420432  
C    2.5845372   -0.0004779   -0.3695853  
C    1.2040007   -0.0000006   -0.7283591  
C    1.1422373    0.0006039   -2.1454374  
N    2.4348636    0.0026110   -2.6077466  
C   -0.0655186    0.0008800   -2.8497915  
C   -1.2321770    0.0002326   -2.1101397  
O   -2.4392818    0.0001149   -2.7472515  
C   -1.1911209   -0.0000006   -0.6955262  
O   -2.4371522   -0.0002319   -0.1032858  
C    0.0000000    0.0000000    0.0000000  
H    3.0031535   -0.0000661    0.6222580  
H    2.7054625   -0.0071097   -3.5745263  
H   -3.1132993   -0.0000646   -2.0551781  
H   -2.3200286   -0.0004070    0.8516413  
C    5.7158603    0.0004166   -0.7739107  
C    4.7577214    0.0005130   -1.7610465  
C    5.4466892    0.0027835   -3.0100132  
C    6.8350415    0.0037182   -2.7194894  
N    6.9633980    0.0041888   -1.3526897  
C    7.8161414    0.0056329   -3.7155959  
C    7.3879064    0.0063148   -5.0289095  
O    8.3036920    0.0078228   -6.0410116  
C    6.0070628    0.0057777   -5.3388884  
O    5.7412875    0.0070016   -6.6926630  
C    5.0386300    0.0041623   -4.3567167  
H    7.8332611   -0.0056984   -0.8514698  
H    8.8758770    0.0064977   -3.5007443  
H    7.7997542    0.0083640   -6.8652154  
H    4.7870502    0.0065093   -6.8152781  
H    3.9885434    0.0039690   -4.6246664  
H    5.6080637   -0.0005987    0.2972281  
C   -0.1387086    0.0017020   -4.3179679  
C    0.8847655    0.0023483   -5.2034512  
C    0.2487267    0.0030115   -6.5118679  
C   -1.2011849    0.0025370   -6.2214536  
N   -1.4344183    0.0018498   -4.9370897  
C   -2.1866335    0.0030154   -7.2673870  
C   -1.7437544    0.0043153   -8.5453508  
O   -2.5513001    0.0048878   -9.6195531  
C   -0.2869474    0.0051952   -8.8707331  
O    0.0441876    0.0062442  -10.0563002  
C    0.7042752    0.0046375   -7.7801357  
H    1.9409049    0.0024622   -4.9945357  
H   -3.2396166    0.0024447   -7.0262734  
H   -1.9471957    0.0058406  -10.3838892  
H    1.7498553    0.0054230   -8.0576089  
C    2.4951002    2.0940188    2.9809380  
C    1.9440701    1.6314916    1.8291961  
C    0.8759964    0.7350050    2.2038498  
C    0.8497377    0.7130254    3.6788474  
N    1.8560616    1.5571714    4.0882609  
C   -0.0205033   -0.0168748    4.4215661  
C   -0.9962600   -0.8356168    3.7214979  
O   -1.8224391   -1.5286685    4.3006425  
C   -0.9864710   -0.8277881    2.1595606  
O   -1.8030528   -1.5133726    1.5592035  
C    0.0000000    0.0000000    1.4700000  
H    2.2509283    1.8888011    0.8310761  
H   -0.0229599   -0.0187323    5.5027230  
H    3.3143982    2.7817323    3.1139444  
H    2.0889452    1.7545833    5.0442112  
