62

C   -3.3012638   -0.1375356   -1.5420425  
C   -2.5823209   -0.1070128   -0.3695849  
C   -1.2029591   -0.0500735   -0.7283585  
C   -1.1412248   -0.0481087   -2.1454371  
N   -2.4326489   -0.1038742   -2.6077460  
C    0.0654976    0.0018458   -2.8497917  
C    1.2311205    0.0510136   -2.1101399  
O    2.4371751    0.1013346   -2.7472521  
C    1.1900899    0.0495392   -0.6955264  
O    2.4350340    0.1015925   -0.1032865  
C    0.0000000    0.0000000    0.0000000  
H   -3.0005579   -0.1248346    0.6222591  
H   -2.7034182   -0.1054160   -3.5745256  
H    0.1193131    0.0034808   -3.9297471  
H    3.1106022    0.1295462   -2.0551789  
H    2.3180042    0.0968962    0.8516406  
C   -5.7026298   -0.2543985   -0.7673027  
C   -6.9530792   -0.3181688   -1.3371935  
C   -6.7674264   -0.3024582   -2.7513668  
C   -5.3706981   -0.2278830   -2.9869805  
N   -4.7535847   -0.1983852   -1.7610452  
C   -4.8212945   -0.1938531   -4.2721991  
C   -5.6978327   -0.2361786   -5.3390014  
O   -5.2149672   -0.2060579   -6.6153047  
C   -7.0946858   -0.3103070   -5.1242398  
O   -7.8349239   -0.3447089   -6.2879447  
C   -7.6374018   -0.3436412   -3.8566141  
H   -7.8845317   -0.3685707   -0.7997463  
H   -3.7576882   -0.1368928   -4.4584756  
H   -5.9837586   -0.2441660   -7.1990620  
H   -8.7668589   -0.3945377   -6.0542395  
H   -5.4127064   -0.2429943    0.2694105  
C   -9.8541668    0.2231512   -2.7594274  
C   -9.0942089   -0.4205395   -3.6757812  
C  -10.0345938   -1.2133689   -4.4526959  
C  -11.3539650   -0.9202351   -3.8527653  
N  -11.2545138   -0.0787257   -2.8598099  
C  -12.5638268   -1.5188545   -4.3456912  
C  -12.4603884   -2.3712561   -5.3907017  
O  -13.5065142   -3.0010855   -5.9519286  
C  -11.1432479   -2.6870460   -6.0180586  
O  -11.1238388   -3.4720558   -6.9660059  
C   -9.9165861   -2.0602300   -5.4942961  
H  -13.5143746   -1.2867446   -3.8879865  
H  -13.1188678   -3.5357957   -6.6681464  
H   -8.9823282   -2.3149799   -5.9764735  
H   -9.5313419    0.9104302   -1.9936566  
C    0.0000000    0.0000000    1.4700000  
C    1.0662921    0.0000102    2.3034270  
C    0.4961870   -0.0000064    3.6418889  
C   -0.9663858    0.0000850    3.4240247  
N   -1.2632773    0.0000084    2.1528658  
C   -1.8985362    0.0000517    4.5177257  
C   -1.3925775   -0.0004564    5.7720543  
O   -2.1456383   -0.0005410    6.8851312  
C    0.0786232   -0.0009323    6.0245000  
O    0.4683759   -0.0012588    7.1921102  
C    1.0143166   -0.0008442    4.8859032  
H    2.1107198   -0.0000632    2.0421868  
H   -2.9622183    0.0003270    4.3293377  
H   -1.5042274   -0.0009692    7.6184419  
H    2.0724152   -0.0013148    5.1109744  
