58

C   -4.4924712    2.0950387   -0.2442175  
C   -3.4157277    1.6323171   -0.9302107  
C   -3.9167331    0.7362618   -1.9455501  
C   -5.3841441    0.7147474   -1.7937834  
N   -5.6689491    1.5587231   -0.7452222  
C   -6.2266191   -0.0146655   -2.5683132  
C   -5.6495861   -0.8333370   -3.6215680  
O   -6.3243554   -1.5259647   -4.3720698  
C   -4.0978601   -0.8259951   -3.8001700  
O   -3.6005728   -1.5115246   -4.6833543  
C   -3.2941076    0.0012878   -2.9038237  
H   -2.3878033    1.8892261   -0.7458683  
H   -7.3001859   -0.0161870   -2.4403980  
H   -6.5897791    1.7563628   -0.3987286  
C   -3.4692058    3.6294538    1.4758117  
C   -4.5374996    3.0326345    0.8870589  
C   -5.7147710    3.4949133    1.5835970  
C   -5.2413841    4.4166052    2.6339201  
N   -3.8711905    4.4542849    2.5154284  
C   -6.0503964    5.0651925    3.5094419  
C   -7.4829620    4.8403155    3.4108479  
O   -8.2942383    5.3777814    4.1533184  
C   -8.0064528    3.8680145    2.3061335  
O   -9.2105089    3.6706280    2.2136862  
C   -7.0369601    3.2276127    1.4207968  
H   -5.6827964    5.7372502    4.2724089  
H   -7.4075827    2.5559451    0.6584154  
H   -2.4220630    3.5359450    1.2378255  
H   -3.2578631    4.9988288    3.0936569  
C    0.0000000    0.0000000    0.0000000  
C    1.0541688   -0.0001723   -0.8560392  
C    0.5103136   -0.0000455   -2.1935956  
C   -0.9576373    0.0002461   -2.0455730  
N   -1.2018460   -0.0001389   -0.6915968  
C   -1.8348314    0.0008319   -3.0810607  
C   -1.2972851    0.0009739   -4.4314603  
O   -2.0050676    0.0014268   -5.4301316  
C    0.2542619    0.0004184   -4.6117572  
O    0.7184666    0.0002257   -5.7439122  
C    1.0974551    0.0000873   -3.4189129  
H    2.0940752   -0.0005484   -0.5817983  
H    2.1707276   -0.0000912   -3.5523673  
H   -2.1128194    0.0014915   -0.2706789  
C    1.0672568    0.0000697    2.3021913  
C    0.0000000    0.0000000    1.4700000  
C   -1.1601224    0.0000736    2.3478473  
C   -0.5938729    0.0000769    3.7138435  
N    0.7113367    0.0001554    3.6934124  
C   -1.4286986    0.0001879    4.8835240  
C   -2.7683114    0.0006799    4.6970523  
O   -3.6653903    0.0008304    5.6976972  
C   -3.3702025    0.0010610    3.3310774  
O   -4.5974910    0.0013779    3.2362962  
C   -2.4926826    0.0008943    2.1470656  
H   -0.9878360   -0.0000190    5.8697035  
H   -4.5324246    0.0012261    5.2533954  
H   -2.9677772    0.0012974    1.1752040  
H    2.1134392    0.0000545    2.0405121  
