60

C   -1.0725985    0.3373047   -0.7919014  
C   -0.7181969    0.2082316   -2.1148554  
C    0.6384097   -0.2316663   -2.1414703  
C    1.0625126   -0.3549030   -0.7935549  
N    0.0000000    0.0000000    0.0000000  
C    2.3505259   -0.7688969   -0.4408238  
C    3.2262705   -1.0641495   -1.4675054  
O    4.4961336   -1.4733263   -1.1793458  
C    2.8218728   -0.9469481   -2.8186316  
O    3.8086037   -1.2765437   -3.7247614  
C    1.5514568   -0.5383315   -3.1673482  
H   -1.3583251    0.4077701   -2.9571216  
H    2.6799720   -0.8647065    0.5845968  
H    4.9335006   -1.6240445   -2.0274371  
H    3.4537857   -1.1706521   -4.6127337  
H   -2.0051720    0.6446599   -0.3505418  
C    1.1703450   -0.4290952   -4.5828766  
C   -0.0215927   -0.0476728   -5.0980274  
C    0.1531511   -0.1190408   -6.5405503  
C    1.5482045   -0.5733570   -6.7249606  
N    2.1494551   -0.7568442   -5.5809248  
C    2.1177424   -0.7714046   -8.0293722  
C    1.3293371   -0.5270839   -9.1008481  
O    1.7299333   -0.6700818  -10.3756483  
C   -0.0826969   -0.0679786   -8.9474080  
O   -0.7422123    0.1352534   -9.9667002  
C   -0.6438208    0.1278465   -7.5988098  
H   -0.9097430    0.2457742   -4.5649668  
H    3.1401469   -1.1038405   -8.1346575  
H    0.9526661   -0.4238181  -10.9089049  
C   -2.6071336    3.0075007   -4.9274182  
C   -3.8766286    2.9253735   -5.4025109  
C   -3.8606509    1.9676657   -6.4829631  
C   -2.4678046    1.4951636   -6.5992023  
N   -1.7585985    2.1640786   -5.6283939  
C   -2.0392096    0.5807661   -7.5057827  
C   -3.0148023    0.0250422   -8.4287805  
O   -2.7275750   -0.8044567   -9.2818527  
C   -4.4954827    0.5112314   -8.3238475  
O   -5.3256963    0.0506715   -9.0957873  
C   -4.8365852    1.5010223   -7.3051155  
H   -4.7271513    3.4733072   -5.0378285  
H   -5.8640134    1.8322796   -7.2389028  
H   -2.2200257    3.6133724   -4.1243264  
H   -0.7763416    2.0547470   -5.4544252  
C    2.5528530    2.1414826    2.8079335  
C    2.0663498    1.7338582    4.0032312  
C    0.9804344    0.8229586    3.6752840  
C    0.9495562    0.7966882    2.1971295  
N    1.8690446    1.5676019    1.6831036  
C    0.0000000    0.0000000    1.4700000  
C   -0.8785127   -0.7372425    2.1869543  
O   -1.8187535   -1.5261249    1.6395491  
C   -0.8723269   -0.7321790    3.6796354  
O   -1.7010379   -1.4274584    4.2670412  
C    0.1115397    0.0933559    4.4024240  
H    2.4028853    2.0163452    4.9860947  
H   -2.2861435   -1.9184361    2.3990168  
H    0.0832434    0.0693689    5.4835595  
H    3.3664920    2.8238276    2.6198634  
