64

C    3.3041270    0.0001178   -1.5420432  
C    2.5845372   -0.0004779   -0.3695853  
C    1.2040007   -0.0000006   -0.7283591  
C    1.1422373    0.0006039   -2.1454374  
N    2.4348636    0.0026110   -2.6077466  
C   -0.0655186    0.0008800   -2.8497915  
C   -1.2321770    0.0002326   -2.1101397  
O   -2.4392818    0.0001149   -2.7472515  
C   -1.1911209   -0.0000006   -0.6955262  
O   -2.4371522   -0.0002319   -0.1032858  
C    0.0000000    0.0000000    0.0000000  
H    3.0031535   -0.0000661    0.6222580  
H    2.7054625   -0.0071097   -3.5745263  
H   -3.1132993   -0.0000646   -2.0551781  
H   -2.3200286   -0.0004070    0.8516413  
C    5.7158603    0.0004166   -0.7739107  
C    4.7577214    0.0005130   -1.7610465  
C    5.4466892    0.0027835   -3.0100132  
C    6.8350415    0.0037182   -2.7194894  
N    6.9633980    0.0041888   -1.3526897  
C    7.8161414    0.0056329   -3.7155959  
C    7.3879064    0.0063148   -5.0289095  
O    8.3036920    0.0078228   -6.0410116  
C    6.0070628    0.0057777   -5.3388884  
O    5.7412875    0.0070016   -6.6926630  
C    5.0386300    0.0041623   -4.3567167  
H    7.8332611   -0.0056984   -0.8514698  
H    8.8758770    0.0064977   -3.5007443  
H    7.7997542    0.0083640   -6.8652154  
H    4.7870502    0.0065093   -6.8152781  
H    3.9885434    0.0039690   -4.6246664  
H    5.6080637   -0.0005987    0.2972281  
C    2.3446864   -2.1385761   -5.7825609  
C    1.7992122   -1.7303702   -6.9519222  
C    0.7308348   -0.8198482   -6.5697984  
C    0.7735867   -0.7944099   -5.0919254  
N    1.7176437   -1.5654466   -4.6247546  
C   -0.1387086    0.0017020   -4.3179679  
C   -1.0519392    0.7391883   -4.9898743  
O   -1.9638778    1.5275966   -4.3958873  
C   -1.1200796    0.7349606   -6.4810151  
O   -1.9771137    1.4304204   -7.0260370  
C   -0.1732959   -0.0899942   -7.2523610  
H    2.0864370   -2.0122476   -7.9504825  
H   -2.4685604    1.9202489   -5.1309194  
H   -0.2553894   -0.0654077   -8.3307328  
H    3.1667827   -2.8208807   -5.6356218  
C    2.5285572    2.1210227    2.9438989  
C    1.9331703    1.6216660    4.0790748  
C    0.8903039    0.7472258    3.6520102  
C    0.8972198    0.7527806    2.2336141  
N    1.9028376    1.5986179    1.8362361  
C    0.0000000    0.0000000    1.4700000  
C   -0.9207814   -0.7726952    2.1506477  
O   -1.8198395   -1.5274828    1.4542253  
C   -0.9436862   -0.7911793    3.5655508  
O   -1.9197945   -1.6098497    4.0950179  
C   -0.0590329   -0.0485852    4.3195194  
H    2.2150357    1.8593692    5.0905303  
H    2.1533708    1.7953814    0.8841339  
H   -2.3621246   -1.9821033    2.1118817  
H   -1.8668290   -1.5649508    5.0545920  
H   -0.1007624   -0.0827977    5.4019087  
H    3.3491200    2.8096064    2.8367138  
