60

C    0.0000000    0.0000000    0.0000000  
C    1.0541691   -0.0001722   -0.8560385  
C    0.5103148   -0.0000454   -2.1935953  
C   -0.9576360    0.0002459   -2.0455733  
N   -1.2018453   -0.0001391   -0.6915972  
C   -1.8348299    0.0008316   -3.0810614  
C   -1.2972830    0.0009736   -4.4314610  
O   -2.0050651    0.0014265   -5.4301325  
C    0.2542642    0.0004184   -4.6117570  
O    0.7184692    0.0002257   -5.7439117  
C    1.0974567    0.0000874   -3.4189124  
H    2.0940754   -0.0005483   -0.5817975  
H   -2.1128192    0.0014911   -0.2706798  
C    4.5419746   -2.0086042   -1.4277076  
C    3.2788577   -1.6273102   -1.7289231  
C    3.4208778   -0.7114101   -2.8502869  
C    4.8768269   -0.6535609   -3.1021762  
N    5.5391404   -1.4119791   -2.2714337  
C    5.4362959    0.1568539   -4.1487463  
C    4.5801576    0.8764542   -4.9093627  
O    4.9635275    1.6751722   -5.9198668  
C    3.1056349    0.8388677   -4.6801658  
O    2.3859392    1.5196340   -5.4107932  
C    2.5562225   -0.0001552   -3.6002994  
H    2.3637605   -1.9302436   -1.2494401  
H    6.5041286    0.1802926   -4.3102810  
H    4.1343393    2.0498003   -6.2680816  
H    4.8643495   -2.6854725   -0.6525320  
C   -3.2941060    0.0012872   -2.9038252  
C   -3.9928916    0.0012410   -1.7448265  
C   -5.3903261    0.0018074   -2.1493958  
C   -5.3503920    0.0022629   -3.6275664  
N   -4.1243024    0.0018800   -4.0755544  
C   -6.5485025    0.0028436   -4.4210509  
C   -7.7326781    0.0025750   -3.7675500  
O   -8.9284309    0.0030575   -4.3809148  
C   -7.8059015    0.0017431   -2.2766448  
O   -8.9180015    0.0016635   -1.7489582  
C   -6.5627957    0.0012023   -1.4850568  
H   -3.6076320    0.0007784   -0.7395152  
H   -6.4897356    0.0033745   -5.4996865  
H   -9.5790581    0.0026673   -3.6557688  
H   -6.6586513    0.0004892   -0.4075407  
C    1.1188642   -0.0008217    2.2703808  
C    0.0000000    0.0000000    1.4700000  
C   -1.1323862   -0.0008904    2.3373528  
C   -0.6382662   -0.0019682    3.6669281  
N    0.7324016   -0.0038477    3.5902241  
C   -1.4770914   -0.0027325    4.7854808  
C   -2.8395474   -0.0020958    4.5576857  
O   -3.7039201   -0.0024443    5.6140350  
C   -3.3517868   -0.0013946    3.2384331  
O   -4.7300496   -0.0012389    3.1773122  
C   -2.5248543   -0.0009135    2.1344818  
H    1.3576314    0.0056174    4.3757045  
H   -1.1067570   -0.0036993    5.8013813  
H   -4.5940033   -0.0021850    5.2385129  
H   -4.9934601   -0.0007286    2.2519915  
H   -2.9462578   -0.0005617    1.1360343  
H    2.1619896   -0.0009344    2.0042067  
