58

C    6.6174604   -0.0017048    1.3537082  
C    5.3857488   -0.0012517    0.7819028  
C    5.5854749   -0.0008504   -0.6481128  
C    7.0449748   -0.0011378   -0.8640993  
N    7.6133357   -0.0012549    0.3888394  
C    7.6418659   -0.0012960   -2.0828796  
C    6.7899755   -0.0009490   -3.2605124  
O    7.2316305   -0.0009952   -4.4021083  
C    5.2415215   -0.0003890   -3.0553446  
O    4.5141875    0.0002132   -4.0393395  
C    4.7161325   -0.0005435   -1.6923264  
H    4.4446710   -0.0010218    1.3024655  
H    8.7143808   -0.0016366   -2.2193391  
H    8.5996517   -0.0030073    0.5738417  
C    6.1104763   -0.0014902    3.8241272  
C    6.9774632   -0.0022609    2.7789441  
C    8.3092742   -0.0034296    3.3367195  
C    8.1459498   -0.0033047    4.8030465  
N    6.7895014   -0.0017084    5.0331212  
C    9.1722321   -0.0046073    5.6909927  
C   10.5281633   -0.0060152    5.1675598  
O   11.5193976   -0.0071866    5.8857197  
C   10.7246331   -0.0059204    3.6179773  
O   11.8615669   -0.0067915    3.1656060  
C    9.5406479   -0.0047307    2.7623897  
H    9.0306898   -0.0046191    6.7628491  
H    9.6852879   -0.0048782    1.6905676  
H    5.0326254   -0.0005642    3.8128853  
H    6.3591040   -0.0027977    5.9396554  
C    3.2573665   -0.0002920   -1.5109385  
C    2.5379463   -0.0001709   -0.3591964  
C    1.1435038    0.0000331   -0.7338500  
C    1.1092599   -0.0000083   -2.2088477  
N    2.4227553    0.0001909   -2.6182613  
C   -0.0265539   -0.0002524   -2.9515660  
C   -1.3003040   -0.0002640   -2.2514977  
O   -2.3786790   -0.0004133   -2.8306421  
C   -1.2877727    0.0000311   -0.6895603  
O   -2.3539959    0.0003306   -0.0892030  
C    0.0000000    0.0000000    0.0000000  
H    2.9384091   -0.0000367    0.6389234  
H   -0.0296303   -0.0004086   -4.0327229  
H    2.7280482   -0.0013407   -3.5742119  
C    0.8175213    0.6860729    2.3021913  
C    0.0000000    0.0000000    1.4700000  
C   -0.8887526   -0.7456559    2.3478473  
C   -0.4549825   -0.3816753    3.7138435  
N    0.5448156    0.4573574    3.6934124  
C   -1.0945674   -0.9182058    4.8835240  
C   -2.1210866   -1.7789155    4.6970523  
O   -2.8083856   -2.3554314    5.6976972  
C   -2.5824069   -2.1655116    3.3310774  
O   -3.5227682   -2.9541547    3.2362962  
C   -1.9100805   -1.6015804    2.1470656  
H   -0.7567140   -0.6349833    5.8697035  
H   -3.4728268   -2.9124471    5.2533954  
H   -2.2742832   -1.9066565    1.1752040  
H    1.6189533    1.3585343    2.0405121  
