58

C    5.6463485   -0.0007503   -0.7029966  
C    4.7161325   -0.0005435   -1.6923264  
C    5.4339816   -0.0003284   -2.9451346  
C    6.8689501   -0.0004567   -2.6021239  
N    6.9298893   -0.0003134   -1.2276507  
C    7.8767467   -0.0007179   -3.5109974  
C    7.5246255   -0.0006573   -4.9211555  
O    8.3596091   -0.0008153   -5.8162002  
C    6.0111284   -0.0002695   -5.3073308  
O    5.7025034    0.0000912   -6.4913954  
C    5.0159834   -0.0002905   -4.2379666  
H    8.9229464   -0.0009383   -3.2382781  
H    3.9702000   -0.0002261   -4.5137570  
H    5.5021930   -0.0009683    0.3652304  
C    8.0404202   -2.1124483    2.4586681  
C    9.3082159   -1.6498218    2.6094857  
C    9.5634994   -0.7540048    1.5062275  
C    8.3316650   -0.7324817    0.6944948  
N    7.4474412   -1.5768623    1.3254144  
C    8.1698811   -0.0026509   -0.4381471  
C    9.2833760    0.8161463   -0.8878504  
O    9.2362405    1.5090496   -1.8958007  
C   10.5976341    0.8084121   -0.0437686  
O   11.5419379    1.4935739   -0.4126904  
C   10.6521263   -0.0188788    1.1589253  
H    9.9871521   -1.9069236    3.4029323  
H   11.5656491   -0.0185016    1.7378905  
H    7.4894901   -2.7997518    3.0799402  
H    6.5143114   -1.7722114    1.0121184  
C    3.2573665   -0.0002920   -1.5109385  
C    2.5379463   -0.0001709   -0.3591964  
C    1.1435038    0.0000331   -0.7338500  
C    1.1092599   -0.0000083   -2.2088477  
N    2.4227553    0.0001909   -2.6182613  
C   -0.0265539   -0.0002524   -2.9515660  
C   -1.3003040   -0.0002640   -2.2514977  
O   -2.3786790   -0.0004133   -2.8306421  
C   -1.2877727    0.0000311   -0.6895603  
O   -2.3539959    0.0003306   -0.0892030  
C    0.0000000    0.0000000    0.0000000  
H    2.9384091   -0.0000367    0.6389234  
H   -0.0296303   -0.0004086   -4.0327229  
H    2.7280482   -0.0013407   -3.5742119  
C    0.0000000    0.0000000    1.4700000  
C    1.0662921    0.0000102    2.3034270  
C    0.4961870   -0.0000064    3.6418889  
C   -0.9663858    0.0000850    3.4240247  
N   -1.2632773    0.0000084    2.1528658  
C   -1.8985362    0.0000517    4.5177257  
C   -1.3925775   -0.0004564    5.7720543  
O   -2.1456383   -0.0005410    6.8851312  
C    0.0786232   -0.0009323    6.0245000  
O    0.4683759   -0.0012588    7.1921102  
C    1.0143166   -0.0008442    4.8859032  
H    2.1107198   -0.0000632    2.0421868  
H   -2.9622183    0.0003270    4.3293377  
H   -1.5042274   -0.0009692    7.6184419  
H    2.0724152   -0.0013148    5.1109744  
