62

C    3.3003550    0.0005276   -1.4738975  
C    2.5232820    0.0003499   -2.6090737  
C    1.1623204   -0.0001317   -2.1820092  
C    1.1711886    0.0000584   -0.7636135  
N    2.4852302   -0.0014919   -0.3662348  
C    0.0000000    0.0000000    0.0000000  
C   -1.2020384    0.0000521   -0.6806477  
O   -2.3759248    0.0003495    0.0157741  
C   -1.2314652   -0.0005110   -2.0955506  
O   -2.5054382   -0.0008034   -2.6250183  
C   -0.0764511   -0.0007269   -2.8495189  
H    2.8036264    0.0088181    0.5858673  
H   -3.0835638    0.0000349   -0.6418814  
H   -2.4360037   -0.0011524   -3.5845926  
H   -0.1304085   -0.0013419   -3.9319083  
H    4.3715551    0.0004897   -1.3667120  
C    5.9080451   -2.1212785   -4.5066903  
C    5.7372501   -1.6233274   -5.7776507  
C    4.6108303   -0.7493040   -5.7345060  
C    4.1315415   -0.7536525   -4.3995192  
N    4.9405890   -1.5984030   -3.6808702  
C    3.0267444   -0.0008948   -3.9901686  
C    2.3944499    0.7705369   -4.9458224  
O    1.3109375    1.5252433   -4.6002322  
C    2.8575152    0.7878059   -6.2830173  
O    2.1214428    1.6052997   -7.1156311  
C    3.9471981    0.0452335   -6.6876202  
H    6.3485808   -1.8616767   -6.6311481  
H    4.8499642   -1.7941733   -2.7003387  
H    1.0265043    1.9789025   -5.4043193  
H    2.4998696    1.5596278   -7.9989837  
H    6.6425533   -2.8091590   -4.1242283  
C    5.4318872   -3.0688437   -9.4434593  
C    4.9531209   -2.3962043   -8.3653072  
C    4.8225455   -1.0124194   -8.7563616  
C    5.2676497   -0.9334534  -10.1607974  
N    5.6241871   -2.2134426  -10.5177268  
C    5.2947456    0.2070385  -10.8958124  
C    4.8564730    1.4390263  -10.2612595  
O    4.8437310    2.5179890  -10.8391676  
C    4.3811930    1.3788033   -8.7745559  
O    4.0102266    2.4096817   -8.2296396  
C    4.3968374    0.0903546   -8.0864368  
H    4.7184090   -2.8209068   -7.4055403  
H    5.6247597    0.2432239  -11.9247404  
H    5.6606161   -4.1174416   -9.5435359  
H    5.9688763   -2.4848023  -11.4202795  
C    0.0000000    0.0000000    1.4700000  
C    1.0662921    0.0000102    2.3034270  
C    0.4961870   -0.0000064    3.6418889  
C   -0.9663858    0.0000850    3.4240247  
N   -1.2632773    0.0000084    2.1528658  
C   -1.8985362    0.0000517    4.5177257  
C   -1.3925775   -0.0004564    5.7720543  
O   -2.1456383   -0.0005410    6.8851312  
C    0.0786232   -0.0009323    6.0245000  
O    0.4683759   -0.0012588    7.1921102  
C    1.0143166   -0.0008442    4.8859032  
H    2.1107198   -0.0000632    2.0421868  
H   -2.9622183    0.0003270    4.3293377  
H   -1.5042274   -0.0009692    7.6184419  
H    2.0724152   -0.0013148    5.1109744  
