60

C    1.1188645    0.0008227   -0.8003808  
C    0.0000000    0.0000000    0.0000000  
C   -1.1323862    0.0008891   -0.8673529  
C   -0.6382656    0.0019670   -2.1969285  
N    0.7324021    0.0038481   -2.1202242  
C   -1.4770907    0.0027303   -3.3154814  
C   -2.8395473    0.0020921   -3.0876861  
O   -3.7039194    0.0024395   -4.1440351  
C   -3.3517865    0.0013906   -1.7684336  
O   -4.7300498    0.0012335   -1.7073130  
C   -2.5248545    0.0009106   -0.6644821  
H   -1.1067563    0.0036973   -4.3313815  
H   -4.5940026    0.0021793   -3.7685137  
H   -4.9934603    0.0007230   -0.7819922  
H   -2.9462574    0.0005583    0.3339649  
H    2.1619895    0.0009367   -0.5342067  
C    4.4769682   -2.1470614   -2.7027275  
C    4.8409703   -1.7539531   -3.9455258  
C    3.7877276   -0.8472118   -4.3756414  
C    2.8430658   -0.8072129   -3.2387164  
N    3.2418508   -1.5671421   -2.2551171  
C    1.6478439   -0.0100096   -3.2702999  
C    1.4074693    0.7146090   -4.3867595  
O    0.3314540    1.5023744   -4.5530626  
C    2.3418723    0.6955152   -5.5506700  
O    2.0597584    1.3797242   -6.5342805  
C    3.5612161   -0.1302649   -5.4939929  
H    0.4389873    1.8844054   -5.4428046  
H    4.2123698   -0.1166587   -6.3577315  
H    4.9959845   -2.8222013   -2.0410771  
C    6.7929415   -5.6345571   -4.2893568  
C    7.8273968   -5.3607122   -5.1179037  
C    7.7014408   -3.9430304   -5.4192547  
C    6.5040004   -3.5074563   -4.6689228  
N    5.9672448   -4.4946744   -4.0046313  
C    6.0359662   -2.1492457   -4.7048870  
C    6.7327327   -1.2662236   -5.4559681  
O    6.4095975    0.0322596   -5.5807310  
C    7.9454278   -1.6750919   -6.2243147  
O    8.5303372   -0.8183508   -6.8869587  
C    8.4054569   -3.0741928   -6.1712604  
H    8.5827069   -6.0371805   -5.4798054  
H    7.0876436    0.4004558   -6.1755729  
H    9.2881274   -3.3300802   -6.7419135  
H    6.5347599   -6.5800047   -3.8394184  
C    2.5528530    2.1414826    2.8079335  
C    2.0663498    1.7338582    4.0032312  
C    0.9804344    0.8229586    3.6752840  
C    0.9495562    0.7966882    2.1971295  
N    1.8690446    1.5676019    1.6831036  
C    0.0000000    0.0000000    1.4700000  
C   -0.8785127   -0.7372425    2.1869543  
O   -1.8187535   -1.5261249    1.6395491  
C   -0.8723269   -0.7321790    3.6796354  
O   -1.7010379   -1.4274584    4.2670412  
C    0.1115397    0.0933559    4.4024240  
H    2.4028853    2.0163452    4.9860947  
H   -2.2861435   -1.9184361    2.3990168  
H    0.0832434    0.0693689    5.4835595  
H    3.3664920    2.8238276    2.6198634  
