60

C   -3.3003525    0.0028978   -1.4739002  
C   -2.5232790    0.0022692   -2.6090757  
C   -1.1623180    0.0013383   -2.1820107  
C   -1.1711875    0.0011572   -0.7636146  
N   -2.4852268    0.0040713   -0.3662371  
C    0.0000000    0.0000000    0.0000000  
C    1.2020389   -0.0012995   -0.6806471  
O    2.3759232   -0.0028154    0.0157756  
C    1.2314659   -0.0007669   -2.0955500  
O    2.5054393   -0.0017967   -2.6250164  
C    0.0764541    0.0006478   -2.8495191  
H   -2.8919915    0.0035634   -3.6205315  
H   -2.8036343   -0.0059084    0.5858648  
H    3.0835630   -0.0032351   -0.6418802  
H    2.4360069   -0.0013755   -3.5845911  
H    0.1304128    0.0012067   -3.9319087  
C   -5.6692732    0.0055330   -2.3388927  
C   -4.7630478    0.0044679   -1.3275427  
C   -5.5107295    0.0054631   -0.0923071  
C   -6.9370590    0.0071786   -0.4696269  
N   -6.9650240    0.0075361   -1.8451661  
C   -7.9663585    0.0080977    0.4148203  
C   -7.6481523    0.0075732    1.8330165  
O   -8.5043564    0.0083789    2.7077820  
C   -6.1443504    0.0060137    2.2553710  
O   -5.8642055    0.0058670    3.4464962  
C   -5.1238516    0.0048446    1.2101762  
H   -4.0849821    0.0035626    1.5109631  
H   -5.4995454    0.0052399   -3.4033555  
H   -7.7983572    0.0070618   -2.4042749  
C  -10.3584869   -2.0017277   -2.7636642  
C   -9.3137913   -1.6209618   -1.9921668  
C   -9.8823201   -0.7024612   -1.0176764  
C  -11.3204214   -0.6426859   -1.3566098  
N  -11.6055064   -1.4023076   -2.3791999  
C  -12.2438781    0.1705580   -0.6143509  
C  -11.7530573    0.8910248    0.4197461  
O  -12.5003869    1.6923265    1.1978553  
C  -10.3067264    0.8515447    0.7868020  
O   -9.9297483    1.5332395    1.7399021  
C   -9.3795225    0.0096288    0.0100166  
H   -8.2845118   -1.9258122   -2.0741725  
H  -13.2895590    0.1953582   -0.8842537  
H  -11.8733400    2.0669395    1.8425499  
H  -10.3524611   -2.6799974   -3.6020478  
C    0.0000000    0.0000000    1.4700000  
C    1.0662921    0.0000102    2.3034270  
C    0.4961870   -0.0000064    3.6418889  
C   -0.9663858    0.0000850    3.4240247  
N   -1.2632773    0.0000084    2.1528658  
C   -1.8985362    0.0000517    4.5177257  
C   -1.3925775   -0.0004564    5.7720543  
O   -2.1456383   -0.0005410    6.8851312  
C    0.0786232   -0.0009323    6.0245000  
O    0.4683759   -0.0012588    7.1921102  
C    1.0143166   -0.0008442    4.8859032  
H    2.1107198   -0.0000632    2.0421868  
H   -2.9622183    0.0003270    4.3293377  
H   -1.5042274   -0.0009692    7.6184419  
H    2.0724152   -0.0013148    5.1109744  
