58

C    2.8279729   -0.7071295   -3.3541666  
C    1.6707636   -0.0012343   -3.2725974  
C    1.5420221    0.7399978   -4.5050081  
C    2.7275721    0.4056552   -5.3170902  
N    3.4672606   -0.4755787   -4.5626515  
C    2.9773516    0.9038690   -6.5544654  
C    2.0143734    1.8314553   -7.1243702  
O    2.1493672    2.3348422   -8.2319256  
C    0.7517056    2.1998425   -6.2818935  
O   -0.0658613    2.9799880   -6.7511663  
C    0.5920510    1.5980567   -4.9604487  
H    3.8531181    0.6455752   -7.1334535  
H   -0.2850562    1.8581558   -4.3835990  
H    3.2676543   -1.3768500   -2.6330256  
C    5.1313056   -4.5385833   -4.0942716  
C    4.3364581   -3.4381442   -4.0578425  
C    5.0539878   -2.3782425   -4.7261197  
C    6.3412344   -2.9555432   -5.1579893  
N    6.3258245   -4.2675797   -4.7442123  
C    7.3045131   -2.2724274   -5.8266828  
C    7.0570420   -0.8753116   -6.1418974  
O    7.8624898   -0.1748525   -6.7409894  
C    5.7007132   -0.2432549   -5.6939229  
O    5.4812606    0.9322236   -5.9534452  
C    4.7405458   -1.0806249   -4.9792602  
H    3.3591189   -3.3759430   -3.6133746  
H    8.2417931   -2.7147916   -6.1344678  
H    4.9450233   -5.5246739   -3.7008078  
H    7.0671921   -4.9272573   -4.8933663  
C    1.0965514    0.0001358   -0.8010306  
C    0.0000000    0.0000000    0.0000000  
C   -1.1546565    0.0001470   -0.8669508  
C   -0.6372019    0.0003520   -2.2486278  
N    0.7342867    0.0007338   -2.1395012  
C   -1.4147744    0.0001354   -3.3608712  
C   -2.8576052   -0.0001047   -3.1854454  
O   -3.6427785   -0.0002490   -4.1244896  
C   -3.4275841   -0.0000727   -1.7311660  
O   -4.6406832    0.0000333   -1.5710049  
C   -2.4891868   -0.0001090   -0.6116739  
H   -1.0150456    0.0001617   -4.3654239  
H   -2.8919122   -0.0002919    0.3920871  
H    2.1388270    0.0000663   -0.5261650  
C    0.8175213    0.6860729    2.3021913  
C    0.0000000    0.0000000    1.4700000  
C   -0.8887526   -0.7456559    2.3478473  
C   -0.4549825   -0.3816753    3.7138435  
N    0.5448156    0.4573574    3.6934124  
C   -1.0945674   -0.9182058    4.8835240  
C   -2.1210866   -1.7789155    4.6970523  
O   -2.8083856   -2.3554314    5.6976972  
C   -2.5824069   -2.1655116    3.3310774  
O   -3.5227682   -2.9541547    3.2362962  
C   -1.9100805   -1.6015804    2.1470656  
H   -0.7567140   -0.6349833    5.8697035  
H   -3.4728268   -2.9124471    5.2533954  
H   -2.2742832   -1.9066565    1.1752040  
H    1.6189533    1.3585343    2.0405121  
