60

C    3.3003544    0.0005269   -1.4738990  
C    2.5232812    0.0003489   -2.6090747  
C    1.1623201   -0.0001325   -2.1820101  
C    1.1711882    0.0000580   -0.7636141  
N    2.4852302   -0.0014924   -0.3662355  
C    0.0000000    0.0000000    0.0000000  
C   -1.2020381    0.0000517   -0.6806479  
O   -2.3759247    0.0003494    0.0157750  
C   -1.2314655   -0.0005119   -2.0955508  
O   -2.5054387   -0.0008042   -2.6250178  
C   -0.0764516   -0.0007279   -2.8495193  
H    2.8919951   -0.0005629   -3.6205305  
H    2.8036266    0.0088176    0.5858657  
H   -3.0835637    0.0000347   -0.6418815  
H   -2.4360050   -0.0011533   -3.5845917  
H    4.3715548    0.0004886   -1.3667139  
C    2.1623912   -2.0122276   -6.1367512  
C    1.7689757   -1.6301541   -4.8994865  
C    0.6617233   -0.7136681   -5.1243082  
C    0.5180516   -0.6563682   -6.5949061  
N    1.3949575   -1.4155876   -7.1937475  
C   -0.4838560    0.1543895   -7.2304691  
C   -1.3051619    0.8748424   -6.4331370  
O   -2.2841108    1.6739661   -6.8904135  
C   -1.1854794    0.8378275   -4.9457005  
O   -1.9668285    1.5193639   -4.2822079  
C   -0.1496418   -0.0015622   -4.3176961  
H    2.1794007   -1.9329297   -3.9513546  
H   -0.5660964    0.1774116   -8.3073238  
H   -2.6923638    2.0491943   -6.0893602  
C    5.1569184   -4.4216251   -3.8801939  
C    4.1354985   -3.5781717   -4.1574418  
C    4.0445200   -3.5637691   -5.6093423  
C    5.1151891   -4.4792413   -6.0589671  
N    5.7706020   -4.9851945   -5.0497917  
C    5.3573639   -4.7412631   -7.4510098  
C    4.5656687   -4.1173995   -8.3528680  
O    4.6793241   -4.2692588   -9.6833048  
C    3.4765476   -3.1881361   -7.9304419  
O    2.7948184   -2.6549818   -8.8057773  
C    3.2480351   -2.9357033   -6.4965716  
H    3.5197699   -3.0331634   -3.4625173  
H    6.1468533   -5.4147067   -7.7511586  
H    3.9817879   -3.7017145  -10.0581251  
H    5.5420174   -4.7029293   -2.9129604  
C    0.0000000    0.0000000    1.4700000  
C    1.0662921    0.0000102    2.3034270  
C    0.4961870   -0.0000064    3.6418889  
C   -0.9663858    0.0000850    3.4240247  
N   -1.2632773    0.0000084    2.1528658  
C   -1.8985362    0.0000517    4.5177257  
C   -1.3925775   -0.0004564    5.7720543  
O   -2.1456383   -0.0005410    6.8851312  
C    0.0786232   -0.0009323    6.0245000  
O    0.4683759   -0.0012588    7.1921102  
C    1.0143166   -0.0008442    4.8859032  
H    2.1107198   -0.0000632    2.0421868  
H   -2.9622183    0.0003270    4.3293377  
H   -1.5042274   -0.0009692    7.6184419  
H    2.0724152   -0.0013148    5.1109744  
