58

C    3.2573671   -0.0002920   -1.5109380  
C    2.5379468   -0.0001709   -0.3591959  
C    1.1435043    0.0000332   -0.7338499  
C    1.1092610   -0.0000082   -2.2088475  
N    2.4227563    0.0001909   -2.6182607  
C   -0.0265531   -0.0002522   -2.9515662  
C   -1.3003035   -0.0002639   -2.2514981  
O   -2.3786784   -0.0004130   -2.8306426  
C   -1.2877724    0.0000312   -0.6895602  
O   -2.3539954    0.0003307   -0.0892032  
C    0.0000000    0.0000000    0.0000000  
H    2.9384090   -0.0000368    0.6389242  
H    4.3270396   -0.0004764   -1.6439440  
H    2.7280497   -0.0013406   -3.5742110  
C   -0.0307351   -0.0004646   -4.4215605  
C    1.0331817   -0.0004858   -5.2580174  
C    0.4592712   -0.0007210   -6.5948514  
C   -1.0026760   -0.0009310   -6.3728277  
N   -1.2959498   -0.0007012   -5.1008291  
C   -1.9379340   -0.0011513   -7.4638723  
C   -1.4355459   -0.0007724   -8.7196350  
O   -2.1917699   -0.0009259   -9.8305655  
C    0.0349308   -0.0001820   -8.9762650  
O    0.4213603    0.0000158  -10.1449791  
C    0.9738596   -0.0000097   -7.8403353  
H    2.0783484   -0.0002675   -4.9997493  
H   -3.0010756   -0.0015084   -7.2724587  
H   -1.5524479   -0.0005378  -10.5656979  
C    2.4108148    0.0007331   -8.1502695  
C    3.4503234    0.0009310   -7.2836666  
C    4.6384967    0.0017379   -8.1231564  
C    4.1171612    0.0018287   -9.5069173  
N    2.8119815    0.0013222   -9.5291241  
C    4.9897424    0.0026009  -10.6487095  
C    6.3225506    0.0036418  -10.4185856  
O    7.2518311    0.0044393  -11.3893993  
C    6.8795082    0.0039512   -9.0336821  
O    8.1030463    0.0047899   -8.8988695  
C    5.9637881    0.0031008   -7.8789615  
H    3.4151623    0.0006637   -6.2076370  
H    4.5813232    0.0024430  -11.6487607  
H    8.1038921    0.0051099  -10.9170178  
H    6.4068886    0.0034737   -6.8921018  
C    0.0000000    0.0000000    1.4700000  
C    1.0662921    0.0000102    2.3034270  
C    0.4961870   -0.0000064    3.6418889  
C   -0.9663858    0.0000850    3.4240247  
N   -1.2632773    0.0000084    2.1528658  
C   -1.8985362    0.0000517    4.5177257  
C   -1.3925775   -0.0004564    5.7720543  
O   -2.1456383   -0.0005410    6.8851312  
C    0.0786232   -0.0009323    6.0245000  
O    0.4683759   -0.0012588    7.1921102  
C    1.0143166   -0.0008442    4.8859032  
H    2.1107198   -0.0000632    2.0421868  
H   -2.9622183    0.0003270    4.3293377  
H   -1.5042274   -0.0009692    7.6184419  
H    2.0724152   -0.0013148    5.1109744  
