58

C    1.1319244    0.0015679   -0.8009270  
C    0.7969906    0.0034958   -2.1169400  
C   -0.6453348    0.0035696   -2.1842663  
C   -1.1266837    0.0015411   -0.7896022  
N    0.0000000    0.0000000    0.0000000  
C   -2.4346133    0.0013914   -0.4276285  
C   -3.4350117    0.0031336   -1.4820169  
O   -4.6384613    0.0030876   -1.2583901  
C   -2.9478971    0.0050444   -2.9661061  
O   -3.7809387    0.0062136   -3.8623760  
C   -1.5113837    0.0053058   -3.2312116  
H   -2.7664563    0.0000175    0.6013457  
H   -1.1823545    0.0068381   -4.2614843  
H    2.1104310    0.0009435   -0.3488059  
C    4.6221939   -2.0851248   -2.8254002  
C    3.4630810   -1.6242706   -2.2886074  
C    2.8772259   -0.7284864   -3.2577202  
C    3.7966163   -0.7050959   -4.4113947  
N    4.8342984   -1.5478373   -4.0859846  
C    3.5979640    0.0246584   -5.5382047  
C    2.3987141    0.8417431   -5.6201041  
O    2.1298705    1.5345333   -6.5927634  
C    1.4112235    0.8324024   -4.4099060  
O    0.3983750    1.5165858   -4.4672755  
C    1.7334683    0.0049282   -3.2500365  
H    3.0641074   -1.8822459   -1.3237850  
H    5.3394087   -2.7718903   -2.4060600  
H    5.6230802   -1.7440852   -4.6745060  
C    6.0405386   -3.0489337   -7.6480156  
C    5.1872904   -2.4678665   -6.7728535  
C    5.1698534   -1.0612343   -7.1437732  
C    6.0946398   -0.9675543   -8.2938073  
N    6.6080145   -2.1295802   -8.5940256  
C    6.3567554    0.2785704   -8.9598066  
C    5.7234882    1.3809278   -8.4981628  
O    5.8742729    2.6085465   -9.0237642  
C    4.7841147    1.3186788   -7.3397742  
O    4.2428834    2.3616983   -6.9731689  
C    4.5318597    0.0286127   -6.6734244  
H    4.6375471   -2.9359867   -5.9742793  
H    7.0374310    0.3179152   -9.7976871  
H    5.2991003    3.1812986   -8.4849830  
H    6.3268318   -4.0869950   -7.7066506  
C    0.0000000    0.0000000    1.4700000  
C    1.0662921    0.0000102    2.3034270  
C    0.4961870   -0.0000064    3.6418889  
C   -0.9663858    0.0000850    3.4240247  
N   -1.2632773    0.0000084    2.1528658  
C   -1.8985362    0.0000517    4.5177257  
C   -1.3925775   -0.0004564    5.7720543  
O   -2.1456383   -0.0005410    6.8851312  
C    0.0786232   -0.0009323    6.0245000  
O    0.4683759   -0.0012588    7.1921102  
C    1.0143166   -0.0008442    4.8859032  
H    2.1107198   -0.0000632    2.0421868  
H   -2.9622183    0.0003270    4.3293377  
H   -1.5042274   -0.0009692    7.6184419  
H    2.0724152   -0.0013148    5.1109744  
