60

C    0.0000000    0.0000000    0.0000000  
C    1.0521656   -0.0012043   -0.8862351  
C    0.4917200   -0.0012020   -2.1979137  
C   -0.9187445    0.0003274   -2.0478677  
N   -1.1833177   -0.0009251   -0.7007905  
C   -1.7951725    0.0010595   -3.1372079  
C   -1.2375873    0.0005399   -4.4010417  
O   -2.0474259    0.0015643   -5.4997564  
C    0.1673544   -0.0013583   -4.5711967  
O    0.5673477   -0.0020758   -5.8915560  
C    1.0325744   -0.0023546   -3.4969900  
H    2.0953046   -0.0030932   -0.6200577  
H   -2.0989779    0.0102656   -0.2891810  
H   -1.4634938    0.0006700   -6.2693583  
H    1.5290660   -0.0033352   -5.9180057  
H    2.1042114   -0.0039890   -3.6584473  
C   -4.7114417    2.0140794   -0.4339566  
C   -3.5467357    1.6314859   -1.0072465  
C   -3.9343411    0.7149573   -2.0684898  
C   -5.4099524    0.6582045   -1.9914546  
N   -5.8711923    1.4177554   -1.0352486  
C   -6.1879822   -0.1524256   -2.8873535  
C   -5.5221693   -0.8732798   -3.8181580  
O   -6.1204783   -1.6723418   -4.7179179  
C   -4.0334893   -0.8368211   -3.9214197  
O   -3.4940551   -1.5187026   -4.7927805  
C   -3.2578679    0.0024482   -2.9908485  
H   -2.5479293    1.9339456   -0.7427094  
H   -5.3893233   -2.0479243   -5.2408934  
H   -4.8535640    2.6917474    0.3928087  
C   -7.6537112   -0.1832057   -2.7796940  
C   -8.4391096    0.4835615   -1.9021116  
C   -9.7980668    0.0897020   -2.2406529  
C   -9.6433998   -0.8441589   -3.3766837  
N   -8.3886278   -1.0081082   -3.6970866  
C  -10.7737912   -1.4652205   -4.0103888  
C  -12.0028024   -1.1672145   -3.5307445  
O  -13.1448509   -1.6738045   -4.0258538  
C  -12.1915578   -0.2288361   -2.3853283  
O  -13.3390843   -0.0034414   -2.0011397  
C  -11.0162516    0.3954810   -1.7522330  
H   -8.1339509    1.1591560   -1.1213901  
H  -10.6314646   -2.1436007   -4.8389141  
H  -13.8485691   -1.2779117   -3.4806913  
H  -11.1953812    1.0693603   -0.9251725  
C    3.3321173   -0.0004715    2.8079335  
C    2.6974184   -0.0000116    4.0032312  
C    1.2800439    0.0002118    3.6752840  
C    1.2395035   -0.0000644    2.1971295  
N    2.4394063   -0.0005460    1.6831036  
C    0.0000000    0.0000000    1.4700000  
C   -1.1468701   -0.0000635    2.1869543  
O   -2.3742202   -0.0000073    1.6395491  
C   -1.1388768   -0.0001607    3.6796354  
O   -2.2206231   -0.0000905    4.2670412  
C    0.1454524   -0.0001816    4.4024240  
H    3.1367986    0.0000651    4.9860947  
H   -2.9844344   -0.0001026    2.3990168  
H    0.1083576   -0.0003682    5.4835595  
H    4.3940039   -0.0007619    2.6198634  
