58

C    1.1319247    0.0015673   -0.8009268  
C    0.7969913    0.0034958   -2.1169399  
C   -0.6453342    0.0035701   -2.1842668  
C   -1.1266834    0.0015415   -0.7896027  
N    0.0000000    0.0000000    0.0000000  
C   -2.4346131    0.0013924   -0.4276292  
C   -3.4350117    0.0031350   -1.4820176  
O   -4.6384613    0.0030896   -1.2583909  
C   -2.9478964    0.0050457   -2.9661072  
O   -3.7809382    0.0062157   -3.8623770  
C   -1.5113827    0.0053065   -3.2312123  
H    1.4821233    0.0045434   -2.9459192  
H   -2.7664562    0.0000184    0.6013442  
H    2.1104315    0.0009428   -0.3488058  
C    1.7765354   -2.1310600   -5.1320093  
C    1.6763814   -1.7219589   -6.4181603  
C    0.5413903   -0.8120078   -6.4350137  
C    0.0622640   -0.7878455   -5.0362863  
N    0.7824489   -1.5590777   -4.2678308  
C   -1.0641742    0.0073893   -4.6315336  
C   -1.6835613    0.7452561   -5.5808738  
O   -2.7464429    1.5329442   -5.3445022  
C   -1.2235560    0.7423105   -7.0009254  
O   -1.8348778    1.4380528   -7.8117575  
C   -0.0657295   -0.0817620   -7.3911398  
H    2.2962169   -2.0029033   -7.2523965  
H   -2.9609662    1.9261231   -6.2096855  
H    2.4949761   -2.8133088   -4.7061535  
C    1.3198967   -3.2415384  -10.1076061  
C    1.5151406   -2.5029978  -11.2303316  
C    1.1668934   -1.1403255  -10.9037069  
C    0.7497964   -1.1455568   -9.4885061  
N    0.8649630   -2.4493225   -9.0644529  
C    0.3445594   -0.0471020   -8.8022957  
C    0.3171793    1.2251828   -9.5044899  
O   -0.0325160    2.2714006   -8.9739790  
C    0.7544778    1.2540378  -11.0037375  
O    0.7352662    2.3193593  -11.6053867  
C    1.1717053    0.0046492  -11.6352445  
H    1.8632027   -2.8708565  -12.1790930  
H    1.4731824    0.0332059  -12.6735220  
H    1.4698758   -4.2979353   -9.9545645  
H    0.6532766   -2.7748073   -8.1390904  
C    0.8175213    0.6860729    2.3021913  
C    0.0000000    0.0000000    1.4700000  
C   -0.8887526   -0.7456559    2.3478473  
C   -0.4549825   -0.3816753    3.7138435  
N    0.5448156    0.4573574    3.6934124  
C   -1.0945674   -0.9182058    4.8835240  
C   -2.1210866   -1.7789155    4.6970523  
O   -2.8083856   -2.3554314    5.6976972  
C   -2.5824069   -2.1655116    3.3310774  
O   -3.5227682   -2.9541547    3.2362962  
C   -1.9100805   -1.6015804    2.1470656  
H   -0.7567140   -0.6349833    5.8697035  
H   -3.4728268   -2.9124471    5.2533954  
H   -2.2742832   -1.9066565    1.1752040  
H    1.6189533    1.3585343    2.0405121  
