64

C    1.6071931   -2.0691457   -5.4061230  
C    0.7600335   -1.6164453   -4.4213127  
C   -0.1612455   -0.7224869   -5.0431512  
C    0.1755311   -0.6690404   -6.4199773  
N    1.2548206   -1.4967870   -6.6059514  
C   -0.5252826    0.1165519   -7.3400286  
C   -1.5855717    0.8615308   -6.8615196  
O   -2.3042733    1.6457779   -7.7167607  
C   -1.9367274    0.8217439   -5.4911458  
O   -3.0155710    1.6195945   -5.1704046  
C   -1.2456329    0.0471727   -4.5828766  
H    0.8017174   -1.8952903   -3.3823224  
H    1.7089804   -1.6697413   -7.4844764  
H   -0.2735270    0.1617574   -8.3906377  
H   -2.9880783    2.0738677   -7.1853335  
H   -3.1866799    1.5350662   -4.2274410  
C    3.1821168   -3.6137872   -4.1756220  
C    4.2664596   -4.4069352   -4.4715692  
C    4.5053969   -4.2798624   -5.8720552  
C    3.5271202   -3.3882996   -6.3819719  
N    2.7386332   -3.0041860   -5.3258640  
C    3.4607024   -3.0299913   -7.7317839  
C    4.3991297   -3.5815260   -8.5822791  
O    4.3801692   -3.2654066   -9.9099550  
C    5.3828260   -4.4733092   -8.0925021  
O    6.2452899   -4.9376304   -9.0640504  
C    5.4487776   -4.8274451   -6.7610497  
H    4.8167770   -5.0045395   -3.7651614  
H    2.7174826   -2.3511296   -8.1267200  
H    5.1090280   -3.7516855  -10.3168480  
H    6.8774493   -5.5331637   -8.6501449  
H    6.2134945   -5.5130439   -6.4151602  
H    2.6890815   -3.4357985   -3.2353053  
C    1.1243410    0.0099923   -0.7919003  
C    0.7474076    0.0234544   -2.1148543  
C   -0.6787381    0.0234490   -2.1414700  
C   -1.1201745    0.0098592   -0.7935546  
N    0.0000000    0.0000000    0.0000000  
C   -2.4730816    0.0063709   -0.4408240  
C   -3.3971958    0.0170982   -1.4675058  
O   -4.7313517    0.0146259   -1.1793471  
C   -2.9763648    0.0303504   -2.8186324  
O   -4.0166480    0.0395118   -3.7247624  
C   -1.6418562    0.0335260   -3.1673481  
H    1.4178717    0.0310972   -2.9571209  
H   -2.8160166   -0.0041111    0.5845966  
H   -5.1938818    0.0230867   -2.0274384  
H   -3.6464675    0.0482293   -4.6127343  
H    2.1062467    0.0052819   -0.3505407  
C    0.8175213    0.6860729    2.3021913  
C    0.0000000    0.0000000    1.4700000  
C   -0.8887526   -0.7456559    2.3478473  
C   -0.4549825   -0.3816753    3.7138435  
N    0.5448156    0.4573574    3.6934124  
C   -1.0945674   -0.9182058    4.8835240  
C   -2.1210866   -1.7789155    4.6970523  
O   -2.8083856   -2.3554314    5.6976972  
C   -2.5824069   -2.1655116    3.3310774  
O   -3.5227682   -2.9541547    3.2362962  
C   -1.9100805   -1.6015804    2.1470656  
H   -0.7567140   -0.6349833    5.8697035  
H   -3.4728268   -2.9124471    5.2533954  
H   -2.2742832   -1.9066565    1.1752040  
H    1.6189533    1.3585343    2.0405121  
