58

C    4.3047788   -2.1086500   -1.2859243  
C    5.3774559   -1.6442162   -1.9771117  
C    4.8701585   -0.7486138   -2.9897228  
C    3.4034918   -0.7291862   -2.8306572  
N    3.1250159   -1.5744517   -1.7814350  
C    2.5562217   -0.0001543   -3.6003001  
C    3.1269051    0.8199333   -4.6559103  
O    2.4474939    1.5122577   -5.4024942  
C    4.6776928    0.8144233   -4.8425425  
O    5.1696074    1.5006857   -5.7281637  
C    5.4870227   -0.0121793   -3.9505978  
H    6.4066157   -1.8999864   -1.7981563  
H    6.5600124   -0.0102599   -4.0862903  
H    2.2064273   -1.7712342   -1.4285628  
C    5.3737825   -3.6466073    0.4258830  
C    5.0057650   -4.4617488    1.4477350  
C    3.5667236   -4.3928373    1.5438992  
C    3.1233546   -3.4640931    0.4867099  
N    4.2666879   -3.0465534   -0.1546479  
C    1.8293821   -3.1315333    0.2485004  
C    0.8050162   -3.7279685    1.0896157  
O   -0.3884344   -3.4918653    0.9545924  
C    1.2518229   -4.7141248    2.2155212  
O    0.3983715   -5.2222245    2.9301669  
C    2.6764318   -4.9949437    2.3751540  
H    5.6669413   -5.0446308    2.0639390  
H    1.5254691   -2.4482139   -0.5322817  
H    2.9774943   -5.6789951    3.1569217  
H    6.3606391   -3.4335943    0.0482191  
C    0.0000000    0.0000000    0.0000000  
C    1.0541688   -0.0001719   -0.8560391  
C    0.5103141   -0.0000449   -2.1935955  
C   -0.9576367    0.0002461   -2.0455733  
N   -1.2018459   -0.0001392   -0.6915970  
C   -1.8348306    0.0008319   -3.0810611  
C   -1.2972842    0.0009739   -4.4314605  
O   -2.0050664    0.0014267   -5.4301321  
C    0.2542628    0.0004190   -4.6117571  
O    0.7184677    0.0002263   -5.7439119  
C    1.0974556    0.0000880   -3.4189127  
H    2.0940752   -0.0005479   -0.5817978  
H   -2.9081050    0.0011669   -2.9507065  
H   -2.1128195    0.0014911   -0.2706793  
C    3.3321173   -0.0004715    2.8079335  
C    2.6974184   -0.0000116    4.0032312  
C    1.2800439    0.0002118    3.6752840  
C    1.2395035   -0.0000644    2.1971295  
N    2.4394063   -0.0005460    1.6831036  
C    0.0000000    0.0000000    1.4700000  
C   -1.1468701   -0.0000635    2.1869543  
O   -2.3742202   -0.0000073    1.6395491  
C   -1.1388768   -0.0001607    3.6796354  
O   -2.2206231   -0.0000905    4.2670412  
C    0.1454524   -0.0001816    4.4024240  
H    3.1367986    0.0000651    4.9860947  
H   -2.9844344   -0.0001026    2.3990168  
H    0.1083576   -0.0003682    5.4835595  
H    4.3940039   -0.0007619    2.6198634  
