60

C   -3.3003545   -0.0022218   -1.4738975  
C   -2.5232822   -0.0016451   -2.6090738  
C   -1.1623209   -0.0004649   -2.1820094  
C   -1.1711889   -0.0006596   -0.7636136  
N   -2.4852309    0.0002161   -0.3662348  
C    0.0000000    0.0000000    0.0000000  
C    1.2020379    0.0005650   -0.6806484  
O    2.3759245    0.0008701    0.0157740  
C    1.2314642    0.0011432   -2.0955513  
O    2.5054365    0.0020896   -2.6250185  
C    0.0764499    0.0007662   -2.8495195  
H   -2.8919966   -0.0009228   -3.6205290  
H   -2.8036219   -0.0102573    0.5858672  
H    3.0835634    0.0015480   -0.6418824  
H    2.4360022    0.0024030   -3.5845926  
H    0.1304074    0.0014088   -3.9319083  
C   -5.6692774   -0.0032614   -2.3388877  
C   -4.7630502   -0.0029207   -1.3275386  
C   -5.5107315   -0.0030851   -0.0923023  
C   -6.9370629   -0.0035821   -0.4696211  
N   -6.9650290   -0.0032680   -1.8451599  
C   -7.9663613   -0.0042596    0.4148273  
C   -7.6481534   -0.0042905    1.8330231  
O   -8.5043571   -0.0048129    2.7077896  
C   -6.1443507   -0.0035172    2.2553760  
O   -5.8642052   -0.0032294    3.4465016  
C   -5.1238522   -0.0031034    1.2101804  
H   -9.0057214   -0.0047458    0.1171013  
H   -4.0849818   -0.0027739    1.5109665  
H   -5.4995502   -0.0032910   -3.4033509  
C   -8.1857334   -0.0058565   -2.6641684  
C   -8.3092681   -0.0073853   -4.0165040  
C   -9.7229978   -0.0096914   -4.3100974  
C  -10.4179470   -0.0093494   -3.0086230  
N   -9.4296504   -0.0073853   -2.0514627  
C  -11.7665557   -0.0107124   -2.8571109  
C  -12.5884495   -0.0128715   -4.0558693  
O  -13.8120976   -0.0142783   -4.0245264  
C  -11.8737253   -0.0135222   -5.4447444  
O  -12.5552480   -0.0156422   -6.4610044  
C  -10.4133894   -0.0116324   -5.4803505  
H   -7.5021514   -0.0071297   -4.7272616  
H  -12.2562819   -0.0103012   -1.8932240  
H   -9.9262389   -0.0118923   -6.4459637  
H   -9.5876657   -0.0051440   -1.0604663  
C    0.8175213    0.6860729    2.3021913  
C    0.0000000    0.0000000    1.4700000  
C   -0.8887526   -0.7456559    2.3478473  
C   -0.4549825   -0.3816753    3.7138435  
N    0.5448156    0.4573574    3.6934124  
C   -1.0945674   -0.9182058    4.8835240  
C   -2.1210866   -1.7789155    4.6970523  
O   -2.8083856   -2.3554314    5.6976972  
C   -2.5824069   -2.1655116    3.3310774  
O   -3.5227682   -2.9541547    3.2362962  
C   -1.9100805   -1.6015804    2.1470656  
H   -0.7567140   -0.6349833    5.8697035  
H   -3.4728268   -2.9124471    5.2533954  
H   -2.2742832   -1.9066565    1.1752040  
H    1.6189533    1.3585343    2.0405121  
