58

C   -3.2797914   -0.0108270   -1.4499644  
C   -2.5571011   -0.0085413   -2.5996551  
C   -1.1637379   -0.0037887   -2.2210360  
C   -1.1336916   -0.0035200   -0.7459469  
N   -2.4483407   -0.0075022   -0.3402718  
C    0.0000000    0.0000000    0.0000000  
C    1.2757305    0.0040022   -0.6964418  
O    2.3524472    0.0074096   -0.1142322  
C    1.2676417    0.0040455   -2.2584083  
O    2.3355630    0.0077030   -2.8557301  
C   -0.0181564   -0.0002327   -2.9516298  
H   -2.9547199   -0.0098339   -3.5989098  
H   -0.0150793   -0.0003790   -4.0331632  
H   -2.7563455   -0.0098892    0.6148067  
C   -5.6706182   -0.0174260   -2.2998274  
C   -6.9366478   -0.0197517   -1.8086668  
C   -6.8295844   -0.0192067   -0.3687457  
C   -5.3870598   -0.0163232   -0.0590617  
N   -4.7390592   -0.0157593   -1.2727275  
C   -4.8700337   -0.0146260    1.1956838  
C   -5.7961140   -0.0159381    2.3159105  
O   -5.4290218   -0.0146520    3.4836189  
C   -7.3281054   -0.0192424    2.0112847  
O   -8.1173976   -0.0206775    2.9463123  
C   -7.7644743   -0.0205649    0.6172142  
H   -3.8085574   -0.0123870    1.4010438  
H   -8.8269007   -0.0226484    0.4148048  
H   -5.3397730   -0.0170063   -3.3257077  
C   -8.3789366   -0.7497669   -3.7644899  
C   -9.6252136   -0.5357408   -4.2595267  
C  -10.2798552    0.3903650   -3.3658781  
C   -9.3058131    0.7005826   -2.3020181  
N   -8.1743864   -0.0225741   -2.6016965  
C   -9.5433422    1.5410402   -1.2633092  
C  -10.8452926    2.1827495   -1.1880146  
O  -11.1559561    2.9559301   -0.2913648  
C  -11.8922797    1.8685676   -2.3037710  
O  -12.9919075    2.4026750   -2.2507750  
C  -11.5198394    0.9458124   -3.3731922  
H  -10.0388009   -0.9764817   -5.1490812  
H   -8.8150008    1.7550533   -0.4934862  
H  -12.2503863    0.7337254   -4.1419875  
H   -7.5927852   -1.3777184   -4.1511839  
C    0.0000000    0.0000000    1.4700000  
C    1.0662921    0.0000102    2.3034270  
C    0.4961870   -0.0000064    3.6418889  
C   -0.9663858    0.0000850    3.4240247  
N   -1.2632773    0.0000084    2.1528658  
C   -1.8985362    0.0000517    4.5177257  
C   -1.3925775   -0.0004564    5.7720543  
O   -2.1456383   -0.0005410    6.8851312  
C    0.0786232   -0.0009323    6.0245000  
O    0.4683759   -0.0012588    7.1921102  
C    1.0143166   -0.0008442    4.8859032  
H    2.1107198   -0.0000632    2.0421868  
H   -2.9622183    0.0003270    4.3293377  
H   -1.5042274   -0.0009692    7.6184419  
H    2.0724152   -0.0013148    5.1109744  
