58

C    4.5546443   -2.0975051   -2.8456840  
C    3.3966020   -1.6333854   -2.3093944  
C    2.8128205   -0.7373021   -3.2794817  
C    3.7322609   -0.7172947   -4.4331799  
N    4.7679904   -1.5620813   -4.1068518  
C    3.5352968    0.0116910   -5.5607830  
C    2.3379414    0.8314600   -5.6435731  
O    2.0707007    1.5238123   -6.6169859  
C    1.3504332    0.8257214   -4.4333664  
O    0.3391712    1.5121844   -4.4914813  
C    1.6707636   -0.0012343   -3.2725974  
H    2.9970334   -1.8893867   -1.3442923  
H    4.2221663    0.0121013   -6.3957210  
H    5.2702684   -2.7854721   -2.4255958  
C    6.9889616   -5.2819424   -4.9591157  
C    6.1108985   -4.3626689   -4.4816041  
C    6.4569476   -3.0971004   -5.0844486  
C    7.6168903   -3.3562828   -5.9586036  
N    7.8900193   -4.6992611   -5.8373613  
C    8.2422286   -2.4121624   -6.7064641  
C    7.7394175   -1.0497785   -6.6462418  
O    8.2341906   -0.1284345   -7.2823436  
C    6.5121385   -0.7524712   -5.7268940  
O    6.0801686    0.3908462   -5.6678373  
C    5.9227652   -1.8531656   -4.9686312  
H    5.3120753   -4.5497444   -3.7862640  
H    9.0915611   -2.6233245   -7.3412516  
H    7.0537423   -6.3360080   -4.7431551  
H    8.6287312   -5.1821643   -6.3150175  
C    1.0965514    0.0001358   -0.8010306  
C    0.0000000    0.0000000    0.0000000  
C   -1.1546565    0.0001470   -0.8669508  
C   -0.6372019    0.0003520   -2.2486278  
N    0.7342867    0.0007338   -2.1395012  
C   -1.4147744    0.0001354   -3.3608712  
C   -2.8576052   -0.0001047   -3.1854454  
O   -3.6427785   -0.0002490   -4.1244896  
C   -3.4275841   -0.0000727   -1.7311660  
O   -4.6406832    0.0000333   -1.5710049  
C   -2.4891868   -0.0001090   -0.6116739  
H   -1.0150456    0.0001617   -4.3654239  
H   -2.8919122   -0.0002919    0.3920871  
H    2.1388270    0.0000663   -0.5261650  
C    0.0000000    0.0000000    1.4700000  
C    1.0662921    0.0000102    2.3034270  
C    0.4961870   -0.0000064    3.6418889  
C   -0.9663858    0.0000850    3.4240247  
N   -1.2632773    0.0000084    2.1528658  
C   -1.8985362    0.0000517    4.5177257  
C   -1.3925775   -0.0004564    5.7720543  
O   -2.1456383   -0.0005410    6.8851312  
C    0.0786232   -0.0009323    6.0245000  
O    0.4683759   -0.0012588    7.1921102  
C    1.0143166   -0.0008442    4.8859032  
H    2.1107198   -0.0000632    2.0421868  
H   -2.9622183    0.0003270    4.3293377  
H   -1.5042274   -0.0009692    7.6184419  
H    2.0724152   -0.0013148    5.1109744  
