58

C    3.2573670   -0.0002919   -1.5109384  
C    2.5379470   -0.0001709   -0.3591964  
C    1.1435040    0.0000332   -0.7338499  
C    1.1092606   -0.0000081   -2.2088477  
N    2.4227557    0.0001910   -2.6182611  
C   -0.0265536   -0.0002523   -2.9515660  
C   -1.3003033   -0.0002639   -2.2514979  
O   -2.3786789   -0.0004131   -2.8306421  
C   -1.2877726    0.0000312   -0.6895605  
O   -2.3539963    0.0003307   -0.0892032  
C    0.0000000    0.0000000    0.0000000  
H    2.9384088   -0.0000368    0.6389234  
H   -0.0296296   -0.0004084   -4.0327231  
H    2.7280488   -0.0013406   -3.5742118  
C    6.5597225   -0.0008211    1.3835019  
C    7.6114516   -0.0009114    0.5244672  
C    7.0637934   -0.0009870   -0.8115365  
C    5.5962697   -0.0009038   -0.6593383  
N    5.3559138   -0.0012037    0.6953274  
C    4.7161330   -0.0005435   -1.6923262  
C    5.2498357   -0.0004420   -3.0442496  
O    4.5392143   -0.0001858   -4.0409036  
C    6.8008630   -0.0007795   -3.2289598  
O    7.2618453   -0.0010041   -4.3624308  
C    7.6474465   -0.0008760   -2.0385193  
H    8.6521344   -0.0011059    0.7957486  
H    6.5627891   -0.0007240    2.4614077  
H    4.4461413    0.0003271    1.1188351  
C   10.9193893   -2.0951857    0.0602163  
C    9.7073264   -1.6325812   -0.3410017  
C    9.9442095   -0.7360138   -1.4477484  
C   11.4040968   -0.7140710   -1.6599631  
N   11.9372196   -1.5583133   -0.7134299  
C   12.0310657    0.0158836   -2.6169284  
C   11.2134702    0.8347270   -3.4964559  
O   11.6837320    1.5278337   -4.3890688  
C    9.6652592    0.8269388   -3.2896048  
O    8.9666632    1.5126085   -4.0238261  
C    9.1056904   -0.0009149   -2.2240563  
H    8.7559091   -1.8898905    0.0893602  
H   13.1032662    0.0177127   -2.7558242  
H   11.1547146   -2.7829725    0.8561192  
H   12.9149108   -1.7557704   -0.6030806  
C    0.8175213    0.6860729    2.3021913  
C    0.0000000    0.0000000    1.4700000  
C   -0.8887526   -0.7456559    2.3478473  
C   -0.4549825   -0.3816753    3.7138435  
N    0.5448156    0.4573574    3.6934124  
C   -1.0945674   -0.9182058    4.8835240  
C   -2.1210866   -1.7789155    4.6970523  
O   -2.8083856   -2.3554314    5.6976972  
C   -2.5824069   -2.1655116    3.3310774  
O   -3.5227682   -2.9541547    3.2362962  
C   -1.9100805   -1.6015804    2.1470656  
H   -0.7567140   -0.6349833    5.8697035  
H   -3.4728268   -2.9124471    5.2533954  
H   -2.2742832   -1.9066565    1.1752040  
H    1.6189533    1.3585343    2.0405121  
