62

C    3.3003545    0.0005278   -1.4738988  
C    2.5232807    0.0003503   -2.6090753  
C    1.1623197   -0.0001316   -2.1820107  
C    1.1711881    0.0000584   -0.7636149  
N    2.4852299   -0.0014915   -0.3662360  
C    0.0000000    0.0000000    0.0000000  
C   -1.2020386    0.0000521   -0.6806477  
O   -2.3759251    0.0003494    0.0157750  
C   -1.2314662   -0.0005110   -2.0955506  
O   -2.5054392   -0.0008036   -2.6250182  
C   -0.0764522   -0.0007269   -2.8495195  
H    2.8919952   -0.0005616   -3.6205308  
H    2.8036262    0.0088184    0.5858648  
H   -3.0835640    0.0000346   -0.6418821  
H   -2.4360052   -0.0011526   -3.5845919  
H    4.3715548    0.0004900   -1.3667142  
C    0.6778488   -0.7280272   -5.1604561  
C    0.3572088   -0.5121159   -6.4622422  
C   -0.7500359    0.4145351   -6.4749820  
C   -1.0503181    0.7230182   -5.0637914  
N   -0.1496422   -0.0015608   -4.3176961  
C   -2.0334666    1.5633981   -4.6528350  
C   -2.8505395    2.2068480   -5.6681670  
O   -3.7605421    2.9801051   -5.3993373  
C   -2.5503724    1.8945197   -7.1688850  
O   -3.2318477    2.4301015   -8.0326005  
C   -1.4639124    0.9716708   -7.4879567  
H    0.8409999   -0.9519514   -7.3161188  
H   -2.2371058    1.7761243   -3.6125523  
H    1.4488977   -1.3568982   -4.7458537  
C   -0.3828161   -2.7924963   -9.6447922  
C   -0.7150512   -1.8721621   -8.6777999  
C   -0.8649011   -0.6145236   -9.3339179  
C   -0.6099871   -0.8312131  -10.7123190  
N   -0.3185644   -2.1638733  -10.8662878  
C   -0.6684612    0.1928908  -11.6623618  
C   -0.9904274    1.4587440  -11.2127696  
O   -1.0617102    2.4952522  -12.0979714  
C   -1.2477791    1.6949365   -9.8413467  
O   -1.5543598    3.0084604   -9.5515095  
C   -1.1900083    0.6851603   -8.9035087  
H   -0.8336115   -2.0812929   -7.6284189  
H   -0.1052862   -2.6143820  -11.7378013  
H   -0.4751164    0.0342867  -12.7143419  
H   -1.2968632    3.2782163  -11.5832534  
H   -1.7140365    3.0819242   -8.6056179  
H   -0.1851962   -3.8473182   -9.5596096  
C    0.0000000    0.0000000    1.4700000  
C    1.0662921    0.0000102    2.3034270  
C    0.4961870   -0.0000064    3.6418889  
C   -0.9663858    0.0000850    3.4240247  
N   -1.2632773    0.0000084    2.1528658  
C   -1.8985362    0.0000517    4.5177257  
C   -1.3925775   -0.0004564    5.7720543  
O   -2.1456383   -0.0005410    6.8851312  
C    0.0786232   -0.0009323    6.0245000  
O    0.4683759   -0.0012588    7.1921102  
C    1.0143166   -0.0008442    4.8859032  
H    2.1107198   -0.0000632    2.0421868  
H   -2.9622183    0.0003270    4.3293377  
H   -1.5042274   -0.0009692    7.6184419  
H    2.0724152   -0.0013148    5.1109744  
