64

C   -3.3012638   -0.1375356   -1.5420425  
C   -2.5823209   -0.1070128   -0.3695849  
C   -1.2029591   -0.0500735   -0.7283585  
C   -1.1412248   -0.0481087   -2.1454371  
N   -2.4326489   -0.1038742   -2.6077460  
C    0.0654976    0.0018458   -2.8497917  
C    1.2311205    0.0510136   -2.1101399  
O    2.4371751    0.1013346   -2.7472521  
C    1.1900899    0.0495392   -0.6955264  
O    2.4350340    0.1015925   -0.1032865  
C    0.0000000    0.0000000    0.0000000  
H   -3.0005579   -0.1248346    0.6222591  
H   -2.7034182   -0.1054160   -3.5745256  
H    0.1193131    0.0034808   -3.9297471  
H    3.1106022    0.1295462   -2.0551789  
H    2.3180042    0.0968962    0.8516406  
C   -5.7026298   -0.2543985   -0.7673027  
C   -6.9530792   -0.3181688   -1.3371935  
C   -6.7674264   -0.3024582   -2.7513668  
C   -5.3706981   -0.2278830   -2.9869805  
N   -4.7535847   -0.1983852   -1.7610452  
C   -4.8212945   -0.1938531   -4.2721991  
C   -5.6978327   -0.2361786   -5.3390014  
O   -5.2149672   -0.2060579   -6.6153047  
C   -7.0946858   -0.3103070   -5.1242398  
O   -7.8349239   -0.3447089   -6.2879447  
C   -7.6374018   -0.3436412   -3.8566141  
H   -7.8845317   -0.3685707   -0.7997463  
H   -3.7576882   -0.1368928   -4.4584756  
H   -5.9837586   -0.2441660   -7.1990620  
H   -8.7668589   -0.3945377   -6.0542395  
H   -5.4127064   -0.2429943    0.2694105  
C   -9.0942089   -0.4205395   -3.6757812  
C   -9.8430816   -0.4630179   -2.5225888  
C  -11.2119517   -0.5330634   -2.9174160  
C  -11.2367327   -0.5303333   -4.3356204  
N   -9.9343679   -0.4592885   -4.7638899  
C  -12.4241045   -0.5902815   -5.0713816  
C  -13.6080101   -0.6544555   -4.3625611  
O  -14.7964631   -0.7150166   -5.0310866  
C  -13.6038566   -0.6578836   -2.9473622  
O  -14.8631823   -0.7252188   -2.3879816  
C  -12.4328758   -0.5984918   -2.2208617  
H   -9.4510313   -0.4445512   -1.5201175  
H   -9.6385413   -0.4512635   -5.7232665  
H  -12.4497538   -0.5884096   -6.1523719  
H  -15.4873498   -0.7528958   -4.3569170  
H  -14.7711191   -0.7228955   -1.4303164  
H  -12.4611017   -0.6025771   -1.1375034  
C    2.3971438    2.0127888    3.1728260  
C    1.9431056    1.6308205    1.9564670  
C    0.8496017    0.7127664    2.2356185  
C    0.7794028    0.6545384    3.7115134  
N    1.6840587    1.4146091    4.2663826  
C   -0.1885723   -0.1578550    4.3957118  
C   -1.0476298   -0.8789867    3.6398520  
O   -2.0015663   -1.6796266    4.1448486  
C   -1.0022026   -0.8410666    2.1483229  
O   -1.8147390   -1.5232959    1.5241687  
C    0.0000000    0.0000000    1.4700000  
H    2.3054237    1.9346118    0.9892483  
H   -0.2170646   -0.1815267    5.4753125  
H   -2.4487139   -2.0549881    3.3649027  
H    3.2048689    2.6911772    3.3971983  
