60

C    0.0000000    0.0000000    0.0000000  
C   -1.0521667   -0.0016055   -0.8862345  
C   -0.4917236   -0.0001107   -2.1979131  
C    0.9187400    0.0021264   -2.0478682  
N    1.1833105    0.0040852   -0.7007912  
C    1.7951670    0.0037350   -3.1372086  
C    1.2375809    0.0027660   -4.4010424  
O    2.0474185    0.0039042   -5.4997578  
C   -0.1673607    0.0009121   -4.5711964  
O   -0.5673558    0.0005614   -5.8915551  
C   -1.0325795   -0.0004022   -3.4969891  
H   -2.0953065   -0.0025024   -0.6200561  
H    2.0989964   -0.0046601   -0.2891826  
H    2.8710893    0.0055868   -3.0295509  
H    1.4634850    0.0032391   -6.2693593  
H   -1.5290741   -0.0007473   -5.9180046  
C   -2.4861732   -0.0020676   -3.7159923  
C   -3.4691561   -0.0035200   -2.7857657  
C   -4.7077449   -0.0047757   -3.5489147  
C   -4.2744162   -0.0037263   -4.9627069  
N   -2.9732131   -0.0022185   -5.0669059  
C   -5.2170376   -0.0045453   -6.0473962  
C   -6.5327451   -0.0067204   -5.7339563  
O   -7.5212075   -0.0076998   -6.6444411  
C   -7.0015536   -0.0081977   -4.3167841  
O   -8.2141985   -0.0100364   -4.1053340  
C   -6.0150658   -0.0072747   -3.2219032  
H   -3.3664317   -0.0038053   -1.7140733  
H   -8.3418915   -0.0092707   -6.1194385  
H   -6.3952615   -0.0085148   -2.2091449  
C   -1.8983536   -2.1401964   -7.8947809  
C   -1.9785470   -1.7320720   -9.1826403  
C   -3.1136945   -0.8228460   -9.2179728  
C   -3.6147452   -0.7979910   -7.8269605  
N   -2.9062433   -1.5682248   -7.0467339  
C   -4.7478919   -0.0031764   -7.4405226  
C   -5.3527473    0.7336268   -8.4000045  
O   -6.4196954    1.5208146   -8.1809223  
C   -4.8704932    0.7299610   -9.8126533  
O   -5.4694331    1.4247432  -10.6334879  
C   -3.7061726   -0.0936611  -10.1840418  
H   -1.3455123   -2.0132197  -10.0068360  
H   -6.6208460    1.9132440   -9.0496513  
H   -3.3879841   -0.0687029  -11.2176587  
H   -1.1862697   -2.8216912   -7.4572027  
C    3.3321173   -0.0004715    2.8079335  
C    2.6974184   -0.0000116    4.0032312  
C    1.2800439    0.0002118    3.6752840  
C    1.2395035   -0.0000644    2.1971295  
N    2.4394063   -0.0005460    1.6831036  
C    0.0000000    0.0000000    1.4700000  
C   -1.1468701   -0.0000635    2.1869543  
O   -2.3742202   -0.0000073    1.6395491  
C   -1.1388768   -0.0001607    3.6796354  
O   -2.2206231   -0.0000905    4.2670412  
C    0.1454524   -0.0001816    4.4024240  
H    3.1367986    0.0000651    4.9860947  
H   -2.9844344   -0.0001026    2.3990168  
H    0.1083576   -0.0003682    5.4835595  
H    4.3940039   -0.0007619    2.6198634  
