58

C    3.2573671   -0.0002917   -1.5109380  
C    2.5379467   -0.0001709   -0.3591958  
C    1.1435042    0.0000332   -0.7338495  
C    1.1092609   -0.0000081   -2.2088474  
N    2.4227564    0.0001912   -2.6182606  
C   -0.0265531   -0.0002521   -2.9515660  
C   -1.3003035   -0.0002638   -2.2514979  
O   -2.3786783   -0.0004130   -2.8306424  
C   -1.2877727    0.0000312   -0.6895603  
O   -2.3539957    0.0003307   -0.0892031  
C    0.0000000    0.0000000    0.0000000  
H    2.9384089   -0.0000368    0.6389242  
H    4.3270398   -0.0004764   -1.6439440  
H    2.7280495   -0.0013403   -3.5742112  
C    2.4624171   -2.0918864   -5.9392947  
C    1.9141445   -1.6298147   -4.7860550  
C    0.8439986   -0.7345870   -5.1577954  
C    0.8135192   -0.7128501   -6.6327150  
N    1.8196256   -1.5559199   -7.0448711  
C   -0.0596540    0.0159612   -7.3730582  
C   -1.0343382    0.8337035   -6.6703328  
O   -1.8629427    1.5257393   -7.2472222  
C   -1.0200969    0.8261114   -5.1084283  
O   -1.8357402    1.5108612   -4.5058471  
C   -0.0307350   -0.0004643   -4.4215601  
H    2.2241311   -1.8866338   -3.7887760  
H    3.2821085   -2.7786949   -6.0745346  
H    2.0500116   -1.7532073   -8.0014522  
C    0.4994537   -3.2086218  -10.3009924  
C    0.3671758   -2.4952621  -11.4489017  
C    0.1250858   -1.1240255  -11.0668835  
C    0.1272110   -1.0967894   -9.5917414  
N    0.3590357   -2.3918465   -9.1892820  
C   -0.0671790    0.0182706   -8.8430369  
C   -0.2938264    1.2754414   -9.5363532  
O   -0.4791570    2.3346515   -8.9515225  
C   -0.3004757    1.2699205  -11.0983171  
O   -0.4905794    2.3222746  -11.6930207  
C   -0.0789406    0.0050619  -11.7946694  
H    0.4316354   -2.8851779  -12.4491147  
H   -0.0848615    0.0098178  -12.8761805  
H    0.6874891   -4.2623369  -10.1736457  
H    0.4191842   -2.6963633   -8.2349765  
C    0.0000000    0.0000000    1.4700000  
C    1.0662921    0.0000102    2.3034270  
C    0.4961870   -0.0000064    3.6418889  
C   -0.9663858    0.0000850    3.4240247  
N   -1.2632773    0.0000084    2.1528658  
C   -1.8985362    0.0000517    4.5177257  
C   -1.3925775   -0.0004564    5.7720543  
O   -2.1456383   -0.0005410    6.8851312  
C    0.0786232   -0.0009323    6.0245000  
O    0.4683759   -0.0012588    7.1921102  
C    1.0143166   -0.0008442    4.8859032  
H    2.1107198   -0.0000632    2.0421868  
H   -2.9622183    0.0003270    4.3293377  
H   -1.5042274   -0.0009692    7.6184419  
H    2.0724152   -0.0013148    5.1109744  
