60

C    3.3003540    0.0005278   -1.4738998  
C    2.5232805    0.0003501   -2.6090759  
C    1.1623190   -0.0001315   -2.1820106  
C    1.1711880    0.0000584   -0.7636147  
N    2.4852300   -0.0014918   -0.3662366  
C    0.0000000    0.0000000    0.0000000  
C   -1.2020387    0.0000521   -0.6806476  
O   -2.3759253    0.0003495    0.0157752  
C   -1.2314666   -0.0005110   -2.0955505  
O   -2.5054395   -0.0008035   -2.6250174  
C   -0.0764524   -0.0007269   -2.8495195  
H    2.8919942   -0.0005615   -3.6205312  
H    2.8036265    0.0088181    0.5858650  
H   -3.0835639    0.0000348   -0.6418810  
H   -2.4360058   -0.0011523   -3.5845915  
C   -0.1496428   -0.0015607   -4.3176960  
C    0.8605969   -0.0020137   -5.2251597  
C    0.2508202   -0.0027512   -6.5339794  
C   -1.2079401   -0.0026612   -6.3130521  
N   -1.3844322   -0.0023257   -4.9485957  
C   -2.1356024   -0.0028332   -7.3035797  
C   -1.6659583   -0.0033529   -8.6790694  
O   -2.4225864   -0.0036040   -9.6412615  
C   -0.1253123   -0.0037089   -8.9363928  
O    0.2819474   -0.0044537  -10.0902551  
C    0.7762256   -0.0031995   -7.7870100  
H    1.9128678   -0.0020322   -5.0030350  
H   -3.2010555   -0.0026328   -7.1199502  
H    1.8415227   -0.0032451   -7.9737364  
H   -2.2733191   -0.0006336   -4.4828440  
C    6.4260924    0.0030639   -4.5098927  
C    7.5522578    0.0028897   -3.7593396  
C    7.0848216    0.0018032   -2.3816593  
C    5.6099752    0.0015414   -2.4884905  
N    5.2179699    0.0021968   -3.7336095  
C    4.7630502    0.0004759   -1.3275418  
C    5.3622559   -0.0006824   -0.1149884  
O    4.6953715   -0.0017512    1.0517612  
C    6.8483155   -0.0008249    0.0256741  
O    7.3251007   -0.0017841    1.1605290  
C    7.6953849    0.0003261   -1.1803098  
H    8.5739837    0.0033413   -4.0986788  
H    5.3903106   -0.0024423    1.7345582  
H    8.7674555    0.0000667   -1.0357580  
H    6.3446815    0.0037702   -5.5852275  
C    0.8175213    0.6860729    2.3021913  
C    0.0000000    0.0000000    1.4700000  
C   -0.8887526   -0.7456559    2.3478473  
C   -0.4549825   -0.3816753    3.7138435  
N    0.5448156    0.4573574    3.6934124  
C   -1.0945674   -0.9182058    4.8835240  
C   -2.1210866   -1.7789155    4.6970523  
O   -2.8083856   -2.3554314    5.6976972  
C   -2.5824069   -2.1655116    3.3310774  
O   -3.5227682   -2.9541547    3.2362962  
C   -1.9100805   -1.6015804    2.1470656  
H   -0.7567140   -0.6349833    5.8697035  
H   -3.4728268   -2.9124471    5.2533954  
H   -2.2742832   -1.9066565    1.1752040  
H    1.6189533    1.3585343    2.0405121  
