58

C   -4.2186865    2.1401321   -0.0437260  
C   -5.4804250    1.7323141   -0.3144295  
C   -5.3466896    0.8217463   -1.4411417  
C   -3.8965664    0.7958597   -1.7293372  
N   -3.2302259    1.5666944   -0.9133753  
C   -3.3460097   -0.0004262   -2.7913647  
C   -4.2050299   -0.7376505   -3.5315796  
O   -3.8298203   -1.5261787   -4.5530893  
C   -5.6737587   -0.7329691   -3.2651710  
O   -6.3965397   -1.4282090   -3.9789288  
C   -6.2140638    0.0921565   -2.1701078  
H   -6.3895960    2.0144737    0.1884321  
H   -4.6590776   -1.9185768   -4.8809748  
H   -7.2835615    0.0679007   -2.0094317  
C   -3.7730313    3.0700586    1.0039035  
C   -4.5294326    3.7166822    1.9211356  
C   -3.5841468    4.4995701    2.7021743  
C   -2.2661015    4.1979002    2.1035621  
N   -2.3705242    3.3605746    1.1075857  
C   -1.0524046    4.7854231    2.6003959  
C   -1.1509972    5.6359618    3.6473911  
O   -0.1009108    6.2558352    4.2122946  
C   -2.4667667    5.9607681    4.2730199  
O   -2.4816593    6.7432964    5.2230982  
C   -3.6974210    5.3451992    3.7452994  
H   -5.5970196    3.6684313    2.0515459  
H   -0.1028867    4.5469269    2.1438380  
H   -0.4856331    6.7918826    4.9290892  
H   -4.6305557    5.6064258    4.2261845  
C    0.0000000    0.0000000    0.0000000  
C    1.0662919   -0.0000103   -0.8334272  
C    0.4961868    0.0000066   -2.1718889  
C   -0.9663860   -0.0000849   -1.9540248  
N   -1.2632775   -0.0000084   -0.6828659  
C   -1.8985364   -0.0000515   -3.0477258  
C   -1.3925778    0.0004567   -4.3020543  
O   -2.1456385    0.0005412   -5.4151314  
C    0.0786229    0.0009326   -4.5544999  
O    0.4683756    0.0012594   -5.7221104  
C    1.0143162    0.0008443   -3.4159034  
H    2.1107195    0.0000631   -0.5721869  
H   -1.5042277    0.0009692   -6.1484420  
H    2.0724151    0.0013151   -3.6409746  
C    0.0000000    0.0000000    1.4700000  
C    1.0662921    0.0000102    2.3034270  
C    0.4961870   -0.0000064    3.6418889  
C   -0.9663858    0.0000850    3.4240247  
N   -1.2632773    0.0000084    2.1528658  
C   -1.8985362    0.0000517    4.5177257  
C   -1.3925775   -0.0004564    5.7720543  
O   -2.1456383   -0.0005410    6.8851312  
C    0.0786232   -0.0009323    6.0245000  
O    0.4683759   -0.0012588    7.1921102  
C    1.0143166   -0.0008442    4.8859032  
H    2.1107198   -0.0000632    2.0421868  
H   -2.9622183    0.0003270    4.3293377  
H   -1.5042274   -0.0009692    7.6184419  
H    2.0724152   -0.0013148    5.1109744  
