58

C    3.1301146   -0.0010311   -1.7028257  
C    2.5367758   -0.0002767   -0.4864668  
C    1.1089899    0.0001027   -0.7656184  
C    1.0177861   -0.0004148   -2.2415133  
N    2.1993568   -0.0011611   -2.7963824  
C   -0.2459219   -0.0002877   -2.9257117  
C   -1.3675318   -0.0000604   -2.1698524  
O   -2.6129311    0.0000867   -2.6748491  
C   -1.3083598    0.0000910   -0.6783228  
O   -2.3693273    0.0004206   -0.0541686  
C    0.0000000    0.0000000    0.0000000  
H    3.0096011   -0.0001008    0.4807520  
H   -0.2829643   -0.0004686   -4.0053122  
H   -3.1967440    0.0002094   -1.8949030  
C    6.5698745   -0.0006428    0.9721598  
C    7.6069601   -0.0018568    0.1026596  
C    6.9912933   -0.0024304   -1.2154657  
C    5.5370515   -0.0015106   -0.9475772  
N    5.2839239   -0.0003802    0.3330143  
C    4.5679455   -0.0016853   -2.0086708  
C    5.0305943   -0.0023424   -3.2796113  
O    4.2398084   -0.0025847   -4.3662106  
C    6.4922737   -0.0029067   -3.5823570  
O    6.8417587   -0.0036171   -4.7626453  
C    7.4664600   -0.0027579   -2.4765155  
H    8.6597316   -0.0022171    0.3279319  
H    4.8556968   -0.0030410   -5.1210845  
H    6.6068541    0.0001031    2.0499376  
C    9.8977758   -0.6893286   -2.2389365  
C    8.8929582   -0.0031758   -2.8314853  
C    9.5303853    0.7420602   -3.9061055  
C   10.9606189    0.3777744   -3.8149348  
N   11.1820276   -0.4610609   -2.8395768  
C   11.9413636    0.9138498   -4.7181787  
C   11.5127278    1.7744158   -5.6695104  
O   12.3179263    2.3505154   -6.5782485  
C   10.0758680    2.1613118   -5.7874273  
O    9.7569974    2.9498017   -6.6772734  
C    9.0891165    1.5978461   -4.8489434  
H   12.9798772    0.6304116   -4.6283899  
H   11.7264543    2.9075303   -7.1158803  
H    8.0581391    1.9031287   -4.9677643  
H    9.8372132   -1.3615620   -1.3978610  
C    2.5528530    2.1414826    2.8079335  
C    2.0663498    1.7338582    4.0032312  
C    0.9804344    0.8229586    3.6752840  
C    0.9495562    0.7966882    2.1971295  
N    1.8690446    1.5676019    1.6831036  
C    0.0000000    0.0000000    1.4700000  
C   -0.8785127   -0.7372425    2.1869543  
O   -1.8187535   -1.5261249    1.6395491  
C   -0.8723269   -0.7321790    3.6796354  
O   -1.7010379   -1.4274584    4.2670412  
C    0.1115397    0.0933559    4.4024240  
H    2.4028853    2.0163452    4.9860947  
H   -2.2861435   -1.9184361    2.3990168  
H    0.0832434    0.0693689    5.4835595  
H    3.3664920    2.8238276    2.6198634  
