60

C   -3.3041035    0.0127939   -1.5420414  
C   -2.5845161    0.0105776   -0.3695841  
C   -1.2039919    0.0047056   -0.7283581  
C   -1.1422324    0.0038597   -2.1454365  
N   -2.4348569    0.0069038   -2.6077451  
C    0.0655126   -0.0011360   -2.8497915  
C    1.2321660   -0.0050477   -2.1101403  
O    2.4392609   -0.0096470   -2.7472527  
C    1.1911105   -0.0046539   -0.6955270  
O    2.4371339   -0.0092919   -0.1032872  
C    0.0000000    0.0000000    0.0000000  
H   -3.0031302    0.0118016    0.6222597  
H   -2.7054161    0.0176819   -3.5745247  
H    0.1193466   -0.0019510   -3.9297471  
H    3.1132746   -0.0121014   -2.0551798  
H    2.3200124   -0.0086591    0.8516402  
C   -5.7131368    0.0220918   -0.7960682  
C   -4.7576885    0.0180790   -1.7610437  
C   -5.4429414    0.0197132   -3.0319735  
C   -6.8862794    0.0250745   -2.7261369  
N   -6.9826945    0.0258870   -1.3536963  
C   -7.8702614    0.0283904   -3.6607351  
C   -7.4818437    0.0263306   -5.0613289  
O   -8.2934285    0.0289429   -5.9776394  
C   -5.9588894    0.0204104   -5.4082866  
O   -5.6197921    0.0183253   -6.5839859  
C   -4.9916985    0.0175077   -4.3135786  
H   -3.9391481    0.0136157   -4.5622683  
H   -5.5966160    0.0223789    0.2755248  
H   -7.8428185    0.0307512   -0.8367725  
C   -9.8884138    0.7412610   -2.3269874  
C   -9.3018172    0.0338941   -3.3267938  
C  -10.3497923   -0.7047735   -3.9908374  
C  -11.6040111   -0.3673222   -3.2909412  
N  -11.2557094    0.5130798   -2.2927089  
C  -12.8243863   -0.8625380   -3.6182797  
C  -12.9081428   -1.7899475   -4.7342689  
O  -13.9611795   -2.2907500   -5.1065760  
C  -11.5924545   -2.1615962   -5.4896797  
O  -11.6504957   -2.9416240   -6.4306620  
C  -10.3366824   -1.5628928   -5.0442110  
H  -13.7321392   -0.6019940   -3.0919615  
H   -9.4302515   -1.8252389   -5.5726825  
H   -9.4368557    1.4098879   -1.6121985  
H  -11.8964048    0.9277193   -1.6410715  
C    0.0000000    0.0000000    1.4700000  
C    1.0662921    0.0000102    2.3034270  
C    0.4961870   -0.0000064    3.6418889  
C   -0.9663858    0.0000850    3.4240247  
N   -1.2632773    0.0000084    2.1528658  
C   -1.8985362    0.0000517    4.5177257  
C   -1.3925775   -0.0004564    5.7720543  
O   -2.1456383   -0.0005410    6.8851312  
C    0.0786232   -0.0009323    6.0245000  
O    0.4683759   -0.0012588    7.1921102  
C    1.0143166   -0.0008442    4.8859032  
H    2.1107198   -0.0000632    2.0421868  
H   -2.9622183    0.0003270    4.3293377  
H   -1.5042274   -0.0009692    7.6184419  
H    2.0724152   -0.0013148    5.1109744  
