60

C   -1.1188116    0.0108739   -0.8003804  
C    0.0000000    0.0000000    0.0000000  
C    1.1323150   -0.0127269   -0.8673525  
C    0.6382105   -0.0086396   -2.1969278  
N   -0.7324018    0.0038084   -2.1202234  
C    1.4769819   -0.0181719   -3.3154808  
C    2.8393704   -0.0317768   -3.0876853  
O    3.7036921   -0.0411604   -4.1440348  
C    3.3515891   -0.0364302   -1.7684329  
O    4.7297780   -0.0506814   -1.7073124  
C    2.5247072   -0.0273054   -0.6644812  
H   -1.3574983    0.0198087   -2.9057040  
H    4.5937290   -0.0502051   -3.7685130  
H    4.9931797   -0.0529245   -0.7819916  
H    2.9460911   -0.0313586    0.3339654  
H   -2.1618808    0.0216649   -0.5342067  
C    0.9735342   -0.0142233   -4.6965757  
C   -0.3100015   -0.0013782   -5.1397993  
C   -0.2571563   -0.0032639   -6.5827264  
C    1.1726310   -0.0183983   -6.9464167  
N    1.8657736   -0.0240532   -5.7579674  
C    1.6420866   -0.0248346   -8.2197089  
C    0.6745896   -0.0160595   -9.3043320  
O    0.9974983   -0.0207948  -10.4850137  
C   -0.8447843    0.0002480   -8.9423345  
O   -1.6686305    0.0080499   -9.8470310  
C   -1.2284075    0.0056725   -7.5328464  
H   -1.1930356    0.0084946   -4.5259859  
H   -2.2824181    0.0167709   -7.2906433  
H    2.8657458   -0.0357785   -5.6745051  
C    4.0624127   -0.7357873   -7.9445918  
C    3.0737275   -0.0401263   -8.5529805  
C    3.7349291    0.6974100   -9.6185103  
C    5.1598374    0.3187255   -9.5052894  
N    5.3578826   -0.5212333   -8.5258829  
C    6.1595711    0.8438169  -10.3940500  
C    5.7541899    1.7076356  -11.3525993  
O    6.5788977    2.2745249  -12.2495579  
C    4.3232911    2.1089667  -11.4926855  
O    4.0259911    2.8996668  -12.3880213  
C    3.3167375    1.5565864  -10.5687537  
H    7.1936677    0.5499508  -10.2882351  
H    6.0013439    2.8369195  -12.7966380  
H    2.2908385    1.8721872  -10.7035038  
H    3.9822652   -1.4064394   -7.1038921  
C    0.8175213    0.6860729    2.3021913  
C    0.0000000    0.0000000    1.4700000  
C   -0.8887526   -0.7456559    2.3478473  
C   -0.4549825   -0.3816753    3.7138435  
N    0.5448156    0.4573574    3.6934124  
C   -1.0945674   -0.9182058    4.8835240  
C   -2.1210866   -1.7789155    4.6970523  
O   -2.8083856   -2.3554314    5.6976972  
C   -2.5824069   -2.1655116    3.3310774  
O   -3.5227682   -2.9541547    3.2362962  
C   -1.9100805   -1.6015804    2.1470656  
H   -0.7567140   -0.6349833    5.8697035  
H   -3.4728268   -2.9124471    5.2533954  
H   -2.2742832   -1.9066565    1.1752040  
H    1.6189533    1.3585343    2.0405121  
