60

C    3.3003543    0.0005276   -1.4738987  
C    2.5232814    0.0003497   -2.6090747  
C    1.1623201   -0.0001318   -2.1820100  
C    1.1711882    0.0000584   -0.7636144  
N    2.4852299   -0.0014918   -0.3662356  
C    0.0000000    0.0000000    0.0000000  
C   -1.2020383    0.0000521   -0.6806484  
O   -2.3759250    0.0003495    0.0157746  
C   -1.2314658   -0.0005110   -2.0955509  
O   -2.5054390   -0.0008035   -2.6250179  
C   -0.0764516   -0.0007271   -2.8495195  
H    2.8919951   -0.0005616   -3.6205302  
H    2.8036261    0.0088182    0.5858657  
H   -3.0835640    0.0000348   -0.6418822  
H   -2.4360046   -0.0011525   -3.5845922  
H    4.3715547    0.0004895   -1.3667137  
C    0.6778498   -0.7280274   -5.1604559  
C    0.3572099   -0.5121162   -6.4622422  
C   -0.7500349    0.4145349   -6.4749820  
C   -1.0503172    0.7230181   -5.0637914  
N   -0.1496415   -0.0015610   -4.3176962  
C   -2.0334658    1.5633981   -4.6528354  
C   -2.8505387    2.2068484   -5.6681675  
O   -3.7605409    2.9801052   -5.3993377  
C   -2.5503714    1.8945198   -7.1688856  
O   -3.2318468    2.4301019   -8.0326014  
C   -1.4639111    0.9716706   -7.4879570  
H   -2.2371053    1.7761244   -3.6125527  
H   -1.2623885    0.7608732   -8.5294351  
H    1.4488982   -1.3568984   -4.7458534  
C    1.8315729   -4.5665230   -7.0750515  
C    2.3287087   -4.5019298   -8.3321373  
C    2.0913139   -3.1316814   -8.7594112  
C    1.4240537   -2.4917219   -7.6053752  
N    1.2691620   -3.3278838   -6.6150057  
C    1.0184830   -1.1133085   -7.6293690  
C    1.2685016   -0.4062460   -8.7549302  
O    0.9445556    0.8880668   -8.9157207  
C    1.9405704   -1.0236602   -9.9361521  
O    2.1363129   -0.3204500  -10.9273133  
C    2.3469854   -2.4394052   -9.8869826  
H    2.7985742   -5.2871287   -8.8993787  
H    1.2476785    1.1096978   -9.8146916  
H    2.8311487   -2.8491589  -10.7632909  
H    1.8144097   -5.4156710   -6.4105020  
C    0.0000000    0.0000000    1.4700000  
C    1.0662921    0.0000102    2.3034270  
C    0.4961870   -0.0000064    3.6418889  
C   -0.9663858    0.0000850    3.4240247  
N   -1.2632773    0.0000084    2.1528658  
C   -1.8985362    0.0000517    4.5177257  
C   -1.3925775   -0.0004564    5.7720543  
O   -2.1456383   -0.0005410    6.8851312  
C    0.0786232   -0.0009323    6.0245000  
O    0.4683759   -0.0012588    7.1921102  
C    1.0143166   -0.0008442    4.8859032  
H    2.1107198   -0.0000632    2.0421868  
H   -2.9622183    0.0003270    4.3293377  
H   -1.5042274   -0.0009692    7.6184419  
H    2.0724152   -0.0013148    5.1109744  
