60

C    3.1301152   -0.0010311   -1.7028248  
C    2.5367767   -0.0002766   -0.4864663  
C    1.1089906    0.0001028   -0.7656180  
C    1.0177872   -0.0004148   -2.2415129  
N    2.1993581   -0.0011610   -2.7963816  
C   -0.2459210   -0.0002877   -2.9257117  
C   -1.3675316   -0.0000605   -2.1698524  
O   -2.6129307    0.0000866   -2.6748494  
C   -1.3083586    0.0000911   -0.6783233  
O   -2.3693263    0.0004206   -0.0541693  
C    0.0000000    0.0000000    0.0000000  
H    3.0096017   -0.0001007    0.4807526  
H   -3.1967436    0.0002093   -1.8949037  
C    6.8847540    0.0010459    0.6986590  
C    5.5715645    0.0014849    0.3713776  
C    5.5475447   -0.0003217   -1.0832424  
C    6.9721660   -0.0016280   -1.4795206  
N    7.7607282   -0.0009150   -0.4392516  
C    7.3784672   -0.0036303   -2.8579260  
C    6.4057884   -0.0046863   -3.7977288  
O    6.6406183   -0.0065623   -5.1209414  
C    4.9592106   -0.0037854   -3.4295261  
O    4.1279724   -0.0047102   -4.3374151  
C    4.5679462   -0.0016852   -2.0086697  
H    4.7238869    0.0027739    1.0350927  
H    8.4267356   -0.0043452   -3.1187766  
H    5.7562733   -0.0069356   -5.5297042  
H    7.3236786    0.0019892    1.6837063  
C    0.4920782   -0.6868678   -5.2544640  
C   -0.2963280   -0.0005339   -4.3948472  
C   -1.2145530    0.7451072   -5.2418310  
C   -0.8279307    0.3808332   -6.6218354  
N    0.1718600   -0.4583448   -6.6355552  
C   -1.5071716    0.9172630   -7.7689886  
C   -2.5265699    1.7781567   -7.5475759  
O   -3.2476948    2.3546073   -8.5241638  
C   -2.9407238    2.1650503   -6.1666517  
O   -3.8771692    2.9538492   -6.0398172  
C   -2.2282730    1.6012172   -5.0062937  
H   -1.2033739    0.6338251   -8.7661242  
H   -3.8964302    2.9117964   -8.0574356  
H   -2.5588924    1.9065103   -4.0225673  
H    1.3019159   -1.3594047   -5.0203037  
C    0.8676693    0.7151171    2.2619005  
C    0.5875920    0.4624972    3.5848544  
C   -0.5048400   -0.4542819    3.6114698  
C   -0.8517165   -0.7276451    2.2635546  
N    0.0000000    0.0000000    1.4700000  
C   -1.8902865   -1.5946756    1.9108239  
C   -2.5912627   -2.1969500    2.9375057  
O   -3.6148162   -3.0527051    2.6493466  
C   -2.2603868   -1.9365747    4.2886322  
O   -3.0513550   -2.6123276    5.1947621  
C   -1.2361111   -1.0811317    4.6373480  
H    1.1060808    0.8876438    4.4271209  
H   -2.1597133   -1.8070987    0.8854031  
H   -3.9636755   -3.3565188    3.4974381  
H   -2.7621927   -2.3810384    6.0827341  
H   -1.0058879   -0.9010589    5.6809233  
H    1.6167816    1.3499334    1.8205408  
