58

C    3.2573672   -0.0002920   -1.5109380  
C    2.5379469   -0.0001709   -0.3591961  
C    1.1435040    0.0000331   -0.7338498  
C    1.1092607   -0.0000083   -2.2088474  
N    2.4227561    0.0001908   -2.6182610  
C   -0.0265531   -0.0002525   -2.9515662  
C   -1.3003047   -0.0002641   -2.2514977  
O   -2.3786789   -0.0004134   -2.8306425  
C   -1.2877729    0.0000311   -0.6895606  
O   -2.3539957    0.0003306   -0.0892034  
C    0.0000000    0.0000000    0.0000000  
H    2.9384086   -0.0000367    0.6389239  
H   -0.0296291   -0.0004087   -4.0327232  
H    2.7280494   -0.0013408   -3.5742114  
C    6.4550019   -0.0009257    1.4492357  
C    7.5628473   -0.0014712    0.6718960  
C    7.0625123   -0.0013727   -0.6941806  
C    5.5906518   -0.0008360   -0.5520172  
N    5.2286136   -0.0004914    0.7021430  
C    4.7161331   -0.0005435   -1.6923257  
C    5.2860928   -0.0003877   -2.9188983  
O    4.5914249   -0.0001201   -4.0693230  
C    6.7683529   -0.0005474   -3.0951524  
O    7.2177897   -0.0005153   -4.2411135  
C    7.6440949   -0.0008910   -1.9098252  
H    8.5924156   -0.0017984    0.9866399  
H    5.2697922   -0.0000403   -4.7685866  
H    6.3993983   -0.0008022    2.5262135  
C   11.1544949   -2.0144607   -0.0424546  
C    9.8818626   -1.6323494   -0.2993168  
C    9.9855168   -0.7139254   -1.4228171  
C   11.4319825   -0.6556621   -1.7243526  
N   12.1222527   -1.4160326   -0.9185276  
C   11.9553855    0.1570622   -2.7876570  
C   11.0738015    0.8784767   -3.5168389  
O   11.4224422    1.6794413   -4.5380861  
C    9.6079982    0.8405295   -3.2372996  
O    8.8637981    1.5230271   -3.9412766  
C    9.0957829   -0.0008794   -2.1411282  
H    8.9836896   -1.9362701    0.2105777  
H   13.0170551    0.1807520   -2.9856606  
H   10.5818713    2.0549471   -4.8568148  
H   11.5031360   -2.6931188    0.7196777  
C    2.5528530    2.1414826    2.8079335  
C    2.0663498    1.7338582    4.0032312  
C    0.9804344    0.8229586    3.6752840  
C    0.9495562    0.7966882    2.1971295  
N    1.8690446    1.5676019    1.6831036  
C    0.0000000    0.0000000    1.4700000  
C   -0.8785127   -0.7372425    2.1869543  
O   -1.8187535   -1.5261249    1.6395491  
C   -0.8723269   -0.7321790    3.6796354  
O   -1.7010379   -1.4274584    4.2670412  
C    0.1115397    0.0933559    4.4024240  
H    2.4028853    2.0163452    4.9860947  
H   -2.2861435   -1.9184361    2.3990168  
H    0.0832434    0.0693689    5.4835595  
H    3.3664920    2.8238276    2.6198634  
