58

C    3.2573671   -0.0002920   -1.5109382  
C    2.5379468   -0.0001710   -0.3591961  
C    1.1435042    0.0000332   -0.7338500  
C    1.1092607   -0.0000081   -2.2088476  
N    2.4227563    0.0001908   -2.6182607  
C   -0.0265533   -0.0002523   -2.9515662  
C   -1.3003036   -0.0002639   -2.2514977  
O   -2.3786784   -0.0004130   -2.8306424  
C   -1.2877726    0.0000312   -0.6895601  
O   -2.3539955    0.0003305   -0.0892030  
C    0.0000000    0.0000000    0.0000000  
H    2.9384089   -0.0000368    0.6389235  
H    4.3270393   -0.0004764   -1.6439441  
H    2.7280493   -0.0013406   -3.5742112  
C    2.5185218   -2.1418784   -5.7664422  
C    2.0285779   -1.7344767   -6.9604095  
C    0.9435061   -0.8236410   -6.6295057  
C    0.9168305   -0.7971603   -5.1512732  
N    1.8378568   -1.5679054   -4.6397540  
C   -0.0307353   -0.0004646   -4.4215600  
C   -0.9113600    0.7365842   -5.1361181  
O   -1.8501209    1.5254492   -4.5861541  
C   -0.9094203    0.7313057   -6.6288103  
O   -1.7398706    1.4264152   -7.2139562  
C    0.0724711   -0.0942325   -7.3542759  
H    2.3623450   -2.0170711   -7.9441858  
H   -2.3197101    1.9176027   -5.3443457  
H    3.3327627   -2.8241125   -5.5805892  
C    0.5685704   -3.3128591  -10.2494145  
C    0.4235302   -2.6617324  -11.4269441  
C    0.1873537   -1.2735520  -11.0613280  
C    0.2234751   -1.2661499   -9.5830768  
N    0.4466626   -2.4587247   -9.1014732  
C    0.0298370   -0.0618532   -8.8233009  
C   -0.1895149    1.0830742   -9.5091293  
O   -0.3862526    2.2793656   -8.9292830  
C   -0.2313267    1.1081004  -11.0010356  
O   -0.4357746    2.1860349  -11.5591391  
C   -0.0298425   -0.1404315  -11.7576711  
H    0.4710430   -3.0726780  -12.4208967  
H   -0.5138655    2.8968830   -9.6719398  
H   -0.0674390   -0.0800644  -12.8371029  
H    0.7582138   -4.3624066  -10.0898567  
C    2.3971438    2.0127888    3.1728260  
C    1.9431056    1.6308205    1.9564670  
C    0.8496017    0.7127664    2.2356185  
C    0.7794028    0.6545384    3.7115134  
N    1.6840587    1.4146091    4.2663826  
C   -0.1885723   -0.1578550    4.3957118  
C   -1.0476298   -0.8789867    3.6398520  
O   -2.0015663   -1.6796266    4.1448486  
C   -1.0022026   -0.8410666    2.1483229  
O   -1.8147390   -1.5232959    1.5241687  
C    0.0000000    0.0000000    1.4700000  
H    2.3054237    1.9346118    0.9892483  
H   -0.2170646   -0.1815267    5.4753125  
H   -2.4487139   -2.0549881    3.3649027  
H    3.2048689    2.6911772    3.3971983  
