58

C    0.0000000    0.0000000    0.0000000  
C   -1.0136706    0.2893841   -0.8560391  
C   -0.4907197    0.1400518   -2.1935956  
C    0.9208231   -0.2629710   -2.0455730  
N    1.1557666   -0.3296010   -0.6915968  
C    1.7641971   -0.5041991   -3.0810610  
C    1.2472379   -0.3568554   -4.4314606  
O    1.9277370   -0.5514762   -5.4301318  
C   -0.2446204    0.0693557   -4.6117574  
O   -0.6909597    0.1968992   -5.7439121  
C   -1.0553676    0.3010103   -3.4189130  
H   -2.0135705    0.5750514   -0.5817983  
H    2.7961952   -0.7989813   -2.9507062  
H    2.0313373   -0.5811007   -0.2706791  
C   -3.8166141    3.1776521   -1.4277094  
C   -2.7065764    2.4644444   -1.7289246  
C   -3.0944300    1.6226532   -2.8502883  
C   -4.5103830    1.9664736   -3.1021780  
N   -4.9392044    2.8775002   -2.2714360  
C   -5.2707264    1.3406500   -4.1487484  
C   -4.6448670    0.4137748   -4.9093645  
O   -5.2326593   -0.2491146   -5.9198690  
C   -3.2166127    0.0453733   -4.6801673  
O   -2.7113061   -0.8067242   -5.4107943  
C   -2.4580912    0.7014661   -3.6003006  
H   -1.7434815    2.5046903   -1.2494412  
H   -6.3040147    1.6110781   -4.3102836  
H   -4.5380707   -0.8368615   -6.2680835  
C   -1.0344549    4.7428972    1.5877402  
C   -1.8542004    5.6272448    2.2122574  
C   -3.1354527    5.5532758    1.5506254  
C   -2.9939515    4.5461009    0.4818098  
N   -1.6970024    4.0932157    0.5573595  
C   -3.9860513    4.1854594   -0.3710562  
C   -5.2794659    4.8326143   -0.2268184  
O   -6.2362411    4.5766971   -0.9461153  
C   -5.4517929    5.9024456    0.8981566  
O   -6.5360811    6.4542244    1.0290012  
C   -4.3090509    6.2065062    1.7557931  
H   -1.5912798    6.2593974    3.0416362  
H   -4.4366829    6.9482850    2.5324516  
H   -0.0020069    4.5112837    1.7934003  
H   -1.2944267    3.3964447   -0.0422154  
C    3.1301144    0.0010313    3.1728260  
C    2.5367765    0.0002768    1.9564670  
C    1.1089900   -0.0001027    2.2356185  
C    1.0177864    0.0004150    3.7115134  
N    2.1993570    0.0011613    4.2663826  
C   -0.2459220    0.0002880    4.3957118  
C   -1.3675327    0.0000606    3.6398520  
O   -2.6129319   -0.0000866    4.1448486  
C   -1.3083589   -0.0000910    2.1483229  
O   -2.3693264   -0.0004206    1.5241687  
C    0.0000000    0.0000000    1.4700000  
H    3.0096015    0.0001008    0.9892483  
H   -0.2829642    0.0004689    5.4753125  
H   -3.1967446   -0.0002093    3.3649027  
H    4.1849273    0.0015113    3.3971983  
