60

C    0.0000000    0.0000000    0.0000000  
C    1.0521660   -0.0011919   -0.8862347  
C    0.4917215   -0.0011967   -2.1979136  
C   -0.9187431    0.0003157   -2.0478686  
N   -1.1833172   -0.0009396   -0.7007912  
C   -1.7951706    0.0010371   -3.1372093  
C   -1.2375843    0.0005236   -4.4010428  
O   -2.0474223    0.0015382   -5.4997578  
C    0.1673573   -0.0013574   -4.5711966  
O    0.5673515   -0.0020702   -5.8915554  
C    1.0325762   -0.0023431   -3.4969895  
H    2.0953057   -0.0030682   -0.6200570  
H   -2.0989778    0.0102402   -0.2891823  
H   -1.4634894    0.0006514   -6.2693594  
H    1.5290704   -0.0033182   -5.9180050  
H    2.1042146   -0.0039645   -3.6584464  
C   -3.9676850    0.7292856   -2.0471637  
C   -5.3027880    0.5138202   -2.1702453  
C   -5.4806696   -0.4129569   -3.2630754  
C   -4.1300726   -0.7219999   -3.7701951  
N   -3.2578659    0.0024081   -2.9908507  
C   -3.8704682   -1.5626489   -4.8034521  
C   -4.9964232   -2.2058184   -5.4600293  
O   -4.8664385   -2.9792829   -6.3997937  
C   -6.4355646   -1.8928967   -4.9396857  
O   -7.3913557   -2.4282380   -5.4847856  
C   -6.5888890   -0.9698005   -3.8179739  
H   -6.0749051    0.9540305   -1.5647171  
H   -2.8722083   -1.7757859   -5.1597653  
H   -3.4426173    1.3580936   -1.3465964  
C   -8.4180555    0.5280039   -2.9400579  
C   -7.9477362   -0.6827314   -3.3362841  
C   -9.0335062   -1.6236569   -3.1927611  
C  -10.1831899   -0.8563435   -2.6767678  
N   -9.7443781    0.4409553   -2.5450500  
C  -11.4029271   -1.3867314   -2.4072593  
C  -11.5962335   -2.8082225   -2.6407802  
O  -12.6577194   -3.3797553   -2.4288840  
C  -10.3923063   -3.6402614   -3.1867412  
O  -10.5430356   -4.8379517   -3.3869426  
C   -9.1263281   -2.9566074   -3.4392651  
H  -12.2330527   -0.8062234   -2.0293548  
H   -8.2977183   -3.5398114   -3.8174220  
H   -7.9072605    1.4764861   -2.9031877  
H  -10.3023329    1.2069589   -2.2149399  
C    3.3321173   -0.0004715    2.8079335  
C    2.6974184   -0.0000116    4.0032312  
C    1.2800439    0.0002118    3.6752840  
C    1.2395035   -0.0000644    2.1971295  
N    2.4394063   -0.0005460    1.6831036  
C    0.0000000    0.0000000    1.4700000  
C   -1.1468701   -0.0000635    2.1869543  
O   -2.3742202   -0.0000073    1.6395491  
C   -1.1388768   -0.0001607    3.6796354  
O   -2.2206231   -0.0000905    4.2670412  
C    0.1454524   -0.0001816    4.4024240  
H    3.1367986    0.0000651    4.9860947  
H   -2.9844344   -0.0001026    2.3990168  
H    0.1083576   -0.0003682    5.4835595  
H    4.3940039   -0.0007619    2.6198634  
