58

C    3.9404948   -0.7293556   -4.5163115  
C    4.0976527   -0.5146864   -5.8479622  
C    3.0657856    0.4119867   -6.2496620  
C    2.2890370    0.7218361   -5.0341601  
N    2.8699640   -0.0020532   -4.0185825  
C    1.2244920    1.5626418   -4.9954966  
C    0.8163866    2.2051407   -6.2337135  
O   -0.1297731    2.9786848   -6.3023652  
C    1.6244750    1.8913596   -7.5330744  
O    1.2900273    2.4261317   -8.5816083  
C    2.7534400    0.9681704   -7.4493442  
H    0.6684828    1.7763748   -4.0932320  
H    3.3078881    0.7563649   -8.3534737  
H    4.5165357   -1.3578517   -3.8567213  
C    3.2573669   -0.0002920   -1.5109380  
C    2.5379466   -0.0001708   -0.3591961  
C    1.1435042    0.0000330   -0.7338502  
C    1.1092605   -0.0000086   -2.2088474  
N    2.4227561    0.0001905   -2.6182611  
C   -0.0265534   -0.0002528   -2.9515662  
C   -1.3003036   -0.0002642   -2.2514981  
O   -2.3786785   -0.0004138   -2.8306424  
C   -1.2877727    0.0000310   -0.6895608  
O   -2.3539955    0.0003305   -0.0892036  
C    0.0000000    0.0000000    0.0000000  
H    2.9384091   -0.0000368    0.6389240  
H   -0.0296294   -0.0004092   -4.0327231  
H    4.3270392   -0.0004765   -1.6439446  
C    5.5899806   -2.3883615   -6.6854695  
C    5.1265464   -1.1170219   -6.7078869  
C    5.8702669   -0.4654611   -7.7750546  
C    6.7632313   -1.5187819   -8.3039346  
N    6.6033567   -2.6481845   -7.6692066  
C    7.6749203   -1.2703723   -9.3866175  
C    7.6934112   -0.0263550   -9.9171021  
O    8.4937002    0.3455730  -10.9306341  
C    6.8041646    1.0579224   -9.4054949  
O    6.8744324    2.1665036   -9.9359023  
C    5.8777245    0.7781832   -8.2940188  
H    8.3161681   -2.0587062   -9.7530060  
H    8.2791088    1.2833151  -11.0847216  
H    5.2501761    1.5904376   -7.9524693  
H    5.2901952   -3.1930926   -6.0331582  
C    2.3971438    2.0127888    3.1728260  
C    1.9431056    1.6308205    1.9564670  
C    0.8496017    0.7127664    2.2356185  
C    0.7794028    0.6545384    3.7115134  
N    1.6840587    1.4146091    4.2663826  
C   -0.1885723   -0.1578550    4.3957118  
C   -1.0476298   -0.8789867    3.6398520  
O   -2.0015663   -1.6796266    4.1448486  
C   -1.0022026   -0.8410666    2.1483229  
O   -1.8147390   -1.5232959    1.5241687  
C    0.0000000    0.0000000    1.4700000  
H    2.3054237    1.9346118    0.9892483  
H   -0.2170646   -0.1815267    5.4753125  
H   -2.4487139   -2.0549881    3.3649027  
H    3.2048689    2.6911772    3.3971983  
