58

C    3.2798082    0.0005858   -1.4499649  
C    2.5571137    0.0005567   -2.5996552  
C    1.1637431    0.0001548   -2.2210359  
C    1.1336961   -0.0000198   -0.7459469  
N    2.4483510   -0.0001427   -0.3402720  
C    0.0000000    0.0000000    0.0000000  
C   -1.2757370   -0.0000185   -0.6964410  
O   -2.3524599   -0.0000639   -0.1142304  
C   -1.2676503   -0.0000871   -2.2584075  
O   -2.3355769   -0.0004099   -2.8557292  
C    0.0181550    0.0001761   -2.9516292  
H    0.0150784    0.0003321   -4.0331628  
H    4.3498543    0.0008611   -1.3200023  
H    2.7563624    0.0012824    0.6148062  
C    5.9736421   -2.1043581   -4.3829125  
C    5.8838281   -1.6403860   -5.6559947  
C    4.7509375   -0.7462250   -5.6992520  
C    4.1840549   -0.7271401   -4.3372425  
N    4.9705824   -1.5712078   -3.5877003  
C    3.1006047    0.0006266   -3.9654948  
C    2.4492212    0.8196160   -4.9742027  
O    1.4668583    1.5107655   -4.7384560  
C    3.0324348    0.8144456   -6.4232161  
O    2.4922716    1.4997916   -7.2809954  
C    4.2049261   -0.0107540   -6.7027917  
H    4.6026936   -0.0086080   -7.7085258  
H    6.6880799   -2.7910788   -3.9587865  
H    4.8377537   -1.7678914   -2.6126523  
C    7.3015064   -3.2002658   -7.0688226  
C    6.7760450   -1.9891668   -6.7709843  
C    7.2866004   -1.0956308   -7.7992961  
C    8.1265229   -1.9575349   -8.6585027  
N    8.1390313   -3.1923351   -8.2352989  
C    8.8204007   -1.4422015   -9.8065670  
C    8.6812014   -0.1257521  -10.0839099  
O    9.2712603    0.4888050  -11.1232319  
C    7.8403047    0.7699192   -9.2360746  
O    7.7590447    1.9579687   -9.5477735  
C    7.1385898    0.2174482   -8.0637707  
H    9.4275614   -2.0948583  -10.4167348  
H    8.9846891    1.4176135  -11.0573217  
H    6.5393084    0.8991798   -7.4752690  
H    7.1627081   -4.1317942   -6.5435003  
C    2.3971438    2.0127888    3.1728260  
C    1.9431056    1.6308205    1.9564670  
C    0.8496017    0.7127664    2.2356185  
C    0.7794028    0.6545384    3.7115134  
N    1.6840587    1.4146091    4.2663826  
C   -0.1885723   -0.1578550    4.3957118  
C   -1.0476298   -0.8789867    3.6398520  
O   -2.0015663   -1.6796266    4.1448486  
C   -1.0022026   -0.8410666    2.1483229  
O   -1.8147390   -1.5232959    1.5241687  
C    0.0000000    0.0000000    1.4700000  
H    2.3054237    1.9346118    0.9892483  
H   -0.2170646   -0.1815267    5.4753125  
H   -2.4487139   -2.0549881    3.3649027  
H    3.2048689    2.6911772    3.3971983  
