62

C    3.3041269    0.0001175   -1.5420426  
C    2.5845369   -0.0004781   -0.3695850  
C    1.2040006   -0.0000009   -0.7283587  
C    1.1422370    0.0006035   -2.1454368  
N    2.4348637    0.0026106   -2.6077462  
C   -0.0655187    0.0008795   -2.8497912  
C   -1.2321773    0.0002320   -2.1101394  
O   -2.4392815    0.0001144   -2.7472514  
C   -1.1911212   -0.0000008   -0.6955259  
O   -2.4371528   -0.0002320   -0.1032851  
C    0.0000000    0.0000000    0.0000000  
H    3.0031534   -0.0000661    0.6222590  
H   -0.1193551    0.0014838   -3.9297465  
H   -3.1132990   -0.0000651   -2.0551779  
H   -2.3200282   -0.0004068    0.8516418  
H    4.3686618    0.0004068   -1.7024290  
C    3.8860205   -0.7395034   -4.5524246  
C    3.9939097   -0.5373191   -5.8909151  
C    2.9441499    0.3812270   -6.2638935  
C    2.2105942    0.6999140   -5.0240848  
N    2.8310659   -0.0116225   -4.0232749  
C    1.1445016    1.5367990   -4.9549937  
C    0.6890266    2.1654498   -6.1837640  
O   -0.2623538    2.9344941   -6.2255532  
C    1.4508807    1.8421321   -7.5084711  
O    1.0763534    2.3652224   -8.5493195  
C    2.5861428    0.9243289   -7.4567932  
H    0.6206116    1.7571749   -4.0352745  
H    3.1083965    0.7058561   -8.3783375  
H    4.4883010   -1.3591735   -3.9080980  
C    5.4377686   -2.4432774   -6.7051820  
C    6.3813188   -2.6585414   -7.6828539  
C    6.5283270   -1.4324564   -8.3967897  
C    5.6416831   -0.4970546   -7.8044948  
N    4.9935929   -1.1439695   -6.7817060  
C    5.5215612    0.8210840   -8.2549040  
C    6.3111003    1.2019642   -9.3224883  
O    6.2339343    2.4774735   -9.8022143  
C    7.2015447    0.2830177   -9.9270220  
O    7.9184631    0.8139804  -10.9793769  
C    7.3203730   -1.0175928   -9.4833791  
H    6.8990634   -3.5855847   -7.8604032  
H    4.8475889    1.5388185   -7.8078898  
H    6.8586493    2.5310371  -10.5371468  
H    8.4952155    0.1288460  -11.3308756  
H    8.0109789   -1.6988484   -9.9665279  
H    5.0454354   -3.1141699   -5.9602410  
C    2.5528530    2.1414826    2.8079335  
C    2.0663498    1.7338582    4.0032312  
C    0.9804344    0.8229586    3.6752840  
C    0.9495562    0.7966882    2.1971295  
N    1.8690446    1.5676019    1.6831036  
C    0.0000000    0.0000000    1.4700000  
C   -0.8785127   -0.7372425    2.1869543  
O   -1.8187535   -1.5261249    1.6395491  
C   -0.8723269   -0.7321790    3.6796354  
O   -1.7010379   -1.4274584    4.2670412  
C    0.1115397    0.0933559    4.4024240  
H    2.4028853    2.0163452    4.9860947  
H   -2.2861435   -1.9184361    2.3990168  
H    0.0832434    0.0693689    5.4835595  
H    3.3664920    2.8238276    2.6198634  
