58

C    2.0060354   -2.0933383   -5.2079945  
C    1.0681402   -1.6309437   -4.3416125  
C    0.2140994   -0.7346502   -5.0846522  
C    0.7350363   -0.7126398   -6.4648444  
N    1.8215798   -1.5565851   -6.4731476  
C    0.2009228    0.0171136   -7.4767173  
C   -0.9646764    0.8356538   -7.1870526  
O   -1.5183200    1.5285628   -8.0306497  
C   -1.5330618    0.8277887   -5.7321706  
O   -2.5138748    1.5132038   -5.4762938  
C   -0.8712826    0.0001710   -4.7267111  
H    0.9842756   -1.8882189   -3.3007524  
H    0.5983678    0.0189967   -8.4821751  
H    2.3914344   -1.7539297   -7.2752499  
C    3.1114194   -3.0309915   -4.9633881  
C    3.4607361   -3.6609259   -3.8121994  
C    4.6184301   -4.4707844   -4.1100424  
C    4.9171007   -4.2594926   -5.5393580  
N    3.9669066   -3.3767347   -5.9984446  
C    5.9409810   -4.8498325   -6.2063437  
C    6.8064497   -5.7538053   -5.4672006  
O    7.7552728   -6.3342264   -5.9782259  
C    6.5085538   -5.9925288   -3.9525805  
O    7.2301856   -6.7517206   -3.3200166  
C    5.3759908   -5.2989203   -3.3442548  
H    2.9639849   -3.5689232   -2.8627853  
H    6.1427828   -4.6811403   -7.2550233  
H    5.1766139   -5.4694694   -2.2950240  
H    3.9056801   -3.0346087   -6.9398526  
C    1.0965514    0.0001359   -0.8010305  
C    0.0000000    0.0000000    0.0000000  
C   -1.1546563    0.0001470   -0.8669513  
C   -0.6372014    0.0003519   -2.2486282  
N    0.7342871    0.0007337   -2.1395014  
C   -1.4147739    0.0001352   -3.3608717  
C   -2.8576049   -0.0001048   -3.1854462  
O   -3.6427779   -0.0002494   -4.1244907  
C   -3.4275840   -0.0000725   -1.7311666  
O   -4.6406831    0.0000333   -1.5710060  
C   -2.4891867   -0.0001091   -0.6116744  
H   -2.8919122   -0.0002918    0.3920866  
H    2.1388272    0.0000663   -0.5261648  
H    1.3735872   -0.0006099   -2.9130262  
C    0.0000000    0.0000000    1.4700000  
C    1.0662921    0.0000102    2.3034270  
C    0.4961870   -0.0000064    3.6418889  
C   -0.9663858    0.0000850    3.4240247  
N   -1.2632773    0.0000084    2.1528658  
C   -1.8985362    0.0000517    4.5177257  
C   -1.3925775   -0.0004564    5.7720543  
O   -2.1456383   -0.0005410    6.8851312  
C    0.0786232   -0.0009323    6.0245000  
O    0.4683759   -0.0012588    7.1921102  
C    1.0143166   -0.0008442    4.8859032  
H    2.1107198   -0.0000632    2.0421868  
H   -2.9622183    0.0003270    4.3293377  
H   -1.5042274   -0.0009692    7.6184419  
H    2.0724152   -0.0013148    5.1109744  
