60

C    3.3003542    0.0005278   -1.4738987  
C    2.5232813    0.0003500   -2.6090747  
C    1.1623198   -0.0001315   -2.1820098  
C    1.1711882    0.0000585   -0.7636139  
N    2.4852299   -0.0014917   -0.3662356  
C    0.0000000    0.0000000    0.0000000  
C   -1.2020384    0.0000521   -0.6806476  
O   -2.3759250    0.0003495    0.0157752  
C   -1.2314658   -0.0005109   -2.0955504  
O   -2.5054390   -0.0008033   -2.6250178  
C   -0.0764517   -0.0007269   -2.8495190  
H    2.8919952   -0.0005615   -3.6205299  
H    2.8036264    0.0088181    0.5858664  
H   -3.0835640    0.0000349   -0.6418814  
H   -2.4360049   -0.0011521   -3.5845916  
H    4.3715550    0.0004897   -1.3667131  
C    2.2697430   -2.0933922   -5.9499304  
C    1.7761646   -1.6308841   -4.7724154  
C    0.6896457   -0.7359131   -5.0938791  
C    0.5899536   -0.7148023   -6.5657504  
N    1.5756958   -1.5579527   -7.0243341  
C   -0.3170961    0.0136149   -7.2645882  
C   -1.2578065    0.8315636   -6.5172203  
O   -2.1126588    1.5232787   -7.0548617  
C   -1.1702524    0.8246329   -4.9577036  
O   -1.9567839    1.5095616   -4.3177804  
C   -0.1496416   -0.0015606   -4.3176956  
H    2.1326581   -1.8872530   -3.7906820  
H    3.0822591   -2.7801820   -6.1232168  
H    1.7609408   -1.7556229   -7.9905940  
C   -0.2436757   -1.0633931   -9.5437691  
C   -0.3936250    0.0153025   -8.7325936  
C   -0.6402805    1.1531709   -9.5865569  
C   -0.6216337    0.6453190  -10.9716656  
N   -0.3760403   -0.7050749  -10.8767467  
C   -0.8155573    1.4121375  -12.0744294  
C   -1.0586577    2.8324716  -11.8844606  
O   -1.2448209    3.6065874  -12.8141856  
C   -1.0824651    3.3919960  -10.4263207  
O   -1.2858960    4.5862194  -10.2539641  
C   -0.8603241    2.4667803   -9.3179513  
H   -0.7980143    1.0197315  -13.0817126  
H   -0.8785856    2.8621102   -8.3114208  
H   -0.0473963   -2.0899210   -9.2799428  
H   -0.3059748   -1.3338618  -11.6556973  
C    0.0000000    0.0000000    1.4700000  
C    1.0662921    0.0000102    2.3034270  
C    0.4961870   -0.0000064    3.6418889  
C   -0.9663858    0.0000850    3.4240247  
N   -1.2632773    0.0000084    2.1528658  
C   -1.8985362    0.0000517    4.5177257  
C   -1.3925775   -0.0004564    5.7720543  
O   -2.1456383   -0.0005410    6.8851312  
C    0.0786232   -0.0009323    6.0245000  
O    0.4683759   -0.0012588    7.1921102  
C    1.0143166   -0.0008442    4.8859032  
H    2.1107198   -0.0000632    2.0421868  
H   -2.9622183    0.0003270    4.3293377  
H   -1.5042274   -0.0009692    7.6184419  
H    2.0724152   -0.0013148    5.1109744  
