58

C    3.2573673   -0.0002917   -1.5109377  
C    2.5379468   -0.0001707   -0.3591959  
C    1.1435046    0.0000331   -0.7338499  
C    1.1092609   -0.0000082   -2.2088471  
N    2.4227566    0.0001911   -2.6182607  
C   -0.0265527   -0.0002523   -2.9515661  
C   -1.3003032   -0.0002640   -2.2514977  
O   -2.3786784   -0.0004133   -2.8306429  
C   -1.2877727    0.0000311   -0.6895607  
O   -2.3539950    0.0003303   -0.0892036  
C    0.0000000    0.0000000    0.0000000  
H    2.9384091   -0.0000367    0.6389243  
H   -0.0296287   -0.0004085   -4.0327233  
H    4.3270397   -0.0004762   -1.6439437  
C    5.7077630   -2.0955287   -4.6950671  
C    4.8321771   -1.6318727   -3.7663859  
C    3.9281504   -0.7371772   -4.4498268  
C    4.3518510   -0.7174787   -5.8629368  
N    5.4355537   -1.5611007   -5.9452787  
C    3.7483574    0.0102945   -6.8365106  
C    2.6053650    0.8289911   -6.4679470  
O    1.9941043    1.5202159   -7.2722292  
C    2.1395175    0.8235572   -4.9770536  
O    1.1785724    1.5091258   -4.6548099  
C    2.8699646   -0.0020524   -4.0185822  
H    4.8209993   -1.8873086   -2.7217615  
H    4.0749288    0.0104993   -7.8671710  
H    6.5291178   -2.7825099   -4.5712820  
C    7.1512082   -5.2900302   -7.5057120  
C    7.6895139   -4.8232240   -8.6617370  
C    7.4009296   -3.4096545   -8.7198406  
C    6.6449764   -3.0888869   -7.4941026  
N    6.5269888   -4.2717110   -6.8013576  
C    6.1867132   -1.8520267   -7.1749218  
C    6.4558064   -0.7641668   -8.1004946  
O    6.0850302    0.3855368   -7.9029911  
C    7.2544509   -1.0810773   -9.4049247  
O    7.4867682   -0.1733184  -10.1918583  
C    7.6963603   -2.4535902   -9.6389701  
H    8.2272135   -5.4029998   -9.3906763  
H    8.2489403   -2.6646487  -10.5444168  
H    7.1578121   -6.2923294   -7.1091733  
H    6.0611210   -4.3783452   -5.9189498  
C    0.8175213    0.6860729    2.3021913  
C    0.0000000    0.0000000    1.4700000  
C   -0.8887526   -0.7456559    2.3478473  
C   -0.4549825   -0.3816753    3.7138435  
N    0.5448156    0.4573574    3.6934124  
C   -1.0945674   -0.9182058    4.8835240  
C   -2.1210866   -1.7789155    4.6970523  
O   -2.8083856   -2.3554314    5.6976972  
C   -2.5824069   -2.1655116    3.3310774  
O   -3.5227682   -2.9541547    3.2362962  
C   -1.9100805   -1.6015804    2.1470656  
H   -0.7567140   -0.6349833    5.8697035  
H   -3.4728268   -2.9124471    5.2533954  
H   -2.2742832   -1.9066565    1.1752040  
H    1.6189533    1.3585343    2.0405121  
