62

C    0.0000000    0.0000000    0.0000000  
C    0.7161582    0.7708264   -0.8862346  
C    0.3351591    0.3598042   -2.1979133  
C   -0.6248125   -0.6735721   -2.0478680  
N   -0.8037548   -0.8684587   -0.7007909  
C   -1.2211550   -1.3158350   -3.1372086  
C   -0.8417204   -0.9072625   -4.4010424  
O   -1.3930090   -1.5004907   -5.4997571  
C    0.1147669    0.1218130   -4.5711966  
O    0.3872139    0.4146758   -5.8915555  
C    0.7036837    0.7556762   -3.4969895  
H    1.4266810    1.5345665   -0.6200570  
H   -1.4344378   -1.5323841   -0.2891820  
H   -1.9533290   -2.1042084   -3.0295504  
H   -0.9953892   -1.0728501   -6.2693589  
H    1.0419248    1.1191314   -5.9180051  
C    4.4678147    1.7097850   -1.4465424  
C    4.8456965    2.7981262   -2.1654262  
C    3.8269733    3.0168504   -3.1650256  
C    2.8173639    1.9591569   -2.9681412  
N    3.2650980    1.2000144   -1.9116725  
C    1.6934786    1.8202155   -3.7159930  
C    1.4629351    2.7760666   -4.7863826  
O    0.4805698    2.7354962   -5.5155011  
C    2.5191224    3.9043025   -5.0130032  
O    2.3359316    4.7146442   -5.9113624  
C    3.6907669    3.9513943   -4.1418640  
H    4.4172311    4.7357963   -4.3052256  
H    4.9668776    1.2371155   -0.6162355  
H    2.7901917    0.4001999   -1.5350985  
C    8.9948041    1.6300498   -1.1757883  
C    9.5323270    2.8960891   -1.1497033  
C    8.4732291    3.8042806   -1.4465186  
C    7.3029075    3.0280440   -1.6458422  
N    7.6552187    1.7121238   -1.4759945  
C    6.0633189    3.5949206   -1.9570662  
C    6.0040194    4.9704835   -2.0688163  
O    4.8186127    5.5760652   -2.3706373  
C    7.1608708    5.7620177   -1.8739136  
O    6.9391313    7.1158513   -2.0198922  
C    8.3841435    5.2034380   -1.5671266  
H   10.5614479    3.1354995   -0.9433396  
H    7.0294280    0.9301364   -1.5457299  
H    4.9966202    6.5251154   -2.4003388  
H    7.7700259    7.5778049   -1.8721899  
H    9.2528636    5.8352758   -1.4236557  
H    9.4612878    0.6748935   -1.0054115  
C    0.0000000    0.0000000    1.4700000  
C    1.0662921    0.0000102    2.3034270  
C    0.4961870   -0.0000064    3.6418889  
C   -0.9663858    0.0000850    3.4240247  
N   -1.2632773    0.0000084    2.1528658  
C   -1.8985362    0.0000517    4.5177257  
C   -1.3925775   -0.0004564    5.7720543  
O   -2.1456383   -0.0005410    6.8851312  
C    0.0786232   -0.0009323    6.0245000  
O    0.4683759   -0.0012588    7.1921102  
C    1.0143166   -0.0008442    4.8859032  
H    2.1107198   -0.0000632    2.0421868  
H   -2.9622183    0.0003270    4.3293377  
H   -1.5042274   -0.0009692    7.6184419  
H    2.0724152   -0.0013148    5.1109744  
