58

C    3.2798085    0.0005855   -1.4499650  
C    2.5571144    0.0005564   -2.5996555  
C    1.1637431    0.0001547   -2.2210361  
C    1.1336962   -0.0000200   -0.7459473  
N    2.4483513   -0.0001429   -0.3402721  
C    0.0000000    0.0000000    0.0000000  
C   -1.2757373   -0.0000187   -0.6964413  
O   -2.3524598   -0.0000639   -0.1142312  
C   -1.2676499   -0.0000875   -2.2584083  
O   -2.3355768   -0.0004101   -2.8557296  
C    0.0181559    0.0001759   -2.9516295  
H    0.0150787    0.0003318   -4.0331632  
H    4.3498548    0.0008611   -1.3200022  
H    2.7563625    0.0012823    0.6148062  
C    5.9694204   -2.1380315   -4.2640192  
C    5.9589005   -1.7308767   -5.5546367  
C    4.8277508   -0.8211674   -5.6517374  
C    4.2525276   -0.7950004   -4.2897470  
N    4.9176042   -1.5649437   -3.4719146  
C    3.1006054    0.0006260   -3.9654952  
C    2.5486622    0.7369524   -4.9567147  
O    1.4718513    1.5247915   -4.7960058  
C    3.1062918    0.7319662   -6.3413396  
O    2.5527676    1.4263769   -7.1937628  
C    4.2885179   -0.0924701   -6.6488626  
H    1.3179703    1.9166331   -5.6746031  
H    4.6619214   -0.0684624   -7.6638622  
H    6.6565703   -2.8195051   -3.7882127  
C    7.8296423   -5.5795487   -6.6429747  
C    7.1065589   -4.6002544   -6.0411372  
C    7.3428479   -3.3851729   -6.7844942  
C    8.2694846   -3.7393910   -7.8765859  
N    8.5261352   -5.0835869   -7.7346069  
C    8.7365169   -2.8643994   -8.8028554  
C    8.2973905   -1.4814404   -8.7184286  
O    8.6617023   -0.6176642   -9.5054925  
C    7.3163440   -1.0839425   -7.5697996  
O    6.9399894    0.0775210   -7.4884342  
C    6.8824114   -2.1160252   -6.6315253  
H    6.4793879   -4.7158437   -5.1751638  
H    9.4156214   -3.1448050   -9.5960130  
H    7.9124766   -6.6217877   -6.3807412  
H    9.1253420   -5.6218806   -8.3331361  
C    0.0000000    0.0000000    1.4700000  
C    1.0662921    0.0000102    2.3034270  
C    0.4961870   -0.0000064    3.6418889  
C   -0.9663858    0.0000850    3.4240247  
N   -1.2632773    0.0000084    2.1528658  
C   -1.8985362    0.0000517    4.5177257  
C   -1.3925775   -0.0004564    5.7720543  
O   -2.1456383   -0.0005410    6.8851312  
C    0.0786232   -0.0009323    6.0245000  
O    0.4683759   -0.0012588    7.1921102  
C    1.0143166   -0.0008442    4.8859032  
H    2.1107198   -0.0000632    2.0421868  
H   -2.9622183    0.0003270    4.3293377  
H   -1.5042274   -0.0009692    7.6184419  
H    2.0724152   -0.0013148    5.1109744  
