58

C    0.0950458    0.0004351   -4.4015596  
C    1.1321318    0.0015826   -5.2710601  
C    0.5164654    0.0012879   -6.5891858  
C   -0.9377758   -0.0002320   -6.3212977  
N   -1.1909034   -0.0006569   -5.0407054  
C   -1.9068813   -0.0008965   -7.3823915  
C   -1.4442324    0.0003091   -8.6533318  
O   -2.2350180   -0.0001305   -9.7399317  
C    0.0174455    0.0022277   -8.9560775  
O    0.3669303    0.0031262  -10.1363655  
C    0.9916314    0.0028330   -7.8502353  
H    2.1849028    0.0026042   -5.0457875  
H   -2.9634770   -0.0022158   -7.1576401  
H   -1.6191310    0.0010343  -10.4948048  
H    2.0413888    0.0043486   -8.1114562  
C    3.3321177    0.0004714   -1.3379329  
C    2.6974191    0.0000116   -2.5332309  
C    1.2800443   -0.0002118   -2.2052838  
C    1.2395035    0.0000643   -0.7271296  
N    2.4394066    0.0005460   -0.2131032  
C    0.0000000    0.0000000    0.0000000  
C   -1.1468697    0.0000634   -0.7169547  
O   -2.3742196    0.0000072   -0.1695495  
C   -1.1388763    0.0001605   -2.2096359  
O   -2.2206227    0.0000904   -2.7970417  
C    0.1454530    0.0001814   -2.9324241  
H    3.1367996   -0.0000651   -3.5160943  
H   -2.9844343    0.0001024   -0.9290175  
C    6.6781273    0.0000526   -4.1292974  
C    7.7444193    0.0009685   -3.2958707  
C    7.1743141    0.0014029   -1.9574089  
C    5.7117416    0.0007371   -2.1752728  
N    5.4148501   -0.0001364   -3.4464315  
C    4.7795907    0.0008674   -1.0815719  
C    5.2855493    0.0012393    0.1727567  
O    4.5324890    0.0014072    1.2858336  
C    6.7567505    0.0015425    0.4252026  
O    7.1465030    0.0019994    1.5928126  
C    7.6924437    0.0014450   -0.7133942  
H    8.7888473    0.0012172   -3.5571108  
H    5.1738997    0.0016454    2.0191443  
H    8.7505431    0.0015575   -0.4883227  
H    6.6781277   -0.0005128   -5.2077095  
C    0.0000000    0.0000000    1.4700000  
C    1.0541688    0.0001722    2.3260392  
C    0.5103138    0.0000454    3.6635956  
C   -0.9576371   -0.0002459    3.5155732  
N   -1.2018458    0.0001392    2.1615969  
C   -1.8348311   -0.0008317    4.5510609  
C   -1.2972847   -0.0009736    5.9014604  
O   -2.0050672   -0.0014265    6.9001319  
C    0.2542623   -0.0004184    6.0817573  
O    0.7184670   -0.0002256    7.2139121  
C    1.0974552   -0.0000873    4.8889129  
H    2.0940752    0.0005483    2.0517982  
H   -2.9081052   -0.0011668    4.4207061  
H    2.1707277    0.0000911    5.0223670  
H   -2.1128194   -0.0014912    1.7406791  
