60

C    3.3041273    0.0001179   -1.5420430  
C    2.5845371   -0.0004779   -0.3695859  
C    1.2040005   -0.0000007   -0.7283590  
C    1.1422373    0.0006038   -2.1454373  
N    2.4348640    0.0026111   -2.6077467  
C   -0.0655182    0.0008798   -2.8497918  
C   -1.2321770    0.0002324   -2.1101398  
O   -2.4392816    0.0001148   -2.7472518  
C   -1.1911211   -0.0000007   -0.6955265  
O   -2.4371525   -0.0002320   -0.1032864  
C    0.0000000    0.0000000    0.0000000  
H    3.0031536   -0.0000659    0.6222578  
H    2.7054629   -0.0071097   -3.5745262  
H   -3.1132988   -0.0000647   -2.0551787  
H   -2.3200281   -0.0004071    0.8516404  
H    4.3686621    0.0004072   -1.7024296  
C    2.2805262   -2.0884668   -5.9525543  
C    1.7869811   -1.6272474   -4.7745199  
C    0.7005263   -0.7318378   -5.0949771  
C    0.6008356   -0.7090651   -6.5668237  
N    1.5865173   -1.5517700   -7.0263552  
C   -0.3061620    0.0202024   -7.2648420  
C   -1.2468136    0.8373778   -6.5165548  
O   -2.1016165    1.5297582   -7.0534181  
C   -1.1592599    0.8286875   -4.9570470  
O   -1.9457422    1.5129527   -4.3163540  
C   -0.1387083    0.0017019   -4.3179684  
H    2.1434564   -1.8847454   -3.7930755  
H    3.0929929   -2.7751195   -6.1266129  
H    1.7717481   -1.7483671   -7.9928368  
C   -0.2328190   -1.0542479   -9.5452323  
C   -0.3826909    0.0235458   -8.7328446  
C   -0.6292649    1.1623913   -9.5855281  
C   -0.6106547    0.6560955  -10.9712069  
N   -0.3651581   -0.6944218  -10.8778062  
C   -0.8045233    1.4241672  -12.0731078  
C   -1.0475219    2.8443043  -11.8815423  
O   -1.2336297    3.6194781  -12.8103964  
C   -1.0712890    3.4021907  -10.4227743  
O   -1.2746344    4.5962342  -10.2490752  
C   -0.8492142    2.4757137   -9.3154458  
H   -0.7870087    1.0328926  -13.0808315  
H   -0.8674474    2.8699130   -8.3084715  
H   -0.0366131   -2.0810857   -9.2825603  
H   -0.2951376   -1.3223377  -11.6574632  
C    0.8175213    0.6860729    2.3021913  
C    0.0000000    0.0000000    1.4700000  
C   -0.8887526   -0.7456559    2.3478473  
C   -0.4549825   -0.3816753    3.7138435  
N    0.5448156    0.4573574    3.6934124  
C   -1.0945674   -0.9182058    4.8835240  
C   -2.1210866   -1.7789155    4.6970523  
O   -2.8083856   -2.3554314    5.6976972  
C   -2.5824069   -2.1655116    3.3310774  
O   -3.5227682   -2.9541547    3.2362962  
C   -1.9100805   -1.6015804    2.1470656  
H   -0.7567140   -0.6349833    5.8697035  
H   -3.4728268   -2.9124471    5.2533954  
H   -2.2742832   -1.9066565    1.1752040  
H    1.6189533    1.3585343    2.0405121  
