58

C    2.5049806   -2.0931565   -5.9399561  
C    1.9571820   -1.6308521   -4.7865848  
C    0.8879546   -0.7344215   -5.1580690  
C    0.8574975   -0.7122319   -6.6329826  
N    1.8627391   -1.5562152   -7.0453792  
C   -0.0149277    0.0176855   -7.3731166  
C   -0.9887732    0.8362264   -6.6701578  
O   -1.8166674    1.5292762   -7.2468494  
C   -0.9745395    0.8281733   -5.1082557  
O   -1.7894804    1.5135872   -4.5054785  
C    0.0139741    0.0003876   -4.4216236  
H    2.2669046   -1.8882735   -3.7893789  
H   -0.0204604    0.0196986   -8.4542617  
H    2.0929225   -1.7534655   -8.0020166  
C    4.3378323   -3.6282905   -5.1374465  
C    3.6218743   -3.0308848   -6.1246574  
C    4.1677328   -3.4927002   -7.3790896  
C    5.2682636   -4.4147592   -7.0393412  
N    5.3197424   -4.4530723   -5.6650149  
C    6.0371425   -5.0630819   -7.9504983  
C    5.7625768   -4.8375125   -9.3598476  
O    6.3991631   -5.3746944  -10.2567841  
C    4.6018979   -3.8648131   -9.7425830  
O    4.3616231   -3.6668434  -10.9259415  
C    3.8430795   -3.2247506   -8.6709640  
H    6.8395078   -5.7354171   -7.6801575  
H    3.0409218   -2.5528037   -8.9443773  
H    4.2308931   -3.5352458   -4.0688982  
H    5.9691270   -4.9979855   -5.1279712  
C    3.2798085    0.0005853   -1.4499648  
C    2.5571144    0.0005562   -2.5996554  
C    1.1637436    0.0001546   -2.2210360  
C    1.1336965   -0.0000201   -0.7459470  
N    2.4483513   -0.0001430   -0.3402717  
C    0.0000000    0.0000000    0.0000000  
C   -1.2757367   -0.0000188   -0.6964414  
O   -2.3524597   -0.0000640   -0.1142313  
C   -1.2676494   -0.0000875   -2.2584081  
O   -2.3355762   -0.0004102   -2.8557294  
C    0.0181562    0.0001757   -2.9516296  
H    2.9547357    0.0006072   -3.5989105  
H    4.3498550    0.0008609   -1.3200021  
H    2.7563627    0.0012824    0.6148063  
C    2.3971438    2.0127888    3.1728260  
C    1.9431056    1.6308205    1.9564670  
C    0.8496017    0.7127664    2.2356185  
C    0.7794028    0.6545384    3.7115134  
N    1.6840587    1.4146091    4.2663826  
C   -0.1885723   -0.1578550    4.3957118  
C   -1.0476298   -0.8789867    3.6398520  
O   -2.0015663   -1.6796266    4.1448486  
C   -1.0022026   -0.8410666    2.1483229  
O   -1.8147390   -1.5232959    1.5241687  
C    0.0000000    0.0000000    1.4700000  
H    2.3054237    1.9346118    0.9892483  
H   -0.2170646   -0.1815267    5.4753125  
H   -2.4487139   -2.0549881    3.3649027  
H    3.2048689    2.6911772    3.3971983  
