62

C   -2.3384684    2.3289293   -1.4738969  
C   -1.7878354    1.7806179   -2.6090736  
C   -0.8233392    0.8204289   -2.1820096  
C   -0.8297556    0.8265529   -0.7636135  
N   -1.7595778    1.7550665   -0.3662344  
C    0.0000000    0.0000000    0.0000000  
C    0.8515323   -0.8484033   -0.6806486  
O    1.6829481   -1.6771118    0.0157736  
C    0.8727765   -0.8687728   -2.0955513  
O    1.7755135   -1.7677020   -2.6250193  
C    0.0546735   -0.0534416   -2.8495193  
H   -1.9924181    1.9724778    0.5858680  
H    2.1844879   -2.1763216   -0.6418827  
H    1.7265695   -1.7184494   -3.5845931  
H    0.0933326   -0.0910876   -3.9319087  
H   -3.0973204    3.0849809   -1.3667116  
C   -2.7047908    5.6927134   -4.5697779  
C   -2.3795324    4.7156299   -3.6576475  
C   -2.3883568    3.4729085   -4.3577660  
C   -2.7284159    3.7567414   -5.7052545  
N   -2.9157328    5.1134710   -5.7991394  
C   -2.8305100    2.7641923   -6.6846478  
C   -2.5845438    1.4614178   -6.2967598  
O   -2.6700182    0.4532470   -7.2128923  
C   -2.2442636    1.1581952   -4.9569526  
O   -2.0298676   -0.1853519   -4.7283483  
C   -2.1436289    2.1368304   -3.9901688  
H   -2.1636647    4.8784084   -2.6155835  
H   -3.1556949    5.6094960   -6.6384002  
H   -3.0894239    2.9739670   -7.7133171  
H   -2.4640237   -0.3635870   -6.7400140  
H   -1.8052285   -0.3039273   -3.8004039  
C   -2.2702857    8.5285799   -1.1589852  
C   -2.2962930    7.3831446   -1.8793187  
C   -2.6541448    7.7960313   -3.2276385  
C   -2.8113906    9.2636602   -3.1386256  
N   -2.5875466    9.6988125   -1.9284499  
C   -3.1683632   10.0611916   -4.2795030  
C   -3.3591797    9.4216817   -5.4559170  
O   -3.6953376   10.0403253   -6.6006082  
C   -3.2075728    7.9417157   -5.5778915  
O   -3.3965881    7.4265557   -6.6797553  
C   -2.8408071    7.1457031   -4.3930830  
H   -2.0971377    6.3817253   -1.5378916  
H   -3.2766859   11.1318758   -4.1856274  
H   -3.7589010    9.3254125   -7.2594048  
H   -2.0455632    8.6491921   -0.1111655  
C    0.8175213    0.6860729    2.3021913  
C    0.0000000    0.0000000    1.4700000  
C   -0.8887526   -0.7456559    2.3478473  
C   -0.4549825   -0.3816753    3.7138435  
N    0.5448156    0.4573574    3.6934124  
C   -1.0945674   -0.9182058    4.8835240  
C   -2.1210866   -1.7789155    4.6970523  
O   -2.8083856   -2.3554314    5.6976972  
C   -2.5824069   -2.1655116    3.3310774  
O   -3.5227682   -2.9541547    3.2362962  
C   -1.9100805   -1.6015804    2.1470656  
H   -0.7567140   -0.6349833    5.8697035  
H   -3.4728268   -2.9124471    5.2533954  
H   -2.2742832   -1.9066565    1.1752040  
H    1.6189533    1.3585343    2.0405121  
