64

C    4.6027284   -2.0944968   -2.9150973  
C    3.4411565   -1.6373420   -2.3369735  
C    2.8377886   -0.7405118   -3.2676953  
C    3.6836207   -0.6899843   -4.4052108  
N    4.7469282   -1.5221609   -4.1572675  
C    3.3988813    0.0972714   -5.5250056  
C    2.2389987    0.8469468   -5.4960815  
O    1.9125736    1.6330028   -6.5631221  
C    1.3824833    0.8101280   -4.3700960  
O    0.2670645    1.6125636   -4.4937160  
C    1.6628945    0.0339172   -3.2649299  
H    3.0744456   -1.9151390   -1.3636567  
H    4.0395082    0.1402698   -6.3950344  
H    1.0776865    2.0643813   -6.3391998  
H   -0.2575671    1.5298016   -3.6915214  
H    5.3404960   -2.7824368   -2.5390701  
C    6.4577093   -3.0014677   -5.2821314  
C    7.4692147   -2.8666024   -6.2047005  
C    7.4974884   -1.4946493   -6.5939888  
C    6.4716968   -0.8352232   -5.8695346  
N    5.8586846   -1.7794897   -5.0839183  
C    6.2103750    0.5317653   -6.0031090  
C    6.9991487    1.2461396   -6.8838383  
O    6.7872202    2.5839216   -7.0524766  
C    8.0272665    0.6059756   -7.6159457  
O    8.7245065    1.4532832   -8.4521701  
C    8.2854521   -0.7426113   -7.4848749  
H    8.1073874   -3.6597397   -6.5549321  
H    5.4299553    1.0402603   -5.4539471  
H    7.4368068    2.8835668   -7.7017191  
H    9.3996641    0.9422079   -8.9088612  
H    9.0796174   -1.2053054   -8.0590649  
H    6.1152189   -3.8729219   -4.7508808  
C    1.1243410    0.0100105   -0.7919003  
C    0.7474072    0.0234665   -2.1148542  
C   -0.6787384    0.0234379   -2.1414698  
C   -1.1201748    0.0098411   -0.7935547  
N    0.0000000    0.0000000    0.0000000  
C   -2.4730818    0.0063307   -0.4408240  
C   -3.3971962    0.0170429   -1.4675058  
O   -4.7313520    0.0145490   -1.1793468  
C   -2.9763654    0.0303020   -2.8186325  
O   -4.0166484    0.0394464   -3.7247625  
C   -1.6418567    0.0334992   -3.1673480  
H   -2.8160166   -0.0041569    0.5845966  
H   -5.1938823    0.0230023   -2.0274386  
H   -3.6464680    0.0481700   -4.6127343  
H   -1.3497475    0.0435647   -4.2109234  
H    2.1062466    0.0053162   -0.3505405  
C    2.3971438    2.0127888    3.1728260  
C    1.9431056    1.6308205    1.9564670  
C    0.8496017    0.7127664    2.2356185  
C    0.7794028    0.6545384    3.7115134  
N    1.6840587    1.4146091    4.2663826  
C   -0.1885723   -0.1578550    4.3957118  
C   -1.0476298   -0.8789867    3.6398520  
O   -2.0015663   -1.6796266    4.1448486  
C   -1.0022026   -0.8410666    2.1483229  
O   -1.8147390   -1.5232959    1.5241687  
C    0.0000000    0.0000000    1.4700000  
H    2.3054237    1.9346118    0.9892483  
H   -0.2170646   -0.1815267    5.4753125  
H   -2.4487139   -2.0549881    3.3649027  
H    3.2048689    2.6911772    3.3971983  
