58

C    1.7720689   -2.0859337   -5.3149821  
C    0.8968265   -1.6247193   -4.3847632  
C   -0.0065336   -0.7270830   -5.0652227  
C    0.4171841   -0.7029982   -6.4782597  
N    1.5002593   -1.5471470   -6.5634081  
C   -0.1857665    0.0284586   -7.4494065  
C   -1.3281510    0.8467741   -7.0781197  
O   -1.9388954    1.5411247   -7.8800978  
C   -1.7940048    0.8367264   -5.5872531  
O   -2.7544406    1.5219332   -5.2627294  
C   -1.0641734    0.0073898   -4.6315339  
H    0.8854565   -1.8836205   -3.3409939  
H    0.1408070    0.0318492   -8.4800605  
H    2.0129033   -1.7433395   -7.4034991  
C    3.3007716   -4.2146187   -1.7914737  
C    4.3294556   -4.8899759   -2.3657357  
C    4.3362511   -4.5358701   -3.7655208  
C    3.2192119   -3.5920644   -3.9610852  
N    2.6315301   -3.4396093   -2.7264688  
C    2.8914949   -3.0241934   -5.1492892  
C    3.6922636   -3.3654947   -6.3132560  
O    3.4771171   -2.9067927   -7.4275293  
C    4.8799669   -4.3631611   -6.1293338  
O    5.5610167   -4.6582454   -7.1021436  
C    5.1354623   -4.9094704   -4.7988758  
H    5.0061466   -5.5599088   -1.8658433  
H    5.9598130   -5.5994144   -4.6799352  
H    2.9751439   -4.2180439   -0.7639309  
H    1.8398054   -2.8538427   -2.5338633  
C    1.1319248    0.0015675   -0.8009270  
C    0.7969916    0.0034959   -2.1169404  
C   -0.6453336    0.0035703   -2.1842672  
C   -1.1266831    0.0015415   -0.7896027  
N    0.0000000    0.0000000    0.0000000  
C   -2.4346129    0.0013924   -0.4276297  
C   -3.4350110    0.0031352   -1.4820184  
O   -4.6384610    0.0030897   -1.2583919  
C   -2.9478958    0.0050460   -2.9661075  
O   -3.7809377    0.0062160   -3.8623775  
C   -1.5113821    0.0053068   -3.2312125  
H    1.4821240    0.0045436   -2.9459192  
H   -2.7664565    0.0000185    0.6013447  
H    2.1104318    0.0009428   -0.3488058  
C    0.8175213    0.6860729    2.3021913  
C    0.0000000    0.0000000    1.4700000  
C   -0.8887526   -0.7456559    2.3478473  
C   -0.4549825   -0.3816753    3.7138435  
N    0.5448156    0.4573574    3.6934124  
C   -1.0945674   -0.9182058    4.8835240  
C   -2.1210866   -1.7789155    4.6970523  
O   -2.8083856   -2.3554314    5.6976972  
C   -2.5824069   -2.1655116    3.3310774  
O   -3.5227682   -2.9541547    3.2362962  
C   -1.9100805   -1.6015804    2.1470656  
H   -0.7567140   -0.6349833    5.8697035  
H   -3.4728268   -2.9124471    5.2533954  
H   -2.2742832   -1.9066565    1.1752040  
H    1.6189533    1.3585343    2.0405121  
