62

C   -1.7667978    2.7920742   -1.5420440  
C   -1.3815337    2.1843068   -0.3695856  
C   -0.6437715    1.0174357   -0.7283591  
C   -0.6112572    0.9649193   -2.1454373  
N   -1.3041138    2.0561740   -2.6077472  
C    0.0342904   -0.0558365   -2.8497916  
C    0.6586430   -1.0413694   -2.1101392  
O    1.3041753   -2.0613650   -2.7472509  
C    0.6368872   -1.0065512   -0.6955255  
O    1.3033290   -2.0593803   -0.1032852  
C    0.0000000    0.0000000    0.0000000  
H   -1.6057143    2.5378363    0.6222576  
H    0.0625658   -0.1016540   -3.9297466  
H    1.6647201   -2.6308444   -2.0551776  
H    1.2408506   -1.9603110    0.8516423  
H   -2.3362436    3.6914998   -1.7024306  
C   -1.2418396    5.9509929   -4.8023240  
C   -1.1846371    4.9823897   -3.8271303  
C   -1.4310110    3.7318303   -4.4674439  
C   -1.6330488    4.0022979   -5.8451066  
N   -1.5132752    5.3594298   -6.0138209  
C   -1.9015279    2.9991957   -6.7813188  
C   -1.9669475    1.6993459   -6.3184059  
O   -2.2258070    0.6811664   -7.1897924  
C   -1.7685654    1.4094806   -4.9474790  
O   -1.8657652    0.0673054   -4.6434024  
C   -1.5039332    2.3985931   -4.0232755  
H   -0.9904410    5.1559563   -2.7825464  
H   -1.5965202    5.8450884   -6.8885708  
H   -2.0566084    3.1987947   -7.8326568  
H   -2.2278043   -0.1314499   -6.6673791  
H   -1.7190636   -0.0419606   -3.6988690  
C   -0.7955875    8.1052987   -3.5695103  
C   -1.0644264    7.4068383   -4.7026268  
C   -1.1413649    8.3653554   -5.7797344  
C   -0.8935070    9.6889808   -5.1769306  
N   -0.6915557    9.4622877   -3.8350231  
C   -0.8812355   10.8577649   -5.8664944  
C   -1.1288779   10.8088331   -7.2978625  
O   -1.1387745   11.8067506   -8.0066376  
C   -1.3939835    9.4178734   -7.9572228  
O   -1.6040258    9.3642215   -9.1614914  
C   -1.3816120    8.2279697   -7.1099760  
H   -0.6972148   11.8180639   -5.4051138  
H   -1.5658545    7.2686969   -7.5742773  
H   -0.6649244    7.7428965   -2.5627920  
H   -0.4964322   10.1729086   -3.1538533  
C    2.3971438    2.0127888    3.1728260  
C    1.9431056    1.6308205    1.9564670  
C    0.8496017    0.7127664    2.2356185  
C    0.7794028    0.6545384    3.7115134  
N    1.6840587    1.4146091    4.2663826  
C   -0.1885723   -0.1578550    4.3957118  
C   -1.0476298   -0.8789867    3.6398520  
O   -2.0015663   -1.6796266    4.1448486  
C   -1.0022026   -0.8410666    2.1483229  
O   -1.8147390   -1.5232959    1.5241687  
C    0.0000000    0.0000000    1.4700000  
H    2.3054237    1.9346118    0.9892483  
H   -0.2170646   -0.1815267    5.4753125  
H   -2.4487139   -2.0549881    3.3649027  
H    3.2048689    2.6911772    3.3971983  
