58

C   -6.7218109    2.1175765    0.3721797  
C   -6.8671350    2.9611792    1.4204143  
C   -8.2960408    2.9777018    1.6932730  
C   -8.8781200    2.0631658    0.6875928  
N   -7.9601455    1.5558903   -0.0895699  
C  -10.2899576    1.8032607    0.6223973  
C  -11.0841514    2.4282529    1.5212711  
O  -12.4185441    2.2783867    1.5758344  
C  -10.5267146    3.3566161    2.5486791  
O  -11.3085619    3.8908890    3.3351194  
C   -9.0751137    3.6068743    2.5950596  
H   -6.0994745    3.5050050    1.9438909  
H  -10.6880228    1.1304609   -0.1231189  
H  -12.7018112    2.8463067    2.3150092  
H   -8.7109289    4.2858650    3.3543827  
C   -4.2186860    2.1401322   -0.0437259  
C   -5.4804245    1.7323143   -0.3144294  
C   -5.3466892    0.8217466   -1.4411418  
C   -3.8965662    0.7958598   -1.7293371  
N   -3.2302256    1.5666944   -0.9133754  
C   -3.3460097   -0.0004262   -2.7913647  
C   -4.2050299   -0.7376506   -3.5315798  
O   -3.8298208   -1.5261789   -4.5530897  
C   -5.6737591   -0.7329690   -3.2651707  
O   -6.3965397   -1.4282085   -3.9789286  
C   -6.2140638    0.0921571   -2.1701078  
H   -4.6590779   -1.9185769   -4.8809753  
H   -7.2835615    0.0679009   -2.0094319  
H   -3.8917471    2.8223391    0.7248295  
C    0.0000000    0.0000000    0.0000000  
C    1.0662919   -0.0000103   -0.8334272  
C    0.4961868    0.0000066   -2.1718889  
C   -0.9663860   -0.0000849   -1.9540248  
N   -1.2632775   -0.0000084   -0.6828659  
C   -1.8985364   -0.0000515   -3.0477258  
C   -1.3925778    0.0004567   -4.3020543  
O   -2.1456385    0.0005412   -5.4151314  
C    0.0786229    0.0009326   -4.5544999  
O    0.4683756    0.0012594   -5.7221104  
C    1.0143162    0.0008443   -3.4159034  
H    2.1107195    0.0000631   -0.5721869  
H   -1.5042277    0.0009692   -6.1484420  
H    2.0724151    0.0013151   -3.6409746  
C    3.1301144    0.0010313    3.1728260  
C    2.5367765    0.0002768    1.9564670  
C    1.1089900   -0.0001027    2.2356185  
C    1.0177864    0.0004150    3.7115134  
N    2.1993570    0.0011613    4.2663826  
C   -0.2459220    0.0002880    4.3957118  
C   -1.3675327    0.0000606    3.6398520  
O   -2.6129319   -0.0000866    4.1448486  
C   -1.3083589   -0.0000910    2.1483229  
O   -2.3693264   -0.0004206    1.5241687  
C    0.0000000    0.0000000    1.4700000  
H    3.0096015    0.0001008    0.9892483  
H   -0.2829642    0.0004689    5.4753125  
H   -3.1967446   -0.0002093    3.3649027  
H    4.1849273    0.0015113    3.3971983  
