60

C    0.0000000    0.0000000    0.0000000  
C   -0.0973410    1.0476553   -0.8862342  
C   -0.0448554    0.4896738   -2.1979131  
C    0.0857176   -0.9147347   -2.0478688  
N    0.1117434   -1.1780297   -0.7007916  
C    0.1670695   -1.7873781   -3.1372099  
C    0.1153665   -1.2321932   -4.4010430  
O    0.1901909   -2.0385676   -5.4997587  
C   -0.0143223    0.1667510   -4.5711966  
O   -0.0510690    0.5650550   -5.8915550  
C   -0.0943611    1.0282602   -3.4969889  
H   -0.1931545    2.0863865   -0.6200559  
H    0.1863571   -2.0907131   -0.2891836  
H    0.2668168   -2.8586682   -3.0295528  
H    0.1363934   -1.4571170   -6.2693602  
H   -0.1398841    1.5226646   -5.9180043  
C    0.3879217    3.4539848   -3.0037675  
C   -0.2282894    2.4756720   -3.7159915  
C   -1.0332087    3.1296715   -4.7205930  
C   -0.8339747    4.5795874   -4.5339393  
N    0.0377946    4.7092697   -3.4774875  
C   -1.4239254    5.5402968   -5.2893860  
C   -2.3147256    5.1181037   -6.3574518  
O   -2.8937296    5.9069627   -7.0928121  
C   -2.5405453    3.5876250   -6.5729657  
O   -3.2885929    3.2201900   -7.4688886  
C   -1.8486435    2.6475783   -5.6946517  
H   -1.2641973    6.5985254   -5.1359289  
H   -2.0102066    1.5896077   -5.8505989  
H    1.0681954    3.3635447   -2.1725409  
C    4.0062279    5.8334667   -2.0720647  
C    3.8235513    7.1230809   -1.7044996  
C    2.4225405    7.3979112   -1.9840290  
C    1.8958468    6.1292050   -2.5313514  
N    2.8195785    5.2084432   -2.5852738  
C    0.5247534    5.9868178   -2.9374492  
C   -0.2835298    7.0628335   -2.8025302  
O   -1.5840068    7.0718397   -3.1412321  
C    0.2182079    8.3569078   -2.2531735  
O   -0.5735750    9.2946553   -2.1586719  
C    1.6287478    8.4778314   -1.8436872  
H    4.5498049    7.8037629   -1.2942519  
H   -1.8888668    7.9728471   -2.9305226  
H    1.9530198    9.4320204   -1.4504919  
H    4.9121343    5.2505522   -2.0218836  
C    1.0672568    0.0000697    2.3021913  
C    0.0000000    0.0000000    1.4700000  
C   -1.1601224    0.0000736    2.3478473  
C   -0.5938729    0.0000769    3.7138435  
N    0.7113367    0.0001554    3.6934124  
C   -1.4286986    0.0001879    4.8835240  
C   -2.7683114    0.0006799    4.6970523  
O   -3.6653903    0.0008304    5.6976972  
C   -3.3702025    0.0010610    3.3310774  
O   -4.5974910    0.0013779    3.2362962  
C   -2.4926826    0.0008943    2.1470656  
H   -0.9878360   -0.0000190    5.8697035  
H   -4.5324246    0.0012261    5.2533954  
H   -2.9677772    0.0012974    1.1752040  
H    2.1134392    0.0000545    2.0405121  
