58

C   -3.2564933   -0.0753714   -1.5109401  
C   -2.5372651   -0.0587815   -0.3591977  
C   -1.1431940   -0.0265950   -0.7338499  
C   -1.1089594   -0.0257581   -2.2088479  
N   -2.4220956   -0.0564676   -2.6182624  
C    0.0265429    0.0008690   -2.9515654  
C    1.2999493    0.0304678   -2.2514961  
O    2.3780299    0.0556659   -2.8306401  
C    1.2874272    0.0298817   -0.6895587  
O    2.3533682    0.0543488   -0.0892012  
C    0.0000000    0.0000000    0.0000000  
H   -2.9376172   -0.0682177    0.6389222  
H    0.0296151    0.0010967   -4.0327227  
H   -4.3258812   -0.1000337   -1.6439470  
C   -2.8692340   -0.0646125   -4.0185844  
C   -4.1382163   -0.0929371   -4.4881166  
C   -4.0024086   -0.0876894   -5.9365735  
C   -2.5432733   -0.0538598   -6.1739839  
N   -1.8738740   -0.0402895   -5.0533991  
C   -1.9882244   -0.0392198   -7.4994244  
C   -2.8515942   -0.0579316   -8.5403741  
O   -2.4729926   -0.0474336   -9.8297895  
C   -4.3294565   -0.0925291   -8.3332821  
O   -5.0557853   -0.1079941   -9.3269760  
C   -4.8742247   -0.1069443   -6.9639963  
H   -5.0534033   -0.1147935   -3.9215207  
H   -0.9179393   -0.0142420   -7.6435613  
H   -3.3068801   -0.0661914  -10.3332101  
C   -7.6405373    1.9197972   -4.1825825  
C   -6.5387697    1.4836459   -4.8458739  
C   -6.9966736    0.5774258   -5.8724815  
C   -8.4660632    0.5209905   -5.7520678  
N   -8.7930454    1.3565102   -4.7090536  
C   -9.2743397   -0.2270524   -6.5450534  
C   -8.6557765   -1.0303551   -7.5865034  
O   -9.2978144   -1.7376903   -8.3518564  
C   -7.1012074   -0.9860563   -7.7319616  
O   -6.5691256   -1.6583817   -8.6049610  
C   -6.3365469   -0.1412591   -6.8179245  
H   -5.5213773    1.7645388   -4.6394146  
H  -10.3500510   -0.2541501   -6.4400664  
H   -7.7074890    2.6051638   -3.3533176  
H   -9.7254698    1.5318220   -4.3820998  
C    2.5528530    2.1414826    2.8079335  
C    2.0663498    1.7338582    4.0032312  
C    0.9804344    0.8229586    3.6752840  
C    0.9495562    0.7966882    2.1971295  
N    1.8690446    1.5676019    1.6831036  
C    0.0000000    0.0000000    1.4700000  
C   -0.8785127   -0.7372425    2.1869543  
O   -1.8187535   -1.5261249    1.6395491  
C   -0.8723269   -0.7321790    3.6796354  
O   -1.7010379   -1.4274584    4.2670412  
C    0.1115397    0.0933559    4.4024240  
H    2.4028853    2.0163452    4.9860947  
H   -2.2861435   -1.9184361    2.3990168  
H    0.0832434    0.0693689    5.4835595  
H    3.3664920    2.8238276    2.6198634  
