58

C    2.6001987   -2.1411819   -5.8266041  
C    2.0730544   -1.7332816   -7.0044479  
C    0.9991590   -0.8222834   -6.6393041  
C    1.0189898   -0.7962635   -5.1609560  
N    1.9554493   -1.5673975   -4.6788913  
C    0.0950446    0.0004351   -4.4015596  
C   -0.8074264    0.7379268   -5.0878438  
O   -1.7282260    1.5268491   -4.5083866  
C   -0.8524305    0.7331199   -6.5798599  
O   -1.7006930    1.4286191   -7.1383864  
C    0.1059497   -0.0924309   -7.3360990  
H    2.3756471   -2.0156473   -7.9983207  
H   -2.2213256    1.9193584   -5.2513147  
H    3.4197063   -2.8236753   -5.6666595  
C    0.4584001   -3.1022912  -10.6042739  
C    0.4292872   -2.5453936   -9.3711483  
C    0.1641371   -1.1338912   -9.6032172  
C    0.0585866   -1.0112353  -11.0730468  
N    0.2301133   -2.1618414  -11.6652230  
C   -0.2027046    0.2477937  -11.7146539  
C   -0.3521570    1.3348053  -10.9238289  
O   -0.5994143    2.5718132  -11.3872035  
C   -0.2516000    1.2432587   -9.4373344  
O   -0.3983465    2.2735485   -8.7799226  
C    0.0171479   -0.0595765   -8.8030473  
H    0.5702353   -3.0323244   -8.4213548  
H   -0.2745514    0.3083470  -12.7907955  
H   -0.6538527    3.1289787  -10.5898613  
H    0.6280780   -4.1354852  -10.8625243  
C    3.3321173    0.0004713   -1.3379338  
C    2.6974181    0.0000116   -2.5332314  
C    1.2800438   -0.0002119   -2.2052841  
C    1.2395034    0.0000643   -0.7271299  
N    2.4394062    0.0005460   -0.2131038  
C    0.0000000    0.0000000    0.0000000  
C   -1.1468702    0.0000634   -0.7169543  
O   -2.3742203    0.0000074   -0.1695487  
C   -1.1388770    0.0001607   -2.2096355  
O   -2.2206234    0.0000905   -2.7970411  
C    0.1454522    0.0001815   -2.9324241  
H    3.1367984   -0.0000653   -3.5160950  
H   -2.9844346    0.0001026   -0.9290167  
H    4.3940038    0.0007618   -1.1498640  
C    2.3971438    2.0127888    3.1728260  
C    1.9431056    1.6308205    1.9564670  
C    0.8496017    0.7127664    2.2356185  
C    0.7794028    0.6545384    3.7115134  
N    1.6840587    1.4146091    4.2663826  
C   -0.1885723   -0.1578550    4.3957118  
C   -1.0476298   -0.8789867    3.6398520  
O   -2.0015663   -1.6796266    4.1448486  
C   -1.0022026   -0.8410666    2.1483229  
O   -1.8147390   -1.5232959    1.5241687  
C    0.0000000    0.0000000    1.4700000  
H    2.3054237    1.9346118    0.9892483  
H   -0.2170646   -0.1815267    5.4753125  
H   -2.4487139   -2.0549881    3.3649027  
H    3.2048689    2.6911772    3.3971983  
