58

C   -3.2572691   -0.0253752   -1.5109369  
C   -2.5378701   -0.0198273   -0.3591951  
C   -1.1434695   -0.0090437   -0.7338495  
C   -1.1092277   -0.0087325   -2.2088470  
N   -2.4226807   -0.0192816   -2.6182597  
C    0.0265492    0.0004614   -2.9515661  
C    1.3002601    0.0105098   -2.2514981  
O    2.3785993    0.0191564   -2.8306436  
C    1.2877313    0.0101160   -0.6895611  
O    2.3539251    0.0182181   -0.0892044  
C    0.0000000    0.0000000    0.0000000  
H   -2.9383180   -0.0231170    0.6389248  
H    0.0296226    0.0006417   -4.0327229  
H   -2.7279771   -0.0201558   -3.5742104  
C   -6.6172423   -0.0537774    1.3537108  
C   -5.3855714   -0.0437875    0.7819048  
C   -5.5853002   -0.0443336   -0.6481105  
C   -7.0447573   -0.0555115   -0.8640960  
N   -7.6130908   -0.0612190    0.3888425  
C   -7.6416410   -0.0588925   -2.0828754  
C   -6.7897852   -0.0512214   -3.2605080  
O   -7.2314356   -0.0535501   -4.4021032  
C   -5.2413743   -0.0395930   -3.0553413  
O   -4.5140675   -0.0333711   -4.0393366  
C   -4.7159920   -0.0366183   -1.6923239  
H   -4.4445174   -0.0370125    1.3024670  
H   -8.7141259   -0.0669999   -2.2193342  
H   -6.8812084   -0.0565459    2.3987966  
C   -9.6947387    0.6297919    1.6335313  
C   -9.0578649   -0.0704951    0.6598453  
C  -10.0682828   -0.8189045   -0.0499252  
C  -11.3552542   -0.4948853    0.5946726  
N  -11.0598514    0.3878321    1.6078048  
C  -12.5550827   -1.0019746    0.2139144  
C  -12.5805832   -1.9289017   -0.9053225  
O  -13.6112188   -2.4398431   -1.3236900  
C  -11.2294291   -2.2864349   -1.6027170  
O  -11.2383823   -3.0659297   -2.5458858  
C  -10.0004508   -1.6756425   -1.1023205  
H  -13.4875702   -0.7511756    0.7002030  
H   -9.0691716   -1.9282543   -1.5908191  
H   -9.2816487    1.3021079    2.3678594  
H  -11.7325874    0.7952611    2.2310829  
C    2.5528530    2.1414826    2.8079335  
C    2.0663498    1.7338582    4.0032312  
C    0.9804344    0.8229586    3.6752840  
C    0.9495562    0.7966882    2.1971295  
N    1.8690446    1.5676019    1.6831036  
C    0.0000000    0.0000000    1.4700000  
C   -0.8785127   -0.7372425    2.1869543  
O   -1.8187535   -1.5261249    1.6395491  
C   -0.8723269   -0.7321790    3.6796354  
O   -1.7010379   -1.4274584    4.2670412  
C    0.1115397    0.0933559    4.4024240  
H    2.4028853    2.0163452    4.9860947  
H   -2.2861435   -1.9184361    2.3990168  
H    0.0832434    0.0693689    5.4835595  
H    3.3664920    2.8238276    2.6198634  
