58

C    3.2573676   -0.0002917   -1.5109371  
C    2.5379470   -0.0001708   -0.3591953  
C    1.1435045    0.0000333   -0.7338497  
C    1.1092616   -0.0000080   -2.2088472  
N    2.4227572    0.0001912   -2.6182604  
C   -0.0265522   -0.0002520   -2.9515663  
C   -1.3003029   -0.0002638   -2.2514982  
O   -2.3786772   -0.0004130   -2.8306437  
C   -1.2877723    0.0000313   -0.6895611  
O   -2.3539953    0.0003306   -0.0892043  
C    0.0000000    0.0000000    0.0000000  
H    2.9384088   -0.0000367    0.6389246  
H    2.7280505   -0.0013403   -3.5742105  
C    2.4782044   -2.1081871   -5.8783636  
C    1.9212540   -1.6438938   -7.0265418  
C    0.8546005   -0.7486149   -6.6450160  
C    0.8356651   -0.7292243   -5.1698696  
N    1.8439072   -1.5742002   -4.7669391  
C   -0.0307336   -0.0004643   -4.4215606  
C   -1.0100784    0.8193482   -5.1153375  
O   -1.8333372    1.5114171   -4.5308830  
C   -1.0083697    0.8138723   -6.6773141  
O   -1.8284231    1.4999050   -7.2724045  
C   -0.0251070   -0.0124249   -7.3732163  
H    2.2230648   -1.8995536   -8.0266223  
H   -0.0304407   -0.0104840   -8.4547393  
H    3.2985217   -2.7956858   -5.7506342  
H    2.0835096   -1.7709321   -3.8125103  
C    6.4550012   -0.0009257    1.4492383  
C    7.5628467   -0.0014711    0.6718990  
C    7.0625124   -0.0013725   -0.6941778  
C    5.5906516   -0.0008358   -0.5520151  
N    5.2286132   -0.0004913    0.7021450  
C    4.7161340   -0.0005432   -1.6923240  
C    5.2860942   -0.0003873   -2.9188966  
O    4.5914265   -0.0001196   -4.0693212  
C    6.7683539   -0.0005470   -3.0951497  
O    7.2177917   -0.0005148   -4.2411108  
C    7.6440956   -0.0008907   -1.9098222  
H    8.5924152   -0.0017984    0.9866435  
H    5.2697944   -0.0000398   -4.7685847  
H    8.7123921   -0.0008821   -2.0800374  
H    6.3993969   -0.0008024    2.5262161  
C    2.3971438    2.0127888    3.1728260  
C    1.9431056    1.6308205    1.9564670  
C    0.8496017    0.7127664    2.2356185  
C    0.7794028    0.6545384    3.7115134  
N    1.6840587    1.4146091    4.2663826  
C   -0.1885723   -0.1578550    4.3957118  
C   -1.0476298   -0.8789867    3.6398520  
O   -2.0015663   -1.6796266    4.1448486  
C   -1.0022026   -0.8410666    2.1483229  
O   -1.8147390   -1.5232959    1.5241687  
C    0.0000000    0.0000000    1.4700000  
H    2.3054237    1.9346118    0.9892483  
H   -0.2170646   -0.1815267    5.4753125  
H   -2.4487139   -2.0549881    3.3649027  
H    3.2048689    2.6911772    3.3971983  
