58

C    3.2798085    0.0005857   -1.4499648  
C    2.5571144    0.0005565   -2.5996556  
C    1.1637435    0.0001548   -2.2210363  
C    1.1336962   -0.0000199   -0.7459473  
N    2.4483513   -0.0001429   -0.3402720  
C    0.0000000    0.0000000    0.0000000  
C   -1.2757367   -0.0000186   -0.6964415  
O   -2.3524593   -0.0000638   -0.1142316  
C   -1.2676494   -0.0000872   -2.2584081  
O   -2.3355762   -0.0004099   -2.8557297  
C    0.0181558    0.0001761   -2.9516297  
H    0.0150791    0.0003319   -4.0331632  
H    4.3498548    0.0008609   -1.3200024  
H    2.7563625    0.0012823    0.6148061  
C    4.1687668   -0.6842814   -4.4361451  
C    3.1006056    0.0006262   -3.9654951  
C    2.5984210    0.7451004   -5.1100775  
C    3.5069654    0.3817818   -6.2187396  
N    4.4294532   -0.4558756   -5.8297194  
C    3.3444614    0.9174871   -7.5422569  
C    2.3206216    1.7767747   -7.7489244  
O    2.0512367    2.3523916   -8.9330430  
C    1.3864580    2.1626710   -6.6504787  
O    0.4766648    2.9500148   -6.9104517  
C    1.5741206    1.5996090   -5.3015277  
H    1.2688867    2.9084717   -8.7661407  
H    0.8760107    1.9041376   -4.5333249  
H    4.8175337   -1.3556519   -3.8963890  
C    5.1792863   -2.9353642   -8.5777726  
C    5.9019677   -2.5556554   -9.6629582  
C    5.6640166   -1.1444328   -9.8544415  
C    4.7368426   -0.7301245   -8.7841670  
N    4.4815001   -1.8620670   -8.0449812  
C    4.2683082    0.5327706   -8.6190119  
C    4.7062693    1.5519349   -9.5581761  
O    4.3405742    2.7183090   -9.4938345  
C    5.6878588    1.1355187  -10.6996163  
O    6.0632425    1.9848534  -11.4964711  
C    6.1234430   -0.2567674  -10.7748299  
H    6.5299176   -3.1916243  -10.2611520  
H    6.8032731   -0.5368869  -11.5679808  
H    5.0975842   -3.9090179   -8.1225660  
H    3.8823048   -1.9018829   -7.2409745  
C    2.3971438    2.0127888    3.1728260  
C    1.9431056    1.6308205    1.9564670  
C    0.8496017    0.7127664    2.2356185  
C    0.7794028    0.6545384    3.7115134  
N    1.6840587    1.4146091    4.2663826  
C   -0.1885723   -0.1578550    4.3957118  
C   -1.0476298   -0.8789867    3.6398520  
O   -2.0015663   -1.6796266    4.1448486  
C   -1.0022026   -0.8410666    2.1483229  
O   -1.8147390   -1.5232959    1.5241687  
C    0.0000000    0.0000000    1.4700000  
H    2.3054237    1.9346118    0.9892483  
H   -0.2170646   -0.1815267    5.4753125  
H   -2.4487139   -2.0549881    3.3649027  
H    3.2048689    2.6911772    3.3971983  
