58

C   -4.4297974    2.1087671   -0.2339397  
C   -5.6380117    1.6447706   -0.6450364  
C   -5.3911869    0.7496346   -1.7507689  
C   -3.9296544    0.7300038   -1.9515855  
N   -3.4052345    1.5747190   -1.0006226  
C   -3.2941076    0.0012878   -2.9038237  
C   -4.1035805   -0.8182213   -3.7902174  
O   -3.6253066   -1.5102279   -4.6794205  
C   -5.6534092   -0.8124877   -3.5957844  
O   -6.3452690   -1.4982636   -4.3362584  
C   -6.2225101    0.0137344   -2.5340254  
H   -7.2964264    0.0119733   -2.4058664  
H   -4.2016940    2.7960862    0.5644657  
H   -2.4284974    1.7712469   -0.8805869  
C   -7.3172093    3.2593189    0.3608926  
C   -8.5850835    3.2538707    0.8472471  
C   -9.0744368    1.9003378    0.7318458  
C   -7.9798680    1.1120174    0.1341331  
N   -6.9435646    1.9943671   -0.0669230  
C   -8.0479958   -0.2159537   -0.1370785  
C   -9.2817808   -0.9154616    0.1807239  
O   -9.4416235   -2.1113456   -0.0257026  
C  -10.4540943   -0.1003752    0.8140643  
O  -11.4978049   -0.6784602    1.0856295  
C  -10.2615987    1.3266301    1.0599374  
H   -9.1168989    4.1013580    1.2416490  
H   -7.2334497   -0.7754791   -0.5756621  
H  -11.0780805    1.8837594    1.4988992  
H   -6.6244458    4.0810431    0.2788145  
C    0.0000000    0.0000000    0.0000000  
C    1.0541688   -0.0001723   -0.8560392  
C    0.5103136   -0.0000455   -2.1935956  
C   -0.9576373    0.0002461   -2.0455730  
N   -1.2018460   -0.0001389   -0.6915968  
C   -1.8348314    0.0008319   -3.0810607  
C   -1.2972851    0.0009739   -4.4314603  
O   -2.0050676    0.0014268   -5.4301316  
C    0.2542619    0.0004184   -4.6117572  
O    0.7184666    0.0002257   -5.7439122  
C    1.0974551    0.0000873   -3.4189129  
H    2.0940752   -0.0005484   -0.5817983  
H    2.1707276   -0.0000912   -3.5523673  
H   -2.1128194    0.0014915   -0.2706789  
C    1.0672568    0.0000697    2.3021913  
C    0.0000000    0.0000000    1.4700000  
C   -1.1601224    0.0000736    2.3478473  
C   -0.5938729    0.0000769    3.7138435  
N    0.7113367    0.0001554    3.6934124  
C   -1.4286986    0.0001879    4.8835240  
C   -2.7683114    0.0006799    4.6970523  
O   -3.6653903    0.0008304    5.6976972  
C   -3.3702025    0.0010610    3.3310774  
O   -4.5974910    0.0013779    3.2362962  
C   -2.4926826    0.0008943    2.1470656  
H   -0.9878360   -0.0000190    5.8697035  
H   -4.5324246    0.0012261    5.2533954  
H   -2.9677772    0.0012974    1.1752040  
H    2.1134392    0.0000545    2.0405121  
