60

C    0.0000000    0.0000000    0.0000000  
C    1.0521658   -0.0011900   -0.8862345  
C    0.4917204   -0.0011956   -2.1979132  
C   -0.9187443    0.0003149   -2.0478678  
N   -1.1833182   -0.0009411   -0.7007907  
C   -1.7951716    0.0010350   -3.1372081  
C   -1.2375858    0.0005226   -4.4010417  
O   -2.0474243    0.0015365   -5.4997570  
C    0.1673557   -0.0013566   -4.5711965  
O    0.5673496   -0.0020684   -5.8915554  
C    1.0325749   -0.0023412   -3.4969894  
H    2.0953048   -0.0030647   -0.6200571  
H   -2.0989779    0.0102370   -0.2891817  
H   -2.8710946    0.0020420   -3.0295503  
H   -1.4634916    0.0006500   -6.2693587  
H    1.5290680   -0.0033148   -5.9180054  
C    4.2912341   -2.1142471   -1.4465426  
C    5.3462911   -1.6514995   -2.1654266  
C    4.8141488   -0.7556973   -3.1650258  
C    3.3521058   -0.7343149   -2.9681414  
N    3.0997468   -1.5787546   -1.9116728  
C    2.4861682   -0.0045381   -3.7159931  
C    3.0304393    0.8143457   -4.7863828  
O    2.3328532    1.5072096   -5.5155011  
C    4.5758813    0.8067608   -5.0130038  
O    5.0456306    1.4919964   -5.9113627  
C    5.4069261   -0.0204838   -4.1418643  
H    6.3794036   -1.9085118   -2.0129893  
H    6.4760553   -0.0200030   -4.3052258  
H    2.1903294   -1.7741997   -1.5350987  
C    7.5129504   -4.2712228    0.6663776  
C    6.8047724   -3.4802766   -0.1803592  
C    5.4142948   -3.6095720    0.1866426  
C    5.3701289   -4.5473814    1.3247785  
N    6.6746386   -4.9119864    1.5660415  
C    4.2345921   -4.9313882    1.9610162  
C    2.9716107   -4.3847191    1.4935064  
O    1.8943525   -4.6690160    2.0004488  
C    2.9947358   -3.3899574    0.2894633  
O    1.9375953   -2.9234424   -0.1131263  
C    4.2811812   -3.0515971   -0.3142113  
H    7.2101673   -2.8754466   -0.9718446  
H    4.2241518   -5.6204295    2.7940969  
H    8.5767082   -4.4400898    0.7087025  
H    6.9721088   -5.5444077    2.2861817  
C    1.0672568    0.0000697    2.3021913  
C    0.0000000    0.0000000    1.4700000  
C   -1.1601224    0.0000736    2.3478473  
C   -0.5938729    0.0000769    3.7138435  
N    0.7113367    0.0001554    3.6934124  
C   -1.4286986    0.0001879    4.8835240  
C   -2.7683114    0.0006799    4.6970523  
O   -3.6653903    0.0008304    5.6976972  
C   -3.3702025    0.0010610    3.3310774  
O   -4.5974910    0.0013779    3.2362962  
C   -2.4926826    0.0008943    2.1470656  
H   -0.9878360   -0.0000190    5.8697035  
H   -4.5324246    0.0012261    5.2533954  
H   -2.9677772    0.0012974    1.1752040  
H    2.1134392    0.0000545    2.0405121  
