58

C   -4.4924717    2.0950384   -0.2442175  
C   -3.4157280    1.6323169   -0.9302108  
C   -3.9167331    0.7362616   -1.9455503  
C   -5.3841436    0.7147469   -1.7937836  
N   -5.6689491    1.5587228   -0.7452222  
C   -6.2266191   -0.0146659   -2.5683133  
C   -5.6495852   -0.8333372   -3.6215680  
O   -6.3243550   -1.5259655   -4.3720704  
C   -4.0978599   -0.8259954   -3.8001700  
O   -3.6005721   -1.5115246   -4.6833544  
C   -3.2941076    0.0012878   -2.9038237  
H   -2.3878030    1.8892262   -0.7458681  
H   -7.3001859   -0.0161875   -2.4403982  
H   -4.5254896    2.7825515    0.5853162  
C   -7.5883404    5.2759971    0.6669540  
C   -6.7116864    4.3578226    0.1847627  
C   -7.4047337    3.0915955    0.1502721  
C   -8.7667860    3.3491936    0.6554910  
N   -8.8133551    4.6919766    0.9515565  
C   -9.7329188    2.4040688    0.7780929  
C   -9.4096307    1.0421984    0.3865207  
O  -10.2112489    0.1200356    0.4594894  
C   -7.9731624    0.7465643   -0.1510343  
O   -7.6892849   -0.3963079   -0.4834756  
C   -7.0178248    1.8482345   -0.2376622  
H   -5.6954459    4.5460401   -0.1126322  
H  -10.7258102    2.6140737    1.1508862  
H   -7.4424767    6.3301181    0.8385415  
H   -9.6145295    5.1739138    1.3161141  
C    0.0000000    0.0000000    0.0000000  
C    1.0541688   -0.0001723   -0.8560392  
C    0.5103136   -0.0000455   -2.1935956  
C   -0.9576373    0.0002461   -2.0455730  
N   -1.2018460   -0.0001389   -0.6915968  
C   -1.8348314    0.0008319   -3.0810607  
C   -1.2972851    0.0009739   -4.4314603  
O   -2.0050676    0.0014268   -5.4301316  
C    0.2542619    0.0004184   -4.6117572  
O    0.7184666    0.0002257   -5.7439122  
C    1.0974551    0.0000873   -3.4189129  
H    2.0940752   -0.0005484   -0.5817983  
H    2.1707276   -0.0000912   -3.5523673  
H   -2.1128194    0.0014915   -0.2706789  
C    0.0000000    0.0000000    1.4700000  
C    1.0662921    0.0000102    2.3034270  
C    0.4961870   -0.0000064    3.6418889  
C   -0.9663858    0.0000850    3.4240247  
N   -1.2632773    0.0000084    2.1528658  
C   -1.8985362    0.0000517    4.5177257  
C   -1.3925775   -0.0004564    5.7720543  
O   -2.1456383   -0.0005410    6.8851312  
C    0.0786232   -0.0009323    6.0245000  
O    0.4683759   -0.0012588    7.1921102  
C    1.0143166   -0.0008442    4.8859032  
H    2.1107198   -0.0000632    2.0421868  
H   -2.9622183    0.0003270    4.3293377  
H   -1.5042274   -0.0009692    7.6184419  
H    2.0724152   -0.0013148    5.1109744  
