62

C    1.1243408    0.0100056   -0.7919008  
C    0.7474067    0.0234632   -2.1148548  
C   -0.6787390    0.0234407   -2.1414700  
C   -1.1201747    0.0098459   -0.7935548  
N    0.0000000    0.0000000    0.0000000  
C   -2.4730819    0.0063413   -0.4408237  
C   -3.3971961    0.0170574   -1.4675059  
O   -4.7313524    0.0145692   -1.1793460  
C   -2.9763661    0.0303149   -2.8186318  
O   -4.0166491    0.0394637   -3.7247618  
C   -1.6418573    0.0335064   -3.1673481  
H   -2.8160162   -0.0041448    0.5845969  
H   -5.1938829    0.0230244   -2.0274372  
H   -3.6464693    0.0481856   -4.6127338  
H   -1.3497485    0.0435706   -4.2109230  
H    2.1062463    0.0053069   -0.3505414  
C    4.6035529   -2.0932529   -2.9144229  
C    3.4418015   -1.6363687   -2.3364458  
C    2.8380886   -0.7400636   -3.2674499  
C    3.6839049   -0.6895631   -4.4049781  
N    4.7475347   -1.5212494   -4.1567713  
C    3.3988640    0.0972320   -5.5250200  
C    2.2386904    0.8464661   -5.4963344  
O    1.9119637    1.6320618   -6.5636212  
C    1.3821852    0.8096665   -4.3703401  
O    0.2664555    1.6116303   -4.4942146  
C    1.6628938    0.0339099   -3.2649306  
H    3.0751949   -1.9140038   -1.3630436  
H    5.5069137   -1.6969031   -4.7895987  
H    1.0769086    2.0631860   -6.3398370  
H   -0.2581469    1.5289153   -3.6919962  
H    5.3415862   -2.7807890   -2.5381780  
C    4.2697642    0.1556561   -6.7078213  
C    5.4349443   -0.4998826   -6.9180695  
C    5.8689400   -0.0784766   -8.2411586  
C    4.8188692    0.8573841   -8.6973383  
N    3.8788642    0.9986658   -7.8026763  
C    4.8798923    1.5028986   -9.9797860  
C    5.9418651    1.2263697  -10.7704061  
O    6.1271628    1.7570300  -11.9911049  
C    7.0180502    0.2866043  -10.3381704  
O    7.9553831    0.0815408  -11.1092585  
C    6.9326313   -0.3630246   -9.0180900  
H    5.9378642   -1.1847437   -6.2569244  
H    4.0983653    2.1821707  -10.2875435  
H    6.9657103    1.3722521  -12.3040533  
H    7.7324735   -1.0370839   -8.7421797  
C    0.0000000    0.0000000    1.4700000  
C    1.0662921    0.0000102    2.3034270  
C    0.4961870   -0.0000064    3.6418889  
C   -0.9663858    0.0000850    3.4240247  
N   -1.2632773    0.0000084    2.1528658  
C   -1.8985362    0.0000517    4.5177257  
C   -1.3925775   -0.0004564    5.7720543  
O   -2.1456383   -0.0005410    6.8851312  
C    0.0786232   -0.0009323    6.0245000  
O    0.4683759   -0.0012588    7.1921102  
C    1.0143166   -0.0008442    4.8859032  
H    2.1107198   -0.0000632    2.0421868  
H   -2.9622183    0.0003270    4.3293377  
H   -1.5042274   -0.0009692    7.6184419  
H    2.0724152   -0.0013148    5.1109744  
