62

C    3.3041270    0.0001178   -1.5420432  
C    2.5845372   -0.0004779   -0.3695853  
C    1.2040007   -0.0000006   -0.7283591  
C    1.1422373    0.0006039   -2.1454374  
N    2.4348636    0.0026110   -2.6077466  
C   -0.0655186    0.0008800   -2.8497915  
C   -1.2321770    0.0002326   -2.1101397  
O   -2.4392818    0.0001149   -2.7472515  
C   -1.1911209   -0.0000006   -0.6955262  
O   -2.4371522   -0.0002319   -0.1032858  
C    0.0000000    0.0000000    0.0000000  
H    3.0031535   -0.0000661    0.6222580  
H    2.7054625   -0.0071097   -3.5745263  
H   -3.1132993   -0.0000646   -2.0551781  
H   -2.3200286   -0.0004070    0.8516413  
C    6.5771489   -0.0035572    1.3345536  
C    7.6645482   -0.0027621    0.5288604  
C    7.1290980   -0.0009888   -0.8238368  
C    5.6613999   -0.0010504   -0.6437060  
N    5.3318741   -0.0024719    0.6193854  
C    4.7577214    0.0005130   -1.7610465  
C    5.2958116    0.0024562   -3.0019291  
O    4.5716623    0.0040582   -4.1340272  
C    6.7730247    0.0029429   -3.2164071  
O    7.1927145    0.0046218   -4.3735928  
C    7.6790888    0.0012689   -2.0540949  
H    8.7019026   -0.0032209    0.8169078  
H    5.2317436    0.0052552   -4.8505772  
H    8.7426331    0.0018008   -2.2518450  
H    6.5493795   -0.0048792    2.4126072  
C    0.6364680   -0.6837594   -5.1902200  
C   -0.1387086    0.0017020   -4.3179679  
C   -1.0701784    0.7476899   -5.1500536  
C   -0.7049032    0.3845507   -6.5361590  
N    0.2947985   -0.4543147   -6.5660078  
C   -1.4020130    0.9216209   -7.6722396  
C   -2.4181043    1.7820429   -7.4344017  
O   -3.1544588    2.3589952   -8.3992581  
C   -2.8109001    2.1677925   -6.0469326  
O   -3.7454947    2.9562145   -5.9050022  
C   -2.0803718    1.6033195   -4.8981843  
H   -1.1136369    0.6390103   -8.6741782  
H   -3.7960384    2.9156439   -7.9221098  
H   -2.3957805    1.9077871   -3.9092215  
H    1.4500361   -1.3562238   -4.9691494  
C    0.8676693    0.7151171    2.2619005  
C    0.5875920    0.4624972    3.5848544  
C   -0.5048400   -0.4542819    3.6114698  
C   -0.8517165   -0.7276451    2.2635546  
N    0.0000000    0.0000000    1.4700000  
C   -1.8902865   -1.5946756    1.9108239  
C   -2.5912627   -2.1969500    2.9375057  
O   -3.6148162   -3.0527051    2.6493466  
C   -2.2603868   -1.9365747    4.2886322  
O   -3.0513550   -2.6123276    5.1947621  
C   -1.2361111   -1.0811317    4.6373480  
H    1.1060808    0.8876438    4.4271209  
H   -2.1597133   -1.8070987    0.8854031  
H   -3.9636755   -3.3565188    3.4974381  
H   -2.7621927   -2.3810384    6.0827341  
H   -1.0058879   -0.9010589    5.6809233  
H    1.6167816    1.3499334    1.8205408  
