58

C    3.2573665   -0.0002916   -1.5109385  
C    2.5379467   -0.0001706   -0.3591970  
C    1.1435037    0.0000335   -0.7338494  
C    1.1092600   -0.0000076   -2.2088471  
N    2.4227553    0.0001917   -2.6182612  
C   -0.0265543   -0.0002514   -2.9515657  
C   -1.3003043   -0.0002632   -2.2514971  
O   -2.3786797   -0.0004124   -2.8306417  
C   -1.2877733    0.0000315   -0.6895596  
O   -2.3539957    0.0003308   -0.0892022  
C    0.0000000    0.0000000    0.0000000  
H    2.9384091   -0.0000368    0.6389234  
H   -0.0296302   -0.0004073   -4.0327226  
H    4.3270390   -0.0004759   -1.6439452  
C    5.7080832   -2.1452796   -4.5132735  
C    5.6084209   -1.7395357   -5.8005258  
C    4.4745312   -0.8282615   -5.8198397  
C    3.9954377   -0.7997391   -4.4211835  
N    4.7146912   -1.5697618   -3.6506453  
C    2.8699628   -0.0020514   -4.0185830  
C    2.2514663    0.7339952   -4.9699146  
O    1.1895385    1.5236039   -4.7356738  
C    2.7114645    0.7266546   -6.3899525  
O    2.1009828    1.4209416   -7.2026631  
C    3.8682925   -0.0998692   -6.7779368  
H    6.2279140   -2.0234834   -6.6339986  
H    0.9754891    1.9147014   -5.6019172  
H    4.1702522   -0.0775352   -7.8164704  
C    8.9979594   -4.3003363   -6.3894244  
C    9.5228401   -4.9836674   -5.3458065  
C    8.7000201   -4.6148863   -4.2041113  
C    7.6989350   -3.6757352   -4.7540271  
N    7.8685314   -3.4875324   -6.0345771  
C    6.6862760   -3.0748742   -3.9302709  
C    6.6740085   -3.3978543   -2.6169286  
O    5.7861255   -2.9120361   -1.7327991  
C    7.6706454   -4.3427760   -2.0321211  
O    7.6000388   -4.5911377   -0.8285633  
C    8.6995672   -4.9459570   -2.8978102  
H   10.3643839   -5.6551275   -5.3502138  
H    6.0310950   -3.3229686   -0.8841080  
H    9.4030540   -5.6255659   -2.4357847  
H    9.3256911   -4.3024153   -7.4168297  
C    2.3971438    2.0127888    3.1728260  
C    1.9431056    1.6308205    1.9564670  
C    0.8496017    0.7127664    2.2356185  
C    0.7794028    0.6545384    3.7115134  
N    1.6840587    1.4146091    4.2663826  
C   -0.1885723   -0.1578550    4.3957118  
C   -1.0476298   -0.8789867    3.6398520  
O   -2.0015663   -1.6796266    4.1448486  
C   -1.0022026   -0.8410666    2.1483229  
O   -1.8147390   -1.5232959    1.5241687  
C    0.0000000    0.0000000    1.4700000  
H    2.3054237    1.9346118    0.9892483  
H   -0.2170646   -0.1815267    5.4753125  
H   -2.4487139   -2.0549881    3.3649027  
H    3.2048689    2.6911772    3.3971983  
