60

C   -0.3475984    1.0635007   -0.8003803  
C    0.0000000    0.0000000    0.0000000  
C    0.3501620   -1.0768871   -0.8673523  
C    0.1959735   -0.6074384   -2.1969276  
N   -0.2306831    0.6951354   -2.1202235  
C    0.4552593   -1.4051844   -3.3154805  
C    0.8781887   -2.7003362   -3.0876855  
O    1.1457887   -3.5222424   -4.1440351  
C    1.0376356   -3.1871284   -1.7684326  
O    1.4650070   -4.4974569   -1.7073122  
C    0.7817669   -2.4007771   -0.6644814  
H   -0.4154881    1.2925036   -2.9057036  
H    1.4219368   -4.3684050   -3.7685131  
H    1.5471424   -4.7477352   -0.7819918  
H    0.9127248   -2.8013158    0.3339653  
H   -0.6710458    2.0552119   -0.5342058  
C    1.3279961    2.3939411   -5.4763640  
C    1.2278548    1.4739118   -4.4888937  
C    0.6450942    0.3026108   -5.1252453  
C    0.4523334    0.7019820   -6.5358938  
N    0.8508958    1.9268350   -6.7477262  
C   -0.1100449   -0.1925692   -7.5098525  
C   -0.4634190   -1.4299792   -7.0935863  
O   -0.9995530   -2.3666398   -7.8943789  
C   -0.2810452   -1.8628765   -5.6767233  
O   -0.6251394   -3.0037903   -5.3682831  
C    0.2979504   -0.9269279   -4.6965757  
H    1.5141776    1.5772973   -3.4562241  
H   -0.2397453    0.1258650   -8.5339072  
H   -1.1421315   -3.1364754   -7.3145705  
C    2.3405845    4.3640400   -4.2708018  
C    1.8522933    3.7643559   -5.3870570  
C    1.9479119    4.7275474   -6.4584838  
C    2.5361799    5.9462634   -5.8707233  
N    2.7504514    5.6606423   -4.5420404  
C    2.7893288    7.0874136   -6.5602136  
C    2.4602487    7.1173789   -7.9756089  
O    2.6501524    8.0981069   -8.6830047  
C    1.8361586    5.8381052   -8.6188631  
O    1.5546761    5.8515939   -9.8095961  
C    1.6103876    4.6685348   -7.7732960  
H    3.2214901    7.9702894   -6.1100172  
H    1.1780980    3.7867464   -8.2263966  
H    2.4352956    3.9679273   -3.2727965  
H    3.1457565    6.2955376   -3.8729445  
C    2.5528530    2.1414826    2.8079335  
C    2.0663498    1.7338582    4.0032312  
C    0.9804344    0.8229586    3.6752840  
C    0.9495562    0.7966882    2.1971295  
N    1.8690446    1.5676019    1.6831036  
C    0.0000000    0.0000000    1.4700000  
C   -0.8785127   -0.7372425    2.1869543  
O   -1.8187535   -1.5261249    1.6395491  
C   -0.8723269   -0.7321790    3.6796354  
O   -1.7010379   -1.4274584    4.2670412  
C    0.1115397    0.0933559    4.4024240  
H    2.4028853    2.0163452    4.9860947  
H   -2.2861435   -1.9184361    2.3990168  
H    0.0832434    0.0693689    5.4835595  
H    3.3664920    2.8238276    2.6198634  
