58

C   -3.2573635   -0.0043578   -1.5109391  
C   -2.5379445   -0.0034519   -0.3591969  
C   -1.1435025   -0.0016654   -0.7338503  
C   -1.1092584   -0.0015751   -2.2088480  
N   -2.4227520   -0.0036493   -2.6182620  
C    0.0265545    0.0002904   -2.9515659  
C    1.3003034    0.0021202   -2.2514974  
O    2.3786763    0.0038089   -2.8306416  
C    1.2877718    0.0018072   -0.6895602  
O    2.3539938    0.0030297   -0.0892027  
C    0.0000000    0.0000000    0.0000000  
H   -2.9384056   -0.0041578    0.6389226  
H    0.0296302    0.0004510   -4.0327235  
H   -2.7280470   -0.0025534   -3.5742126  
C   -6.4549966   -0.0082886    1.4492333  
C   -7.5628416   -0.0093246    0.6718933  
C   -7.0625066   -0.0087088   -0.6941831  
C   -5.5906468   -0.0071445   -0.5520193  
N   -5.2286089   -0.0069723    0.7021412  
C   -4.7161285   -0.0061885   -1.6923272  
C   -5.2860866   -0.0071579   -2.9189002  
O   -4.5914184   -0.0064339   -4.0693246  
C   -6.7683453   -0.0091141   -3.0951549  
O   -7.2177819   -0.0097878   -4.2411159  
C   -7.6440877   -0.0100207   -1.9098278  
H   -5.2697850   -0.0074820   -4.7685884  
H   -8.7123827   -0.0115542   -2.0800437  
H   -6.3993934   -0.0083328    2.5262115  
C   -9.5261894    0.6744755    2.1268167  
C   -8.9686194   -0.0108845    1.1016458  
C  -10.0671375   -0.7576569    0.5082759  
C  -11.2470346   -0.3950355    1.3224828  
N  -10.9361097    0.4442270    2.2727215  
C  -12.5520179   -0.9329404    1.0527352  
C  -12.6728681   -1.7936658    0.0164529  
O  -13.8301065   -2.3713867   -0.3483460  
C  -11.5010218   -2.1789086   -0.8240966  
O  -11.6844458   -2.9676469   -1.7511720  
C  -10.1727915   -1.6135809   -0.5272249  
H  -13.3966460   -0.6506940    1.6641680  
H  -13.5988651   -2.9280694   -1.1137115  
H   -9.3495350   -1.9177016   -1.1596723  
H   -9.0423691    1.3473815    2.8168087  
C    2.5528530    2.1414826    2.8079335  
C    2.0663498    1.7338582    4.0032312  
C    0.9804344    0.8229586    3.6752840  
C    0.9495562    0.7966882    2.1971295  
N    1.8690446    1.5676019    1.6831036  
C    0.0000000    0.0000000    1.4700000  
C   -0.8785127   -0.7372425    2.1869543  
O   -1.8187535   -1.5261249    1.6395491  
C   -0.8723269   -0.7321790    3.6796354  
O   -1.7010379   -1.4274584    4.2670412  
C    0.1115397    0.0933559    4.4024240  
H    2.4028853    2.0163452    4.9860947  
H   -2.2861435   -1.9184361    2.3990168  
H    0.0832434    0.0693689    5.4835595  
H    3.3664920    2.8238276    2.6198634  
