58

C    1.1319241    0.0015691   -0.8009269  
C    0.7969903    0.0034967   -2.1169402  
C   -0.6453351    0.0035689   -2.1842664  
C   -1.1266840    0.0015398   -0.7896018  
N    0.0000000    0.0000000    0.0000000  
C   -2.4346137    0.0013891   -0.4276279  
C   -3.4350115    0.0031303   -1.4820169  
O   -4.6384623    0.0030831   -1.2583889  
C   -2.9478975    0.0050414   -2.9661059  
O   -3.7809399    0.0062099   -3.8623753  
C   -1.5113838    0.0053042   -3.2312116  
H   -2.7664571    0.0000150    0.6013466  
H   -1.1823548    0.0068368   -4.2614841  
H    2.1104311    0.0009455   -0.3488063  
C    2.9134282   -0.7204922   -3.3148111  
C    3.5548219   -0.5024952   -4.4917419  
C    2.7453621    0.4245025   -5.2469142  
C    1.5714053    0.7309159   -4.4074343  
N    1.7334678    0.0049298   -3.2500368  
C    0.5677703    1.5709580   -4.7662537  
C    0.6491240    2.2162025   -6.0660908  
O   -0.2045788    2.9893173   -6.4805608  
C    1.8833986    1.9060805   -6.9717371  
O    1.9626424    2.4431848   -8.0683229  
C    2.9013691    0.9833984   -6.4755048  
H    4.4883504   -0.9411678   -4.7962173  
H   -0.2845406    1.7821533   -4.1354828  
H    3.2033712   -1.3502253   -2.4894267  
C    4.6766734   -0.4887108   -7.5339510  
C    4.0587802    0.6989718   -7.3359708  
C    4.7904491    1.6450882   -8.1642358  
C    5.8461841    0.8360791   -8.8103878  
N    5.7844421   -0.4155330   -8.4448139  
C    6.7962398    1.4128020   -9.7213606  
C    6.6959271    2.7374316   -9.9755824  
O    7.5150427    3.4067377  -10.8045086  
C    5.6412181    3.5806479   -9.3393949  
O    5.6092808    4.7795197   -9.6167171  
C    4.6784214    2.9656386   -8.4084220  
H    7.5574349    0.7979395  -10.1790021  
H    7.1952729    4.3266744  -10.7796805  
H    3.9295747    3.6106224   -7.9685869  
H    4.4340924   -1.4444545   -7.0972797  
C    2.3971438    2.0127888    3.1728260  
C    1.9431056    1.6308205    1.9564670  
C    0.8496017    0.7127664    2.2356185  
C    0.7794028    0.6545384    3.7115134  
N    1.6840587    1.4146091    4.2663826  
C   -0.1885723   -0.1578550    4.3957118  
C   -1.0476298   -0.8789867    3.6398520  
O   -2.0015663   -1.6796266    4.1448486  
C   -1.0022026   -0.8410666    2.1483229  
O   -1.8147390   -1.5232959    1.5241687  
C    0.0000000    0.0000000    1.4700000  
H    2.3054237    1.9346118    0.9892483  
H   -0.2170646   -0.1815267    5.4753125  
H   -2.4487139   -2.0549881    3.3649027  
H    3.2048689    2.6911772    3.3971983  
