60

C    0.0000000    0.0000000    0.0000000  
C    1.0521661   -0.0011903   -0.8862347  
C    0.4917212   -0.0011956   -2.1979134  
C   -0.9187433    0.0003151   -2.0478682  
N   -1.1833174   -0.0009411   -0.7007909  
C   -1.7951708    0.0010353   -3.1372086  
C   -1.2375848    0.0005226   -4.4010421  
O   -2.0474230    0.0015361   -5.4997574  
C    0.1673567   -0.0013565   -4.5711966  
O    0.5673505   -0.0020686   -5.8915558  
C    1.0325763   -0.0023412   -3.4969895  
H    2.0953053   -0.0030651   -0.6200567  
H   -2.0989776    0.0102375   -0.2891818  
H   -1.4634905    0.0006503   -6.2693585  
H    1.5290694   -0.0033150   -5.9180049  
H    2.1042138   -0.0039610   -3.6584464  
C   -4.5107105    2.0951268   -0.3556521  
C   -3.4200326    1.6321240   -1.0190711  
C   -3.9000924    0.7371437   -2.0454180  
C   -5.3703974    0.7165662   -1.9247116  
N   -5.6767107    1.5600032   -0.8817947  
C   -6.1968239   -0.0116996   -2.7173986  
C   -5.5982305   -0.8300362   -3.7588145  
O   -6.2574707   -1.5216537   -4.5239086  
C   -4.0430726   -0.8236728   -3.9045785  
O   -3.5277087   -1.5089319   -4.7775515  
C   -3.2578661    0.0024043   -2.9908499  
H   -2.3960546    1.8881714   -0.8128611  
H   -7.2728553   -0.0125474   -2.6122007  
H   -6.6045198    1.7580529   -0.5546956  
C   -1.5376987    4.3634553    2.0692867  
C   -2.0726615    3.5411568    1.1369672  
C   -3.5089741    3.6067839    1.3587767  
C   -3.6684748    4.5406122    2.4941655  
N   -2.5163754    4.9874747    2.9148437  
C   -4.9600448    4.8774377    3.0265968  
C   -6.0430677    4.3075845    2.4506941  
O   -7.3080606    4.5316258    2.8452057  
C   -5.9147945    3.3615610    1.3031986  
O   -6.9434723    2.8803221    0.8283813  
C   -4.5789832    3.0319548    0.7750964  
H   -1.5563658    2.9617002    0.3908141  
H   -5.0471248    5.5626982    3.8571052  
H   -7.8538366    3.9886836    2.2481329  
H   -0.4965983    4.5895465    2.2365183  
C    1.0672568    0.0000697    2.3021913  
C    0.0000000    0.0000000    1.4700000  
C   -1.1601224    0.0000736    2.3478473  
C   -0.5938729    0.0000769    3.7138435  
N    0.7113367    0.0001554    3.6934124  
C   -1.4286986    0.0001879    4.8835240  
C   -2.7683114    0.0006799    4.6970523  
O   -3.6653903    0.0008304    5.6976972  
C   -3.3702025    0.0010610    3.3310774  
O   -4.5974910    0.0013779    3.2362962  
C   -2.4926826    0.0008943    2.1470656  
H   -0.9878360   -0.0000190    5.8697035  
H   -4.5324246    0.0012261    5.2533954  
H   -2.9677772    0.0012974    1.1752040  
H    2.1134392    0.0000545    2.0405121  
