58

C    1.0965514    0.0001359   -0.8010305  
C    0.0000000    0.0000000    0.0000000  
C   -1.1546564    0.0001470   -0.8669509  
C   -0.6372019    0.0003521   -2.2486280  
N    0.7342869    0.0007339   -2.1395010  
C   -1.4147744    0.0001354   -3.3608710  
C   -2.8576055   -0.0001048   -3.1854456  
O   -3.6427781   -0.0002489   -4.1244902  
C   -3.4275843   -0.0000726   -1.7311659  
O   -4.6406828    0.0000334   -1.5710051  
C   -2.4891866   -0.0001091   -0.6116744  
H   -1.0150453    0.0001618   -4.3654242  
H   -2.8919120   -0.0002919    0.3920864  
H    2.1388270    0.0000663   -0.5261644  
C    4.5566853   -2.0943509   -2.8440025  
C    3.3981922   -1.6309278   -2.3080843  
C    2.8135372   -0.7361947   -3.2788915  
C    3.7329563   -0.7162208   -4.4326073  
N    4.7695081   -1.5597352   -4.1056014  
C    3.5352810    0.0116651   -5.5607967  
C    2.3371276    0.8302005   -5.6442438  
O    2.0692117    1.5215083   -6.6182129  
C    1.3496272    0.8244746   -4.4340312  
O    0.3376968    1.5099055   -4.4926967  
C    1.6707639   -0.0012341   -3.2725972  
H    2.9988744   -1.8865413   -1.3427757  
H    5.2729793   -2.7812824   -2.4233624  
H    5.5580252   -1.7581542   -4.6937494  
C    5.7703862   -3.2679510   -7.3596635  
C    6.4435368   -2.6426657   -8.3533763  
C    6.0432429   -1.2473014   -8.2573423  
C    5.0988882   -1.2078941   -7.1201407  
N    4.9350442   -2.3894107   -6.5898928  
C    4.4691795    0.0122186   -6.6960209  
C    4.7695351    1.1416917   -7.3767641  
O    4.2556566    2.3499074   -7.0900858  
C    5.7189980    1.1344006   -8.5285567  
O    5.9457610    2.1996818   -9.1021209  
C    6.3519814   -0.1298560   -8.9443840  
H    7.1273468   -3.0749166   -9.0637554  
H    4.6556571    2.9510183   -7.7441629  
H    7.0339551   -0.0928933   -9.7832977  
H    5.7948036   -4.3134894   -7.0965541  
C    0.0000000    0.0000000    1.4700000  
C    1.0662921    0.0000102    2.3034270  
C    0.4961870   -0.0000064    3.6418889  
C   -0.9663858    0.0000850    3.4240247  
N   -1.2632773    0.0000084    2.1528658  
C   -1.8985362    0.0000517    4.5177257  
C   -1.3925775   -0.0004564    5.7720543  
O   -2.1456383   -0.0005410    6.8851312  
C    0.0786232   -0.0009323    6.0245000  
O    0.4683759   -0.0012588    7.1921102  
C    1.0143166   -0.0008442    4.8859032  
H    2.1107198   -0.0000632    2.0421868  
H   -2.9622183    0.0003270    4.3293377  
H   -1.5042274   -0.0009692    7.6184419  
H    2.0724152   -0.0013148    5.1109744  
