60

C    0.0000000    0.0000000    0.0000000  
C    1.0521664   -0.0011851   -0.8862348  
C    0.4917202   -0.0011938   -2.1979134  
C   -0.9187444    0.0003096   -2.0478678  
N   -1.1833179   -0.0009472   -0.7007905  
C   -1.7951721    0.0010252   -3.1372078  
C   -1.2375866    0.0005151   -4.4010416  
O   -2.0474248    0.0015244   -5.4997569  
C    0.1673546   -0.0013569   -4.5711962  
O    0.5673488   -0.0020673   -5.8915555  
C    1.0325747   -0.0023369   -3.4969896  
H    2.0953051   -0.0030547   -0.6200575  
H   -2.0989778    0.0102265   -0.2891814  
H   -2.8710949    0.0020268   -3.0295498  
H   -1.4634926    0.0006406   -6.2693586  
H    1.5290671   -0.0033093   -5.9180052  
C    4.2912444   -2.1142262   -1.4465428  
C    5.3462991   -1.6514736   -2.1654271  
C    4.8141523   -0.7556743   -3.1650263  
C    3.3521090   -0.7342993   -2.9681418  
N    3.0997545   -1.5787399   -1.9116728  
C    2.4861677   -0.0045268   -3.7159935  
C    3.0304349    0.8143591   -4.7863833  
O    2.3328448    1.5072196   -5.5155015  
C    4.5758766    0.8067818   -5.0130044  
O    5.0456220    1.4920197   -5.9113639  
C    5.4069258   -0.0204581   -4.1418653  
H    6.3794131   -1.9084809   -2.0129899  
H    4.2838764   -2.8015585   -0.6162357  
H    2.1903382   -1.7741895   -1.5350985  
C    7.6822470   -1.1338558   -4.2889163  
C    8.9745071   -0.8030956   -4.5433505  
C    9.0025699    0.6173126   -4.8012034  
C    7.6107564    1.0903540   -4.6752043  
N    6.8600598   -0.0197976   -4.3639023  
C    7.2179988    2.3781811   -4.8453449  
C    8.2338443    3.3641241   -5.1747532  
O    7.9806505    4.5491426   -5.3477425  
C    9.7141932    2.8854245   -5.3133838  
O   10.5781169    3.7063891   -5.5907188  
C   10.0146428    1.4709471   -5.1064153  
H    9.8124205   -1.4772417   -4.5498555  
H    6.1917678    2.7042710   -4.7482629  
H   11.0421058    1.1476569   -5.2040227  
H    7.2613411   -2.0977761   -4.0531502  
C    3.1301144    0.0010313    3.1728260  
C    2.5367765    0.0002768    1.9564670  
C    1.1089900   -0.0001027    2.2356185  
C    1.0177864    0.0004150    3.7115134  
N    2.1993570    0.0011613    4.2663826  
C   -0.2459220    0.0002880    4.3957118  
C   -1.3675327    0.0000606    3.6398520  
O   -2.6129319   -0.0000866    4.1448486  
C   -1.3083589   -0.0000910    2.1483229  
O   -2.3693264   -0.0004206    1.5241687  
C    0.0000000    0.0000000    1.4700000  
H    3.0096015    0.0001008    0.9892483  
H   -0.2829642    0.0004689    5.4753125  
H   -3.1967446   -0.0002093    3.3649027  
H    4.1849273    0.0015113    3.3971983  
