60

C    3.3041272    0.0001176   -1.5420427  
C    2.5845371   -0.0004783   -0.3695852  
C    1.2040006   -0.0000009   -0.7283586  
C    1.1422374    0.0006035   -2.1454371  
N    2.4348638    0.0026108   -2.6077464  
C   -0.0655183    0.0008794   -2.8497913  
C   -1.2321770    0.0002322   -2.1101398  
O   -2.4392812    0.0001143   -2.7472517  
C   -1.1911210   -0.0000008   -0.6955262  
O   -2.4371530   -0.0002321   -0.1032856  
C    0.0000000    0.0000000    0.0000000  
H    3.0031533   -0.0000661    0.6222589  
H   -0.1193551    0.0014842   -3.9297465  
H   -3.1132988   -0.0000649   -2.0551781  
H   -2.3200286   -0.0004070    0.8516415  
H    4.3686622    0.0004069   -1.7024291  
C    3.8594204   -0.7175077   -4.5601988  
C    2.8310659   -0.0116220   -4.0232747  
C    2.2094024    0.7153300   -5.1048987  
C    2.9652785    0.3726183   -6.3247312  
N    3.9521592   -0.4993327   -5.9264123  
C    2.6888637    0.8568055   -7.5620111  
C    1.5725228    1.7770483   -7.7015487  
O    1.2438400    2.2678073   -8.7736603  
C    0.7583121    2.1540909   -6.4229925  
O   -0.1835068    2.9281700   -6.5280646  
C    1.1517637    1.5673729   -5.1443959  
H    3.2557692    0.5925696   -8.4438887  
H    0.5827554    1.8333881   -4.2639475  
H    4.5574573   -1.3785741   -4.0727306  
C    5.3929200   -2.4202348   -6.7465991  
C    6.3179642   -2.6744906   -7.7077039  
C    6.4938163   -1.4525392   -8.4565338  
C    5.5889275   -0.4584070   -7.8485299  
N    4.9501295   -1.1081275   -6.8176614  
C    5.4610470    0.8248177   -8.2712416  
C    6.2683620    1.2555047   -9.4005267  
O    6.2250557    2.3909281   -9.8557617  
C    7.2333541    0.2193088  -10.0599909  
O    7.9178127    0.5703012  -11.0116118  
C    7.2839568   -1.1351892   -9.5153562  
H    6.8197192   -3.6112030   -7.8733116  
H    4.7914143    1.5381320   -7.8111488  
H    7.9548389   -1.8465580   -9.9775180  
H    4.9972679   -3.0810676   -5.9925112  
C    0.8175213    0.6860729    2.3021913  
C    0.0000000    0.0000000    1.4700000  
C   -0.8887526   -0.7456559    2.3478473  
C   -0.4549825   -0.3816753    3.7138435  
N    0.5448156    0.4573574    3.6934124  
C   -1.0945674   -0.9182058    4.8835240  
C   -2.1210866   -1.7789155    4.6970523  
O   -2.8083856   -2.3554314    5.6976972  
C   -2.5824069   -2.1655116    3.3310774  
O   -3.5227682   -2.9541547    3.2362962  
C   -1.9100805   -1.6015804    2.1470656  
H   -0.7567140   -0.6349833    5.8697035  
H   -3.4728268   -2.9124471    5.2533954  
H   -2.2742832   -1.9066565    1.1752040  
H    1.6189533    1.3585343    2.0405121  
