64

C    2.8346300   -0.6809230   -3.3508859  
C    3.4395163   -0.4171705   -4.5579548  
C    2.6017692    0.5065367   -5.2504464  
C    1.4910361    0.7724573   -4.4093251  
N    1.6628945    0.0339172   -3.2649299  
C    0.4591595    1.6433871   -4.7719561  
C    0.5503732    2.2572843   -6.0060504  
O   -0.4295451    3.1173045   -6.4099542  
C    1.6505928    2.0044729   -6.8595253  
O    1.5963514    2.6915462   -8.0546534  
C    2.6687901    1.1451904   -6.5025462  
H   -0.3901599    1.8501827   -4.1354863  
H   -0.1741866    3.4292996   -7.2878594  
H    2.3755033    2.4647860   -8.5714758  
H    3.4987572    0.9711159   -7.1773284  
H    3.1455910   -1.3234977   -2.5450572  
C    5.1088003   -2.2944981   -4.8217107  
C    6.3544202   -2.4772965   -5.3762216  
C    6.7440701   -1.2287954   -5.9454472  
C    5.6872323   -0.3138128   -5.7049743  
N    4.7094274   -0.9938800   -5.0223161  
C    5.7288328    1.0179605   -6.1285749  
C    6.8580024    1.4337177   -6.8070287  
O    6.9510043    2.7238684   -7.2427757  
C    7.9227661    0.5355776   -7.0569103  
O    8.9769813    1.1007736   -7.7443169  
C    7.8822924   -0.7784605   -6.6395471  
H    6.9129770   -3.3976171   -5.3720367  
H    4.9266150    1.7202729   -5.9485582  
H    7.8062387    2.8016359   -7.6852602  
H    9.6526903    0.4278781   -7.8717245  
H    8.7130784   -1.4431368   -6.8456491  
H    4.4730302   -2.9893488   -4.3002346  
C    1.1243410    0.0100105   -0.7919003  
C    0.7474072    0.0234665   -2.1148542  
C   -0.6787384    0.0234379   -2.1414698  
C   -1.1201748    0.0098411   -0.7935547  
N    0.0000000    0.0000000    0.0000000  
C   -2.4730818    0.0063307   -0.4408240  
C   -3.3971962    0.0170429   -1.4675058  
O   -4.7313520    0.0145490   -1.1793468  
C   -2.9763654    0.0303020   -2.8186325  
O   -4.0166484    0.0394464   -3.7247625  
C   -1.6418567    0.0334992   -3.1673480  
H   -2.8160166   -0.0041569    0.5845966  
H   -5.1938823    0.0230023   -2.0274386  
H   -3.6464680    0.0481700   -4.6127343  
H   -1.3497475    0.0435647   -4.2109234  
H    2.1062466    0.0053162   -0.3505405  
C    0.0000000    0.0000000    1.4700000  
C    1.0662921    0.0000102    2.3034270  
C    0.4961870   -0.0000064    3.6418889  
C   -0.9663858    0.0000850    3.4240247  
N   -1.2632773    0.0000084    2.1528658  
C   -1.8985362    0.0000517    4.5177257  
C   -1.3925775   -0.0004564    5.7720543  
O   -2.1456383   -0.0005410    6.8851312  
C    0.0786232   -0.0009323    6.0245000  
O    0.4683759   -0.0012588    7.1921102  
C    1.0143166   -0.0008442    4.8859032  
H    2.1107198   -0.0000632    2.0421868  
H   -2.9622183    0.0003270    4.3293377  
H   -1.5042274   -0.0009692    7.6184419  
H    2.0724152   -0.0013148    5.1109744  
