60

C    3.3003553    0.0005277   -1.4738968  
C    2.5232827    0.0003497   -2.6090736  
C    1.1623211   -0.0001319   -2.1820093  
C    1.1711889    0.0000584   -0.7636135  
N    2.4852304   -0.0014918   -0.3662348  
C    0.0000000    0.0000000    0.0000000  
C   -1.2020378    0.0000520   -0.6806487  
O   -2.3759249    0.0003495    0.0157736  
C   -1.2314646   -0.0005113   -2.0955514  
O   -2.5054378   -0.0008038   -2.6250193  
C   -0.0764502   -0.0007273   -2.8495195  
H    2.8036265    0.0088181    0.5858676  
H   -3.0835636    0.0000347   -0.6418829  
H   -2.4360030   -0.0011526   -3.5845935  
H   -0.1304075   -0.0013421   -3.9319085  
H    4.3715559    0.0004894   -1.3667115  
C    5.8843143   -2.1416056   -4.3706043  
C    5.8364464   -1.7353566   -5.6606622  
C    4.7035133   -0.8249896   -5.7254229  
C    4.1682361   -0.7974904   -4.3472697  
N    4.8563813   -1.5672827   -3.5486049  
C    3.0267454   -0.0008952   -3.9901685  
C    2.4466128    0.7350847   -4.9654196  
O    1.3754315    1.5237290   -4.7739746  
C    2.9636573    0.7287617   -6.3657000  
O    2.3859623    1.4229253   -7.2021365  
C    4.1359085   -0.0966510   -6.7069413  
H    6.4893670   -2.0184248   -6.4685249  
H    1.1962591    1.9150482   -5.6479990  
H    6.5846128   -2.8231841   -3.9145273  
C    5.0536869   -1.1622933   -8.8189201  
C    5.4159402   -0.8041959  -10.0777346  
C    5.1891421    0.6171250  -10.1928210  
C    4.6613066    1.0609101   -8.8885078  
N    4.6029359   -0.0653283   -8.1004275  
C    4.3210416    2.3407410   -8.5919308  
C    4.4854605    3.3483370   -9.6264605  
O    4.2072289    4.5282807   -9.4572812  
C    5.0425895    2.9007610  -11.0153764  
O    5.1850449    3.7401372  -11.8942482  
C    5.3743150    1.4923033  -11.2155194  
H    5.7982156   -1.4608163  -10.8388715  
H    3.9357319    2.6452537   -7.6287501  
H    5.7597009    1.1906162  -12.1799812  
H    5.0778863   -2.1353110   -8.3557343  
C    0.8175213    0.6860729    2.3021913  
C    0.0000000    0.0000000    1.4700000  
C   -0.8887526   -0.7456559    2.3478473  
C   -0.4549825   -0.3816753    3.7138435  
N    0.5448156    0.4573574    3.6934124  
C   -1.0945674   -0.9182058    4.8835240  
C   -2.1210866   -1.7789155    4.6970523  
O   -2.8083856   -2.3554314    5.6976972  
C   -2.5824069   -2.1655116    3.3310774  
O   -3.5227682   -2.9541547    3.2362962  
C   -1.9100805   -1.6015804    2.1470656  
H   -0.7567140   -0.6349833    5.8697035  
H   -3.4728268   -2.9124471    5.2533954  
H   -2.2742832   -1.9066565    1.1752040  
H    1.6189533    1.3585343    2.0405121  
