60

C   -3.2745626   -0.4410155   -1.5420435  
C   -2.5614874   -0.3444039   -0.3695855  
C   -1.1932332   -0.1606597   -0.7283590  
C   -1.1319416   -0.1530171   -2.1454376  
N   -2.4127403   -0.3274929   -2.6077469  
C    0.0650500    0.0078709   -2.8497918  
C    1.2211890    0.1641901   -2.1101396  
O    2.4174824    0.3253814   -2.7472516  
C    1.1804689    0.1589426   -0.6955257  
O    2.4153259    0.3254407   -0.1032863  
C    0.0000000    0.0000000    0.0000000  
H   -2.9763056   -0.4006719    0.6222582  
H    0.1184861    0.0144556   -3.9297468  
H    3.0854483    0.4154993   -2.0551783  
H    2.2992260    0.3099853    0.8516420  
H   -4.3295390   -0.5833526   -1.7024297  
C   -2.8072986   -0.3662561   -4.0232754  
C   -4.0421865   -0.5313425   -4.5635281  
C   -3.8826400   -0.4931269   -5.9980731  
C   -2.4432515   -0.2908224   -6.2511032  
N   -1.8470470   -0.2216832   -5.0131012  
C   -1.8847422   -0.1999780   -7.4846019  
C   -2.7597031   -0.3084858   -8.6401127  
O   -2.3528559   -0.2394691   -9.7925066  
C   -4.2874951   -0.5226949   -8.3956312  
O   -5.0339960   -0.6151893   -9.3607439  
C   -4.7713155   -0.6050400   -7.0197718  
H   -4.9601292   -0.6644916   -4.0192241  
H   -5.8304721   -0.7536519   -6.8590674  
H   -0.8652776   -0.0888966   -4.8532764  
C   -0.4457608    0.0017601   -7.7071651  
C    0.5315734    0.1269499   -6.7794124  
C    1.7554466    0.3048659   -7.5455592  
C    1.3206822    0.2600310   -8.9581997  
N    0.0313711    0.0826436   -9.0591929  
C    2.2501241    0.4006985  -10.0451391  
C    3.5545439    0.5784773   -9.7349476  
O    4.5300698    0.7236726  -10.6478048  
C    4.0244137    0.6285265   -8.3190103  
O    5.2263700    0.7930450   -8.1105509  
C    3.0515675    0.4816794   -7.2217727  
H    0.4340163    0.1017720   -5.7075334  
H    1.9046525    0.3637755  -11.0679757  
H    5.3449910    0.8312443  -10.1248475  
H    3.4320758    0.5237734   -6.2100066  
C    2.5528530    2.1414826    2.8079335  
C    2.0663498    1.7338582    4.0032312  
C    0.9804344    0.8229586    3.6752840  
C    0.9495562    0.7966882    2.1971295  
N    1.8690446    1.5676019    1.6831036  
C    0.0000000    0.0000000    1.4700000  
C   -0.8785127   -0.7372425    2.1869543  
O   -1.8187535   -1.5261249    1.6395491  
C   -0.8723269   -0.7321790    3.6796354  
O   -1.7010379   -1.4274584    4.2670412  
C    0.1115397    0.0933559    4.4024240  
H    2.4028853    2.0163452    4.9860947  
H   -2.2861435   -1.9184361    2.3990168  
H    0.0832434    0.0693689    5.4835595  
H    3.3664920    2.8238276    2.6198634  
