60

C   -3.3040222    0.0260821   -1.5420461  
C   -2.5844514    0.0209719   -0.3695876  
C   -1.2039617    0.0095477   -0.7283601  
C   -1.1422038    0.0084534   -2.1454382  
N   -2.4348053    0.0166962   -2.6077486  
C    0.0655129   -0.0013994   -2.8497918  
C    1.2321389   -0.0100031   -2.1101387  
O    2.4392062   -0.0194570   -2.7472495  
C    1.1910842   -0.0094442   -0.6955253  
O    2.4370783   -0.0190933   -0.1032838  
C    0.0000000    0.0000000    0.0000000  
H   -3.0030586    0.0238794    0.6222555  
H   -2.7053174    0.0285623   -3.5745283  
H    0.1193428   -0.0024310   -3.9297466  
H    3.1132037   -0.0246221   -2.0551756  
H    2.3199585   -0.0179895    0.8516431  
C   -6.7368683    0.0542468    1.2348599  
C   -5.4908391    0.0442340    0.6950580  
C   -5.6535658    0.0445977   -0.7396389  
C   -7.1069579    0.0557522   -0.9932493  
N   -7.7074696    0.0607907    0.2445919  
C   -7.6721571    0.0597720   -2.2270394  
C   -6.7901660    0.0524099   -3.3822762  
O   -7.2021785    0.0551897   -4.5348989  
C   -5.2475743    0.0403079   -3.1371835  
O   -4.4950970    0.0337275   -4.1020646  
C   -4.7575741    0.0372131   -1.7610503  
H   -4.5635470    0.0371935    1.2397535  
H   -8.7407573    0.0681098   -2.3911547  
H   -7.0277390    0.0571791    2.2727790  
C  -10.0541977    2.2265026    3.2093946  
C  -11.3153225    1.8302401    2.9193582  
C  -11.1725118    0.9170352    1.7958983  
C   -9.7183523    0.8771356    1.5305466  
N   -9.0576612    1.6426903    2.3560176  
C   -9.1587276    0.0743652    0.4781841  
C  -10.0129383   -0.6556716   -0.2746137  
O   -9.6291946   -1.4489828   -1.2892263  
C  -11.4855592   -0.6368283   -0.0313143  
O  -12.2035720   -1.3261314   -0.7555649  
C  -12.0351801    0.1947259    1.0542084  
H  -12.2295722    2.1215790    3.4075616  
H  -10.4568675   -1.8339694   -1.6296615  
H  -13.1072486    0.1807414    1.1980911  
H   -9.7329437    2.9065689    3.9822326  
C    0.8175213    0.6860729    2.3021913  
C    0.0000000    0.0000000    1.4700000  
C   -0.8887526   -0.7456559    2.3478473  
C   -0.4549825   -0.3816753    3.7138435  
N    0.5448156    0.4573574    3.6934124  
C   -1.0945674   -0.9182058    4.8835240  
C   -2.1210866   -1.7789155    4.6970523  
O   -2.8083856   -2.3554314    5.6976972  
C   -2.5824069   -2.1655116    3.3310774  
O   -3.5227682   -2.9541547    3.2362962  
C   -1.9100805   -1.6015804    2.1470656  
H   -0.7567140   -0.6349833    5.8697035  
H   -3.4728268   -2.9124471    5.2533954  
H   -2.2742832   -1.9066565    1.1752040  
H    1.6189533    1.3585343    2.0405121  
