58

C    1.1319248    0.0015676   -0.8009264  
C    0.7969916    0.0034960   -2.1169399  
C   -0.6453338    0.0035697   -2.1842669  
C   -1.1266832    0.0015408   -0.7896028  
N    0.0000000    0.0000000    0.0000000  
C   -2.4346133    0.0013914   -0.4276295  
C   -3.4350114    0.0031336   -1.4820180  
O   -4.6384612    0.0030875   -1.2583916  
C   -2.9478959    0.0050442   -2.9661077  
O   -3.7809376    0.0062135   -3.8623778  
C   -1.5113822    0.0053056   -3.2312124  
H    1.4821237    0.0045436   -2.9459189  
H   -2.7664564    0.0000174    0.6013440  
H    2.1104316    0.0009435   -0.3488055  
C   -0.0314511   -0.6768997   -5.1763403  
C   -1.0641735    0.0073884   -4.6315337  
C   -1.6445842    0.7536296   -5.7373126  
C   -0.8153932    0.3919060   -6.9070059  
N    0.1317520   -0.4464152   -6.5843234  
C   -1.0694267    0.9296198   -8.2152172  
C   -2.1049955    1.7893047   -8.3489091  
O   -2.4559516    2.3667292   -9.5105682  
C   -2.9604499    2.1736234   -7.1875921  
O   -3.8859683    2.9614356   -7.3824977  
C   -2.6795558    1.6085129   -5.8557990  
H   -3.2246978    2.9226232   -9.2888397  
H   -3.3225050    1.9119420   -5.0404604  
H    0.6531476   -1.3491381   -4.6840054  
C    0.6248108   -2.9419322   -9.2773569  
C    1.2983002   -2.6555417  -10.4157642  
C    1.0766583   -1.2345652  -10.6353095  
C    0.2245849   -0.8110111   -9.5034278  
N   -0.0435083   -1.8075486   -8.7040349  
C   -0.2227558    0.5464488   -9.3541763  
C    0.1638812    1.4402348  -10.2927887  
O   -0.1796576    2.7393975  -10.2787239  
C    1.0238792    1.0436401  -11.4465989  
O    1.3372883    1.9098023  -12.2631521  
C    1.4697135   -0.3549347  -11.5775341  
H    1.8744320   -3.3257640  -11.0305420  
H    0.2438247    3.1164371  -11.0709716  
H    2.0917121   -0.6017520  -12.4274939  
H    0.5411293   -3.8934260   -8.7767267  
C    0.0000000    0.0000000    1.4700000  
C    1.0662921    0.0000102    2.3034270  
C    0.4961870   -0.0000064    3.6418889  
C   -0.9663858    0.0000850    3.4240247  
N   -1.2632773    0.0000084    2.1528658  
C   -1.8985362    0.0000517    4.5177257  
C   -1.3925775   -0.0004564    5.7720543  
O   -2.1456383   -0.0005410    6.8851312  
C    0.0786232   -0.0009323    6.0245000  
O    0.4683759   -0.0012588    7.1921102  
C    1.0143166   -0.0008442    4.8859032  
H    2.1107198   -0.0000632    2.0421868  
H   -2.9622183    0.0003270    4.3293377  
H   -1.5042274   -0.0009692    7.6184419  
H    2.0724152   -0.0013148    5.1109744  
