58

C    0.2055739   -0.7043959   -5.1603477  
C   -0.8712826    0.0001710   -4.7267111  
C   -1.3726447    0.7423359   -5.8592582  
C   -0.4933186    0.4099884   -6.9964127  
N    0.4429028   -0.4710986   -6.5064482  
C   -0.6357679    0.9095507   -8.2501475  
C   -1.7278975    1.8365869   -8.4958965  
O   -1.9397499    2.3410845   -9.5908403  
C   -2.6713157    2.2028687   -7.3061049  
O   -3.5940523    2.9825344   -7.5008824  
C   -2.4172085    1.5997592   -6.0001415  
H    0.0202135    0.6527125   -9.0702891  
H   -3.0751241    1.8584032   -5.1816215  
H    0.8458871   -1.3742665   -4.6097462  
C    2.1734998   -4.5327002   -6.5761475  
C    1.4273571   -3.4331571   -6.2962339  
C    1.9043243   -2.3718951   -7.1512547  
C    2.9973237   -2.9474214   -7.9580451  
N    3.1106646   -4.2598338   -7.5610359  
C    3.7083390   -2.2626778   -8.8893290  
C    3.3749931   -0.8655575   -9.1117478  
O    3.9571452   -0.1637027   -9.9283256  
C    2.2211468   -0.2353644   -8.2683619  
O    1.9317305    0.9401007   -8.4466341  
C    1.5273207   -1.0743986   -7.2944628  
H    0.6335669   -3.3724045   -5.5731710  
H    4.5062466   -2.7037557   -9.4704516  
H    2.1177317   -5.5193349   -6.1456459  
H    3.7709722   -4.9185758   -7.9313062  
C    1.0965514    0.0001359   -0.8010305  
C    0.0000000    0.0000000    0.0000000  
C   -1.1546563    0.0001470   -0.8669513  
C   -0.6372014    0.0003519   -2.2486282  
N    0.7342871    0.0007337   -2.1395014  
C   -1.4147739    0.0001352   -3.3608717  
C   -2.8576049   -0.0001048   -3.1854462  
O   -3.6427779   -0.0002494   -4.1244907  
C   -3.4275840   -0.0000725   -1.7311666  
O   -4.6406831    0.0000333   -1.5710060  
C   -2.4891867   -0.0001091   -0.6116744  
H   -2.8919122   -0.0002918    0.3920866  
H    2.1388272    0.0000663   -0.5261648  
H    1.3735872   -0.0006099   -2.9130262  
C    2.3971438    2.0127888    3.1728260  
C    1.9431056    1.6308205    1.9564670  
C    0.8496017    0.7127664    2.2356185  
C    0.7794028    0.6545384    3.7115134  
N    1.6840587    1.4146091    4.2663826  
C   -0.1885723   -0.1578550    4.3957118  
C   -1.0476298   -0.8789867    3.6398520  
O   -2.0015663   -1.6796266    4.1448486  
C   -1.0022026   -0.8410666    2.1483229  
O   -1.8147390   -1.5232959    1.5241687  
C    0.0000000    0.0000000    1.4700000  
H    2.3054237    1.9346118    0.9892483  
H   -0.2170646   -0.1815267    5.4753125  
H   -2.4487139   -2.0549881    3.3649027  
H    3.2048689    2.6911772    3.3971983  
