58

C    6.6317361    0.0027576   -4.3241621  
C    5.4016570    0.0020952   -3.7488541  
C    5.6054515    0.0015083   -2.3194126  
C    7.0655601    0.0019149   -2.1075800  
N    7.6303533    0.0022712   -3.3621311  
C    7.6659163    0.0019589   -0.8905033  
C    6.8173812    0.0013544    0.2895489  
O    7.2622824    0.0012815    1.4298835  
C    5.2683493    0.0006644    0.0887878  
O    4.5438183   -0.0001546    1.0748482  
C    4.7390840    0.0009613   -1.2727298  
H    4.4591015    0.0018433   -4.2667371  
H    8.7388160    0.0023904   -0.7570959  
H    8.6161382    0.0041519   -3.5499387  
C    6.0833795    0.0021289   -6.8015939  
C    6.7270059    0.0010030   -7.9973445  
C    8.1427119    0.0013412   -7.7134229  
C    8.2720320    0.0027374   -6.2437065  
N    6.9876823    0.0035562   -5.7504164  
C    9.4533909    0.0030306   -5.5758034  
C   10.6793288    0.0021216   -6.3565789  
O   11.7928167    0.0023591   -5.8482030  
C   10.5660678    0.0008903   -7.9144535  
O   11.5913428    0.0004245   -8.5823394  
C    9.2364961    0.0003992   -8.5195077  
H    6.2629917    0.0002273   -8.9675518  
H    9.5262025    0.0039318   -4.4970965  
H    9.1667291   -0.0006592   -9.5987930  
H    5.0245147    0.0022530   -6.5998630  
C    3.2798077    0.0005856   -1.4499661  
C    2.5571132    0.0005565   -2.5996564  
C    1.1637425    0.0001547   -2.2210366  
C    1.1336959   -0.0000200   -0.7459475  
N    2.4483509   -0.0001429   -0.3402730  
C    0.0000000    0.0000000    0.0000000  
C   -1.2757370   -0.0000187   -0.6964411  
O   -2.3524597   -0.0000640   -0.1142306  
C   -1.2676502   -0.0000874   -2.2584078  
O   -2.3355774   -0.0004102   -2.8557287  
C    0.0181551    0.0001758   -2.9516297  
H    2.9547342    0.0006074   -3.5989118  
H    0.0150776    0.0003317   -4.0331632  
H    2.7563626    0.0012823    0.6148051  
C    2.5528530    2.1414826    2.8079335  
C    2.0663498    1.7338582    4.0032312  
C    0.9804344    0.8229586    3.6752840  
C    0.9495562    0.7966882    2.1971295  
N    1.8690446    1.5676019    1.6831036  
C    0.0000000    0.0000000    1.4700000  
C   -0.8785127   -0.7372425    2.1869543  
O   -1.8187535   -1.5261249    1.6395491  
C   -0.8723269   -0.7321790    3.6796354  
O   -1.7010379   -1.4274584    4.2670412  
C    0.1115397    0.0933559    4.4024240  
H    2.4028853    2.0163452    4.9860947  
H   -2.2861435   -1.9184361    2.3990168  
H    0.0832434    0.0693689    5.4835595  
H    3.3664920    2.8238276    2.6198634  
