58

C    6.5698745   -0.0006426    0.9721612  
C    7.6069601   -0.0018566    0.1026609  
C    6.9912940   -0.0024303   -1.2154642  
C    5.5370520   -0.0015106   -0.9475762  
N    5.2839240   -0.0003802    0.3330154  
C    4.5679461   -0.0016854   -2.0086701  
C    5.0305956   -0.0023424   -3.2796101  
O    4.2398096   -0.0025846   -4.3662096  
C    6.4922745   -0.0029067   -3.5823559  
O    6.8417597   -0.0036170   -4.7626441  
C    7.4664605   -0.0027577   -2.4765142  
H    8.6597315   -0.0022169    0.3279341  
H    4.8556979   -0.0030409   -5.1210835  
H    8.5162194   -0.0030652   -2.7377356  
C    6.6202815    0.0003740    2.4412962  
C    7.7145254    0.0003333    3.2376695  
C    7.1906524    0.0015778    4.5948931  
C    5.7214691    0.0023790    4.4273086  
N    5.3811634    0.0015979    3.1670790  
C    4.8273711    0.0036505    5.5523305  
C    5.3760436    0.0037123    6.7885724  
O    4.6615940    0.0048405    7.9268170  
C    6.8550348    0.0025455    6.9904211  
O    7.2845964    0.0027972    8.1439799  
C    7.7511348    0.0012956    5.8204091  
H    8.7493811   -0.0005351    2.9407689  
H    3.7578547    0.0044213    5.4005273  
H    5.3277732    0.0045422    8.6377028  
H    8.8163287    0.0003582    6.0090657  
C    3.1301149   -0.0010311   -1.7028252  
C    2.5367768   -0.0002767   -0.4864665  
C    1.1089904    0.0001028   -0.7656183  
C    1.0177872   -0.0004148   -2.2415132  
N    2.1993578   -0.0011611   -2.7963820  
C   -0.2459209   -0.0002877   -2.9257118  
C   -1.3675319   -0.0000605   -2.1698524  
O   -2.6129313    0.0000867   -2.6748490  
C   -1.3083584    0.0000910   -0.6783232  
O   -2.3693261    0.0004206   -0.0541692  
C    0.0000000    0.0000000    0.0000000  
H    3.0096017   -0.0001007    0.4807525  
H   -0.2829630   -0.0004687   -4.0053125  
H   -3.1967441    0.0002094   -1.8949034  
C    0.8175213    0.6860729    2.3021913  
C    0.0000000    0.0000000    1.4700000  
C   -0.8887526   -0.7456559    2.3478473  
C   -0.4549825   -0.3816753    3.7138435  
N    0.5448156    0.4573574    3.6934124  
C   -1.0945674   -0.9182058    4.8835240  
C   -2.1210866   -1.7789155    4.6970523  
O   -2.8083856   -2.3554314    5.6976972  
C   -2.5824069   -2.1655116    3.3310774  
O   -3.5227682   -2.9541547    3.2362962  
C   -1.9100805   -1.6015804    2.1470656  
H   -0.7567140   -0.6349833    5.8697035  
H   -3.4728268   -2.9124471    5.2533954  
H   -2.2742832   -1.9066565    1.1752040  
H    1.6189533    1.3585343    2.0405121  
