58

C    3.2798086    0.0005856   -1.4499649  
C    2.5571146    0.0005564   -2.5996552  
C    1.1637434    0.0001547   -2.2210360  
C    1.1336964   -0.0000200   -0.7459474  
N    2.4483514   -0.0001429   -0.3402721  
C    0.0000000    0.0000000    0.0000000  
C   -1.2757369   -0.0000187   -0.6964411  
O   -2.3524596   -0.0000640   -0.1142310  
C   -1.2676496   -0.0000875   -2.2584083  
O   -2.3355761   -0.0004103   -2.8557296  
C    0.0181560    0.0001757   -2.9516298  
H    2.9547354    0.0006073   -3.5989106  
H    4.3498548    0.0008613   -1.3200021  
H    2.7563627    0.0012825    0.6148062  
C    2.5654233   -2.1380210   -5.7671298  
C    2.0750619   -1.7307736   -6.9609783  
C    0.9890576   -0.8211467   -6.6298091  
C    0.9623553   -0.7951242   -5.1515689  
N    1.8841708   -1.5650742   -4.6402743  
C    0.0139738    0.0003876   -4.4216237  
C   -0.8674058    0.7367419   -5.1359674  
O   -1.8069744    1.5244844   -4.5857736  
C   -0.8654610    0.7319005   -6.6286606  
O   -1.6966232    1.4263292   -7.2136039  
C    0.1172756   -0.0924198   -7.3543667  
H    2.4091182   -2.0127391   -7.9448369  
H   -2.2769653    1.9163775   -5.3438503  
H    3.3803632   -2.8194750   -5.5814756  
C    0.6166716   -3.3096923  -10.2504428  
C    0.4709641   -2.6583714  -11.4277836  
C    0.2333656   -1.2705404  -11.0617619  
C    0.2694797   -1.2635321   -9.5835095  
N    0.4938890   -2.4560179   -9.1022536  
C    0.0746080   -0.0596560   -8.8233818  
C   -0.1459171    1.0852459   -9.5088764  
O   -0.3438803    2.2811660   -8.9286815  
C   -0.1877549    1.1106640  -11.0007764  
O   -0.3933072    2.1885511  -11.5585647  
C    0.0150083   -0.1374402  -11.7577757  
H    0.5188977   -3.0689784  -12.4218549  
H   -0.4721260    2.8987687   -9.6711592  
H   -0.0226502   -0.0767970  -12.8371889  
H    0.8073903   -4.3590914  -10.0911918  
C    2.5528530    2.1414826    2.8079335  
C    2.0663498    1.7338582    4.0032312  
C    0.9804344    0.8229586    3.6752840  
C    0.9495562    0.7966882    2.1971295  
N    1.8690446    1.5676019    1.6831036  
C    0.0000000    0.0000000    1.4700000  
C   -0.8785127   -0.7372425    2.1869543  
O   -1.8187535   -1.5261249    1.6395491  
C   -0.8723269   -0.7321790    3.6796354  
O   -1.7010379   -1.4274584    4.2670412  
C    0.1115397    0.0933559    4.4024240  
H    2.4028853    2.0163452    4.9860947  
H   -2.2861435   -1.9184361    2.3990168  
H    0.0832434    0.0693689    5.4835595  
H    3.3664920    2.8238276    2.6198634  
