60

C    3.3003540    0.0005278   -1.4738999  
C    2.5232804    0.0003503   -2.6090758  
C    1.1623192   -0.0001315   -2.1820108  
C    1.1711879    0.0000585   -0.7636151  
N    2.4852299   -0.0014918   -0.3662372  
C    0.0000000    0.0000000    0.0000000  
C   -1.2020386    0.0000521   -0.6806475  
O   -2.3759253    0.0003494    0.0157750  
C   -1.2314665   -0.0005112   -2.0955511  
O   -2.5054398   -0.0008035   -2.6250175  
C   -0.0764526   -0.0007268   -2.8495196  
H    2.8919941   -0.0005613   -3.6205317  
H    2.8036265    0.0088182    0.5858651  
H   -3.0835642    0.0000347   -0.6418815  
H   -2.4360056   -0.0011526   -3.5845916  
H    4.3715545    0.0004897   -1.3667156  
C    2.3339052   -2.1433058   -5.7798829  
C    1.7884015   -1.7364541   -6.9497019  
C    0.7199589   -0.8255796   -6.5686016  
C    0.7627093   -0.7984767   -5.0907582  
N    1.7068217   -1.5689200   -4.6227212  
C   -0.1496431   -0.0015606   -4.3176960  
C   -1.0629266    0.7351043   -4.9904313  
O   -1.9749220    1.5241144   -4.3973303  
C   -1.1310671    0.7291952   -6.4815657  
O   -1.9881511    1.4239803   -7.0273692  
C   -0.1842244   -0.0965584   -7.2519841  
H    2.0756462   -2.0194332   -7.9479450  
H   -2.4796327    1.9159033   -5.1328032  
H   -0.2663198   -0.0731902   -8.3303836  
C    4.1576057   -3.7034871   -6.5544500  
C    3.4545839   -3.0730592   -5.5785425  
C    4.0180957   -3.4912678   -4.3166426  
C    5.1149254   -4.4236807   -4.6396923  
N    5.1470914   -4.5096474   -6.0124503  
C    5.8974585   -5.0392873   -3.7175341  
C    5.6422550   -4.7654072   -2.3131140  
O    6.2920603   -5.2706662   -1.4071513  
C    4.4854959   -3.7813315   -1.9479999  
O    4.2610725   -3.5432837   -0.7689209  
C    3.7111555   -3.1790864   -3.0303815  
H    6.6969729   -5.7197592   -3.9756900  
H    2.9120927   -2.4986575   -2.7691559  
H    4.0359574   -3.6471473   -7.6239909  
H    5.7915506   -5.0699697   -6.5394777  
C    2.5528530    2.1414826    2.8079335  
C    2.0663498    1.7338582    4.0032312  
C    0.9804344    0.8229586    3.6752840  
C    0.9495562    0.7966882    2.1971295  
N    1.8690446    1.5676019    1.6831036  
C    0.0000000    0.0000000    1.4700000  
C   -0.8785127   -0.7372425    2.1869543  
O   -1.8187535   -1.5261249    1.6395491  
C   -0.8723269   -0.7321790    3.6796354  
O   -1.7010379   -1.4274584    4.2670412  
C    0.1115397    0.0933559    4.4024240  
H    2.4028853    2.0163452    4.9860947  
H   -2.2861435   -1.9184361    2.3990168  
H    0.0832434    0.0693689    5.4835595  
H    3.3664920    2.8238276    2.6198634  
