60

C    3.2573676   -0.0002917   -1.5109371  
C    2.5379470   -0.0001708   -0.3591953  
C    1.1435045    0.0000333   -0.7338497  
C    1.1092616   -0.0000080   -2.2088472  
N    2.4227572    0.0001912   -2.6182604  
C   -0.0265522   -0.0002520   -2.9515663  
C   -1.3003029   -0.0002638   -2.2514982  
O   -2.3786772   -0.0004130   -2.8306437  
C   -1.2877723    0.0000313   -0.6895611  
O   -2.3539953    0.0003306   -0.0892043  
C    0.0000000    0.0000000    0.0000000  
H    2.9384088   -0.0000367    0.6389246  
H    2.7280505   -0.0013403   -3.5742105  
C    2.4782044   -2.1081871   -5.8783636  
C    1.9212540   -1.6438938   -7.0265418  
C    0.8546005   -0.7486149   -6.6450160  
C    0.8356651   -0.7292243   -5.1698696  
N    1.8439072   -1.5742002   -4.7669391  
C   -0.0307336   -0.0004643   -4.4215606  
C   -1.0100784    0.8193482   -5.1153375  
O   -1.8333372    1.5114171   -4.5308830  
C   -1.0083697    0.8138723   -6.6773141  
O   -1.8284231    1.4999050   -7.2724045  
C   -0.0251070   -0.0124249   -7.3732163  
H    2.2230648   -1.8995536   -8.0266223  
H   -0.0304407   -0.0104840   -8.4547393  
H    3.2985217   -2.7956858   -5.7506342  
H    2.0835096   -1.7709321   -3.8125103  
C    4.7161340   -0.0005432   -1.6923240  
C    5.6747638   -0.0008961   -0.7370192  
C    6.9326504   -0.0010015   -1.4679236  
C    6.5359809   -0.0007813   -2.8924365  
N    5.2379023   -0.0004315   -3.0302076  
C    7.5063033   -0.0007603   -3.9524180  
C    8.8134784   -0.0005617   -3.6051004  
O    9.8251274   -0.0005263   -4.4897514  
C    9.2455296   -0.0004050   -2.1762925  
O   10.4523094   -0.0003514   -1.9335925  
C    8.2310917   -0.0004738   -1.1072555  
H    5.5443947   -0.0009739    0.3316621  
H    7.1881047   -0.0008038   -4.9847257  
H   10.6319794   -0.0003439   -3.9437272  
H    8.5850041   -0.0002402   -0.0850150  
C    2.5285572    2.1210227    2.9438989  
C    1.9331703    1.6216660    4.0790748  
C    0.8903039    0.7472258    3.6520102  
C    0.8972198    0.7527806    2.2336141  
N    1.9028376    1.5986179    1.8362361  
C    0.0000000    0.0000000    1.4700000  
C   -0.9207814   -0.7726952    2.1506477  
O   -1.8198395   -1.5274828    1.4542253  
C   -0.9436862   -0.7911793    3.5655508  
O   -1.9197945   -1.6098497    4.0950179  
C   -0.0590329   -0.0485852    4.3195194  
H    2.2150357    1.8593692    5.0905303  
H    2.1533708    1.7953814    0.8841339  
H   -2.3621246   -1.9821033    2.1118817  
H   -1.8668290   -1.5649508    5.0545920  
H   -0.1007624   -0.0827977    5.4019087  
H    3.3491200    2.8096064    2.8367138  
