58

C    3.1301135   -0.0010310   -1.7028268  
C    2.5367760   -0.0002766   -0.4864678  
C    1.1089896    0.0001028   -0.7656187  
C    1.0177856   -0.0004146   -2.2415137  
N    2.1993556   -0.0011609   -2.7963831  
C   -0.2459230   -0.0002875   -2.9257117  
C   -1.3675329   -0.0000603   -2.1698517  
O   -2.6129323    0.0000868   -2.6748480  
C   -1.3083600    0.0000911   -0.6783224  
O   -2.3693274    0.0004207   -0.0541677  
C    0.0000000    0.0000000    0.0000000  
H    3.0096013   -0.0001008    0.4807507  
H   -0.2829655   -0.0004685   -4.0053123  
H   -3.1967443    0.0002095   -1.8949021  
C    6.8847539    0.0010457    0.6986546  
C    5.5715649    0.0014847    0.3713743  
C    5.5475437   -0.0003218   -1.0832457  
C    6.9721645   -0.0016281   -1.4795249  
N    7.7607277   -0.0009151   -0.4392566  
C    7.3784650   -0.0036303   -2.8579307  
C    6.4057851   -0.0046862   -3.7977325  
O    6.6406148   -0.0065621   -5.1209457  
C    4.9592078   -0.0037853   -3.4295291  
O    4.1279690   -0.0047101   -4.3374177  
C    4.5679448   -0.0016852   -2.0086725  
H    4.7238874    0.0027738    1.0350893  
H    5.7562694   -0.0069354   -5.5297079  
H    7.3236793    0.0019889    1.6837014  
C    8.8049629   -0.0046032   -3.2129005  
C    9.8712101   -0.0038011   -2.3794170  
C   11.0323952   -0.0053995   -3.2558567  
C   10.4678013   -0.0072175   -4.6225367  
N    9.1625687   -0.0066793   -4.6036879  
C   11.3040428   -0.0091003   -5.7912034  
C   12.6434300   -0.0087752   -5.6031092  
O   13.5417208   -0.0103905   -6.6026653  
C   13.2436653   -0.0065846   -4.2364078  
O   14.4708381   -0.0065323   -4.1401398  
C   12.3647118   -0.0047223   -3.0534616  
H    9.8699061   -0.0022189   -1.3028151  
H   10.8643764   -0.0106115   -6.7779153  
H   14.4082162   -0.0096272   -6.1573141  
H   12.8386284   -0.0030473   -2.0810266  
C    2.5528530    2.1414826    2.8079335  
C    2.0663498    1.7338582    4.0032312  
C    0.9804344    0.8229586    3.6752840  
C    0.9495562    0.7966882    2.1971295  
N    1.8690446    1.5676019    1.6831036  
C    0.0000000    0.0000000    1.4700000  
C   -0.8785127   -0.7372425    2.1869543  
O   -1.8187535   -1.5261249    1.6395491  
C   -0.8723269   -0.7321790    3.6796354  
O   -1.7010379   -1.4274584    4.2670412  
C    0.1115397    0.0933559    4.4024240  
H    2.4028853    2.0163452    4.9860947  
H   -2.2861435   -1.9184361    2.3990168  
H    0.0832434    0.0693689    5.4835595  
H    3.3664920    2.8238276    2.6198634  
