58

C    3.2573668   -0.0002917   -1.5109385  
C    2.5379467   -0.0001706   -0.3591963  
C    1.1435041    0.0000333   -0.7338499  
C    1.1092603   -0.0000080   -2.2088473  
N    2.4227558    0.0001912   -2.6182611  
C   -0.0265539   -0.0002521   -2.9515659  
C   -1.3003041   -0.0002638   -2.2514973  
O   -2.3786791   -0.0004131   -2.8306423  
C   -1.2877726    0.0000313   -0.6895601  
O   -2.3539955    0.0003306   -0.0892030  
C    0.0000000    0.0000000    0.0000000  
H    2.9384090   -0.0000365    0.6389235  
H   -0.0296301   -0.0004082   -4.0327230  
H    4.3270393   -0.0004761   -1.6439451  
C    5.7040765   -2.1117450   -4.6322120  
C    5.5266109   -1.6490474   -5.8965268  
C    4.3947067   -0.7532597   -5.8619885  
C    3.9239244   -0.7318312   -4.4638843  
N    4.7594829   -1.5762331   -3.7698258  
C    2.8699635   -0.0020523   -4.0185829  
C    2.1511670    0.8167851   -4.9805457  
O    1.1885413    1.5096470   -4.6779000  
C    2.6322108    0.8091508   -6.4665956  
O    2.0346724    1.4943473   -7.2855673  
C    3.7812697   -0.0180910   -6.8260214  
H    6.1207058   -1.9060839   -6.7553616  
H    4.1081478   -0.0176445   -7.8569797  
H    4.6944954   -1.7716421   -2.7876654  
C    9.1078146   -4.3805151   -6.4018710  
C    8.0394068   -3.5587854   -6.2800302  
C    7.6740568   -3.6246457   -4.8733736  
C    8.6537047   -4.5581425   -4.2771718  
N    9.4967370   -5.0044109   -5.1683117  
C    8.6310628   -4.8949993   -2.8803531  
C    7.6735289   -4.3248967   -2.1139022  
O    7.5347883   -4.5489463   -0.7961030  
C    6.6708569   -3.3786282   -2.6860781  
O    5.8274908   -2.8973589   -1.9295506  
C    6.7149387   -3.0490616   -4.1218246  
H    7.5586624   -2.9794235   -7.0496403  
H    9.3591203   -5.5803299   -2.4714969  
H    6.7705882   -4.0057525   -0.5313541  
H    9.6739565   -4.6062713   -7.2915281  
C    0.8175213    0.6860729    2.3021913  
C    0.0000000    0.0000000    1.4700000  
C   -0.8887526   -0.7456559    2.3478473  
C   -0.4549825   -0.3816753    3.7138435  
N    0.5448156    0.4573574    3.6934124  
C   -1.0945674   -0.9182058    4.8835240  
C   -2.1210866   -1.7789155    4.6970523  
O   -2.8083856   -2.3554314    5.6976972  
C   -2.5824069   -2.1655116    3.3310774  
O   -3.5227682   -2.9541547    3.2362962  
C   -1.9100805   -1.6015804    2.1470656  
H   -0.7567140   -0.6349833    5.8697035  
H   -3.4728268   -2.9124471    5.2533954  
H   -2.2742832   -1.9066565    1.1752040  
H    1.6189533    1.3585343    2.0405121  
