58

C    0.0000000    0.0000000    0.0000000  
C    1.0541694   -0.0001722   -0.8560390  
C    0.5103145   -0.0000453   -2.1935954  
C   -0.9576361    0.0002459   -2.0455733  
N   -1.2018454   -0.0001391   -0.6915972  
C   -1.8348300    0.0008318   -3.0810613  
C   -1.2972833    0.0009738   -4.4314609  
O   -2.0050656    0.0014267   -5.4301325  
C    0.2542637    0.0004186   -4.6117574  
O    0.7184688    0.0002259   -5.7439120  
C    1.0974565    0.0000875   -3.4189127  
H    2.0940755   -0.0005483   -0.5817978  
H   -2.1128189    0.0014912   -0.2706798  
C   -4.4297970    2.1087668   -0.2339415  
C   -5.6380112    1.6447701   -0.6450383  
C   -5.3911858    0.7496342   -1.7507709  
C   -3.9296533    0.7300037   -1.9515867  
N   -3.4052338    1.5747186   -1.0006238  
C   -3.2941062    0.0012875   -2.9038250  
C   -4.1035790   -0.8182216   -3.7902190  
O   -3.6253046   -1.5102280   -4.6794218  
C   -5.6534073   -0.8124881   -3.5957863  
O   -6.3452671   -1.4982645   -4.3362606  
C   -6.2225088    0.0137341   -2.5340276  
H   -6.5931605    1.9005368   -0.2220880  
H   -7.2964256    0.0119729   -2.4058689  
H   -4.2016942    2.7960862    0.5644640  
H   -2.4284968    1.7712467   -0.8805879  
C    4.1985329   -2.1423510   -1.2324133  
C    5.3247416   -1.7348301   -1.8626199  
C    4.8654776   -0.8236667   -2.8996144  
C    3.3948139   -0.7971465   -2.7478589  
N    2.9980299   -1.5681529   -1.7721023  
C    2.5562225   -0.0001551   -3.6002997  
C    3.1594341    0.7371387   -4.5604396  
O    2.5003417    1.5262928   -5.4258138  
C    4.6414703    0.7318277   -4.7384875  
O    5.1222611    1.4271700   -5.6332280  
C    5.4799824   -0.0940164   -3.8514679  
H    6.3415669   -2.0175441   -1.6499827  
H    3.1964068    1.9185688   -5.9832776  
H    6.5493690   -0.0702023   -4.0129479  
H    4.1121693   -2.8248219   -0.4019027  
C    3.1301144    0.0010313    3.1728260  
C    2.5367765    0.0002768    1.9564670  
C    1.1089900   -0.0001027    2.2356185  
C    1.0177864    0.0004150    3.7115134  
N    2.1993570    0.0011613    4.2663826  
C   -0.2459220    0.0002880    4.3957118  
C   -1.3675327    0.0000606    3.6398520  
O   -2.6129319   -0.0000866    4.1448486  
C   -1.3083589   -0.0000910    2.1483229  
O   -2.3693264   -0.0004206    1.5241687  
C    0.0000000    0.0000000    1.4700000  
H    3.0096015    0.0001008    0.9892483  
H   -0.2829642    0.0004689    5.4753125  
H   -3.1967446   -0.0002093    3.3649027  
H    4.1849273    0.0015113    3.3971983  
