58

C   -3.2573668   -0.0016218   -1.5109375  
C   -2.5379468   -0.0013202   -0.3591956  
C   -1.1435038   -0.0007050   -0.7338497  
C   -1.1092609   -0.0006434   -2.2088472  
N   -2.4227561   -0.0016144   -2.6182605  
C    0.0265523    0.0002680   -2.9515662  
C    1.3003029    0.0010281   -2.2514981  
O    2.3786772    0.0018109   -2.8306424  
C    1.2877717    0.0007255   -0.6895608  
O    2.3539959    0.0010525   -0.0892037  
C    0.0000000    0.0000000    0.0000000  
H   -2.9384082   -0.0016896    0.6389242  
H    0.0296279    0.0004260   -4.0327230  
H   -2.7280504   -0.0002621   -3.5742112  
C   -6.5597219   -0.0030331    1.3835039  
C   -7.6114508   -0.0035607    0.5244693  
C   -7.0637929   -0.0031632   -0.8115345  
C   -5.5962694   -0.0023843   -0.6593366  
N   -5.3559133   -0.0019432    0.6953288  
C   -4.7161329   -0.0022274   -1.6923248  
C   -5.2498356   -0.0026424   -3.0442482  
O   -4.5392148   -0.0024809   -4.0409022  
C   -6.8008633   -0.0032161   -3.2289581  
O   -7.2618459   -0.0032623   -4.3624288  
C   -7.6474464   -0.0036171   -2.0385170  
H   -8.7203347   -0.0042189   -2.1750239  
H   -6.5627881   -0.0031321    2.4614093  
H   -4.4461405   -0.0029395    1.1188362  
C   -9.8039615    2.1032650    3.6926739  
C  -11.0559441    1.6382621    3.4469366  
C  -10.9585255    0.7429960    2.3182898  
C   -9.5369636    0.7243860    1.9238205  
N   -8.8907257    1.5697557    2.7959536  
C   -9.0339154   -0.0041305    0.8952726  
C   -9.9540300   -0.8244864    0.1252461  
O   -9.5984392   -1.5163911   -0.8198064  
C  -11.4639367   -0.8198403    0.5251999  
O  -12.2480837   -1.5063353   -0.1159709  
C  -11.8865651    0.0062621    1.6533813  
H  -11.9461451    1.8934441    3.9937800  
H  -12.9336932    0.0037455    1.9240110  
H   -9.4716596    2.7909776    4.4532767  
H   -7.9068608    1.7670376    2.7842500  
C    2.5528530    2.1414826    2.8079335  
C    2.0663498    1.7338582    4.0032312  
C    0.9804344    0.8229586    3.6752840  
C    0.9495562    0.7966882    2.1971295  
N    1.8690446    1.5676019    1.6831036  
C    0.0000000    0.0000000    1.4700000  
C   -0.8785127   -0.7372425    2.1869543  
O   -1.8187535   -1.5261249    1.6395491  
C   -0.8723269   -0.7321790    3.6796354  
O   -1.7010379   -1.4274584    4.2670412  
C    0.1115397    0.0933559    4.4024240  
H    2.4028853    2.0163452    4.9860947  
H   -2.2861435   -1.9184361    2.3990168  
H    0.0832434    0.0693689    5.4835595  
H    3.3664920    2.8238276    2.6198634  
