60

C    3.3321174    0.0004717   -1.3379335  
C    2.6974184    0.0000121   -2.5332312  
C    1.2800440   -0.0002115   -2.2052839  
C    1.2395035    0.0000645   -0.7271295  
N    2.4394064    0.0005461   -0.2131037  
C    0.0000000    0.0000000    0.0000000  
C   -1.1468696    0.0000636   -0.7169542  
O   -2.3742199    0.0000073   -0.1695491  
C   -1.1388768    0.0001610   -2.2096354  
O   -2.2206230    0.0000908   -2.7970413  
C    0.1454524    0.0001820   -2.9324241  
H    3.1367989   -0.0000646   -3.5160945  
H   -2.9844342    0.0001027   -0.9290167  
C    4.7795904    0.0008677   -1.0815724  
C    5.7862022    0.0008773   -1.9861784  
C    7.0047292    0.0013414   -1.1913883  
C    6.5351377    0.0016828    0.2107769  
N    5.2316826    0.0013265    0.2814348  
C    7.4495160    0.0021408    1.3193791  
C    8.7728596    0.0018637    1.0399231  
O    9.7375497    0.0022378    1.9755591  
C    9.2780077    0.0011453   -0.3647071  
O   10.4956955    0.0010510   -0.5448615  
C    8.3200399    0.0007293   -1.4846275  
H    5.7111083    0.0005131   -3.0601603  
H    7.0785137    0.0025898    2.3339070  
H   10.5714818    0.0018717    1.4718634  
H    8.7261893    0.0000960   -2.4872600  
C    0.8834475   -0.6856105   -5.2614098  
C    0.0950453    0.0004357   -4.4015596  
C   -0.8231754    0.7463701   -5.2482897  
C   -0.4365554    0.3825632   -6.6284180  
N    0.5632305   -0.4566160   -6.6424231  
C   -1.1157933    0.9193870   -7.7753885  
C   -2.1351865    1.7802113   -7.5536831  
O   -2.8563081    2.3569979   -8.5300748  
C   -2.5493380    2.1666375   -6.1726274  
O   -3.4857787    2.9553987   -6.0455245  
C   -1.8368906    1.6024060   -5.0124612  
H   -0.8119973    0.6362863   -8.7726206  
H   -3.5050402    2.9140321   -8.0631571  
H   -2.1675078    1.9073665   -4.0286311  
H    1.6932812   -1.3582316   -5.0274783  
C    0.8576279    0.7185626    2.2703808  
C    0.0000000    0.0000000    1.4700000  
C   -0.8668858   -0.7285659    2.3373528  
C   -0.4876752   -0.4117774    3.6669281  
N    0.5635254    0.4678311    3.5902241  
C   -1.1297612   -0.9515493    4.7854808  
C   -2.1738724   -1.8268314    4.5576857  
O   -2.8357962   -2.3827064    5.6140350  
C   -2.5667212   -2.1555554    3.2384331  
O   -3.6226318   -3.0413663    3.1773122  
C   -1.9335634   -1.6236449    2.1344818  
H    1.0363952    0.8769718    4.3757045  
H   -0.8454472   -0.7142436    5.8013813  
H   -3.5178062   -2.9546422    5.2385129  
H   -3.8247440   -3.2102924    2.2519915  
H   -2.2566033   -1.8942483    1.1360343  
H    1.6567807    1.3889844    2.0042067  
