60

C    1.1188640    0.0008225   -0.8003806  
C    0.0000000    0.0000000    0.0000000  
C   -1.1323864    0.0008894   -0.8673523  
C   -0.6382662    0.0019674   -2.1969278  
N    0.7324012    0.0038482   -2.1202238  
C   -1.4770921    0.0027310   -3.3154804  
C   -2.8395484    0.0020931   -3.0876848  
O   -3.7039203    0.0024407   -4.1440338  
C   -3.3517872    0.0013915   -1.7684323  
O   -4.7300495    0.0012347   -1.7073113  
C   -2.5248544    0.0009114   -0.6644813  
H   -1.1067576    0.0036981   -4.3313808  
H   -4.5940038    0.0021809   -3.7685116  
H   -4.9934601    0.0007245   -0.7819905  
H   -2.9462578    0.0005591    0.3339665  
H    2.1619890    0.0009362   -0.5342066  
C    4.5412311   -2.0990423   -2.8732840  
C    3.3927951   -1.6299043   -2.3209431  
C    2.7903275   -0.7451813   -3.2900321  
C    3.6883334   -0.7373091   -4.4606360  
N    4.7307585   -1.5775589   -4.1440610  
C    3.4698847   -0.0211176   -5.5924726  
C    2.2703741    0.7967039   -5.6623077  
O    1.9845385    1.4779286   -6.6382851  
C    1.3053385    0.8036751   -4.4341122  
O    0.2924793    1.4886258   -4.4812227  
C    1.6478429   -0.0100097   -3.2702997  
H    3.0113377   -1.8754395   -1.3458453  
H    4.1412524   -0.0294712   -6.4398842  
H    5.2651730   -2.7816953   -2.4588174  
C    5.8697547   -1.8773089   -5.0236850  
C    6.9351278   -2.6886332   -4.7982789  
C    7.7640802   -2.6328329   -5.9791941  
C    7.0894949   -1.7158976   -6.9177861  
N    5.9470347   -1.2926201   -6.2786378  
C    7.5574542   -1.3968376   -8.1510413  
C    8.8089318   -1.9967260   -8.5828646  
O    9.3129315   -1.7725728   -9.6755871  
C    9.5402846   -2.9709315   -7.6051875  
O   10.5945109   -3.4822826   -7.9578724  
C    8.9375572   -3.2371743   -6.3014672  
H    7.1191847   -3.2610240   -3.9065919  
H    7.0471550   -0.7218253   -8.8239918  
H    9.4503364   -3.9126970   -5.6303112  
H    5.2741706   -0.6553770   -6.6636353  
C    2.5528530    2.1414826    2.8079335  
C    2.0663498    1.7338582    4.0032312  
C    0.9804344    0.8229586    3.6752840  
C    0.9495562    0.7966882    2.1971295  
N    1.8690446    1.5676019    1.6831036  
C    0.0000000    0.0000000    1.4700000  
C   -0.8785127   -0.7372425    2.1869543  
O   -1.8187535   -1.5261249    1.6395491  
C   -0.8723269   -0.7321790    3.6796354  
O   -1.7010379   -1.4274584    4.2670412  
C    0.1115397    0.0933559    4.4024240  
H    2.4028853    2.0163452    4.9860947  
H   -2.2861435   -1.9184361    2.3990168  
H    0.0832434    0.0693689    5.4835595  
H    3.3664920    2.8238276    2.6198634  
