60

C   -3.3041035    0.0127939   -1.5420414  
C   -2.5845161    0.0105776   -0.3695841  
C   -1.2039919    0.0047056   -0.7283581  
C   -1.1422324    0.0038597   -2.1454365  
N   -2.4348569    0.0069038   -2.6077451  
C    0.0655126   -0.0011360   -2.8497915  
C    1.2321660   -0.0050477   -2.1101403  
O    2.4392609   -0.0096470   -2.7472527  
C    1.1911105   -0.0046539   -0.6955270  
O    2.4371339   -0.0092919   -0.1032872  
C    0.0000000    0.0000000    0.0000000  
H   -3.0031302    0.0118016    0.6222597  
H   -2.7054161    0.0176819   -3.5745247  
H    0.1193466   -0.0019510   -3.9297471  
H    3.1132746   -0.0121014   -2.0551798  
H    2.3200124   -0.0086591    0.8516402  
C   -5.7131368    0.0220918   -0.7960682  
C   -4.7576885    0.0180790   -1.7610437  
C   -5.4429414    0.0197132   -3.0319735  
C   -6.8862794    0.0250745   -2.7261369  
N   -6.9826945    0.0258870   -1.3536963  
C   -7.8702614    0.0283904   -3.6607351  
C   -7.4818437    0.0263306   -5.0613289  
O   -8.2934285    0.0289429   -5.9776394  
C   -5.9588894    0.0204104   -5.4082866  
O   -5.6197921    0.0183253   -6.5839859  
C   -4.9916985    0.0175077   -4.3135786  
H   -3.9391481    0.0136157   -4.5622683  
H   -5.5966160    0.0223789    0.2755248  
H   -7.8428185    0.0307512   -0.8367725  
C   -9.9239572    0.7227150   -2.3418841  
C   -9.3018172    0.0338941   -3.3267938  
C  -10.3613999   -0.7080753   -3.9925762  
C  -11.5917684   -0.3391756   -3.2599844  
N  -11.3416024    0.4993309   -2.2913189  
C  -12.8781647   -0.8710391   -3.6169054  
C  -12.9329898   -1.7319852   -4.6585872  
O  -14.0657600   -2.3044454   -5.1003582  
C  -11.7089850   -2.1234880   -5.4179946  
O  -11.8332606   -2.9120630   -6.3549713  
C  -10.4010921   -1.5642921   -5.0324551  
H  -13.7607414   -0.5842763   -3.0639723  
H  -13.7861067   -2.8628259   -5.8481268  
H   -9.5385262   -1.8728431   -5.6077871  
H   -9.4845403    1.3938362   -1.6211327  
C    0.8175213    0.6860729    2.3021913  
C    0.0000000    0.0000000    1.4700000  
C   -0.8887526   -0.7456559    2.3478473  
C   -0.4549825   -0.3816753    3.7138435  
N    0.5448156    0.4573574    3.6934124  
C   -1.0945674   -0.9182058    4.8835240  
C   -2.1210866   -1.7789155    4.6970523  
O   -2.8083856   -2.3554314    5.6976972  
C   -2.5824069   -2.1655116    3.3310774  
O   -3.5227682   -2.9541547    3.2362962  
C   -1.9100805   -1.6015804    2.1470656  
H   -0.7567140   -0.6349833    5.8697035  
H   -3.4728268   -2.9124471    5.2533954  
H   -2.2742832   -1.9066565    1.1752040  
H    1.6189533    1.3585343    2.0405121  
