62

C   -3.3040214    0.0264882   -1.5420423  
C   -2.5844501    0.0212895   -0.3695849  
C   -1.2039619    0.0096957   -0.7283587  
C   -1.1422058    0.0085939   -2.1454373  
N   -2.4348070    0.0169954   -2.6077462  
C    0.0655084   -0.0014075   -2.8497918  
C    1.2321345   -0.0101545   -2.1101399  
O    2.4392004   -0.0197567   -2.7472523  
C    1.1910818   -0.0095906   -0.6955266  
O    2.4370746   -0.0193929   -0.1032865  
C    0.0000000    0.0000000    0.0000000  
H   -3.0030554    0.0242485    0.6222587  
H   -2.7053185    0.0288948   -3.5745256  
H    0.1193383   -0.0024456   -3.9297471  
H    3.1131983   -0.0250046   -2.0551791  
H    2.3199563   -0.0182746    0.8516405  
C   -5.7082278    0.0289584   -0.7673025  
C   -6.9603017    0.0273313   -1.3371933  
C   -6.7740977    0.0338077   -2.7513664  
C   -5.3753896    0.0389661   -2.9869807  
N   -4.7575722    0.0377978   -1.7610452  
C   -4.8249743    0.0456850   -4.2721993  
C   -5.7025327    0.0469176   -5.3390020  
O   -5.2187679    0.0530348   -6.6153040  
C   -7.1013436    0.0422116   -5.1242398  
O   -7.8423769    0.0445930   -6.2879439  
C   -7.6450452    0.0358557   -3.8566137  
H   -3.7598515    0.0497842   -4.4584755  
H   -5.9885022    0.0531314   -7.1990611  
H   -8.7756364    0.0410812   -6.0542398  
H   -8.7205425    0.0325406   -3.7232980  
H   -5.4180959    0.0259586    0.2694103  
C   -8.1237397    2.1529474    2.2843626  
C   -9.4013623    1.7417432    2.4580589  
C   -9.6572345    0.8342863    1.3501098  
C   -8.3918212    0.8137190    0.5853290  
N   -7.4891724    1.5847389    1.1282312  
C   -8.2340049    0.0217216   -0.6033340  
C   -9.2921052   -0.7164842   -1.0093027  
O   -9.2853806   -1.5013804   -2.1001434  
C  -10.5823834   -0.7171293   -0.2587423  
O  -11.5034689   -1.4129782   -0.6860800  
C  -10.7193766    0.1036620    0.9575881  
H  -10.0856195    2.0198006    3.2413543  
H  -10.1758655   -1.8956466   -2.1274069  
H  -11.6702138    0.0756064    1.4727116  
H   -7.5561594    2.8343682    2.8979517  
C    0.8175213    0.6860729    2.3021913  
C    0.0000000    0.0000000    1.4700000  
C   -0.8887526   -0.7456559    2.3478473  
C   -0.4549825   -0.3816753    3.7138435  
N    0.5448156    0.4573574    3.6934124  
C   -1.0945674   -0.9182058    4.8835240  
C   -2.1210866   -1.7789155    4.6970523  
O   -2.8083856   -2.3554314    5.6976972  
C   -2.5824069   -2.1655116    3.3310774  
O   -3.5227682   -2.9541547    3.2362962  
C   -1.9100805   -1.6015804    2.1470656  
H   -0.7567140   -0.6349833    5.8697035  
H   -3.4728268   -2.9124471    5.2533954  
H   -2.2742832   -1.9066565    1.1752040  
H    1.6189533    1.3585343    2.0405121  
