58

C    0.0950454    0.0004355   -4.4015597  
C    1.1321312    0.0015832   -5.2710601  
C    0.5164649    0.0012887   -6.5891851  
C   -0.9377764   -0.0002312   -6.3212971  
N   -1.1909041   -0.0006563   -5.0407050  
C   -1.9068819   -0.0008956   -7.3823909  
C   -1.4442334    0.0003102   -8.6533310  
O   -2.2350192   -0.0001293   -9.7399308  
C    0.0174446    0.0022288   -8.9560762  
O    0.3669294    0.0031274  -10.1363652  
C    0.9916306    0.0028339   -7.8502350  
H    2.1849021    0.0026047   -5.0457871  
H   -2.9634778   -0.0022149   -7.1576397  
H   -1.6191320    0.0010355  -10.4948043  
C    3.3321175    0.0004717   -1.3379327  
C    2.6974188    0.0000119   -2.5332306  
C    1.2800443   -0.0002116   -2.2052839  
C    1.2395035    0.0000645   -0.7271296  
N    2.4394066    0.0005461   -0.2131028  
C    0.0000000    0.0000000    0.0000000  
C   -1.1468698    0.0000636   -0.7169540  
O   -2.3742201    0.0000072   -0.1695494  
C   -1.1388766    0.0001609   -2.2096356  
O   -2.2206229    0.0000907   -2.7970413  
C    0.1454528    0.0001819   -2.9324240  
H    3.1367992   -0.0000647   -3.5160944  
H   -2.9844342    0.0001026   -0.9290170  
H    4.3940041    0.0007621   -1.1498624  
C    2.4181272    0.0048935   -8.2052038  
C    3.4843741    0.0056955   -7.3717193  
C    4.6455588    0.0077775   -8.2481582  
C    4.0809655    0.0078686   -9.6148400  
N    2.7757333    0.0062631   -9.5959917  
C    4.9172073    0.0097450  -10.7835064  
C    6.2565916    0.0118419  -10.5954100  
O    7.1548819    0.0137371  -11.5949664  
C    6.8568260    0.0121809   -9.2287064  
O    8.0839973    0.0140134   -9.1324370  
C    5.9778723    0.0101856   -8.0457603  
H    3.4830690    0.0050547   -6.2951162  
H    4.4775411    0.0095604  -11.7702202  
H    8.0213758    0.0149789  -11.1496133  
H    6.4517875    0.0106187   -7.0733229  
C    2.5528530    2.1414826    2.8079335  
C    2.0663498    1.7338582    4.0032312  
C    0.9804344    0.8229586    3.6752840  
C    0.9495562    0.7966882    2.1971295  
N    1.8690446    1.5676019    1.6831036  
C    0.0000000    0.0000000    1.4700000  
C   -0.8785127   -0.7372425    2.1869543  
O   -1.8187535   -1.5261249    1.6395491  
C   -0.8723269   -0.7321790    3.6796354  
O   -1.7010379   -1.4274584    4.2670412  
C    0.1115397    0.0933559    4.4024240  
H    2.4028853    2.0163452    4.9860947  
H   -2.2861435   -1.9184361    2.3990168  
H    0.0832434    0.0693689    5.4835595  
H    3.3664920    2.8238276    2.6198634  
