64

C    3.3003547    0.0005275   -1.4738980  
C    2.5232816    0.0003495   -2.6090742  
C    1.1623206   -0.0001320   -2.1820096  
C    1.1711889    0.0000583   -0.7636136  
N    2.4852300   -0.0014920   -0.3662353  
C    0.0000000    0.0000000    0.0000000  
C   -1.2020382    0.0000519   -0.6806479  
O   -2.3759247    0.0003494    0.0157745  
C   -1.2314650   -0.0005113   -2.0955508  
O   -2.5054383   -0.0008037   -2.6250181  
C   -0.0764510   -0.0007273   -2.8495192  
H    2.8919962   -0.0005621   -3.6205295  
H    2.8036265    0.0088181    0.5858667  
H   -3.0835641    0.0000347   -0.6418820  
H   -2.4360047   -0.0011529   -3.5845921  
C    6.6264032    0.0032391   -4.4617161  
C    5.3881255    0.0032370   -3.8624358  
C    5.6076652    0.0015203   -2.4530389  
C    7.0115532    0.0008108   -2.2504935  
N    7.6002641   -0.0000642   -3.4906694  
C    7.5921595   -0.0005634   -0.9786118  
C    6.7400262   -0.0009265    0.1086077  
O    7.2537882   -0.0019039    1.3731475  
C    5.3365293   -0.0006068   -0.0730883  
O    4.6231719   -0.0014619    1.1077864  
C    4.7630506    0.0004754   -1.3275394  
H    4.4428895    0.0032321   -4.3777240  
H    8.5891806    0.0098628   -3.6636588  
H    8.6613880   -0.0012540   -0.8175187  
H    6.4980460   -0.0022988    1.9749102  
H    3.6846504   -0.0011488    0.8961682  
H    6.8919812    0.0038900   -5.5049934  
C   -0.1496409   -0.0015614   -4.3176961  
C    0.8738332   -0.0018840   -5.2031785  
C    0.2377946   -0.0027127   -6.5115952  
C   -1.2121170   -0.0029007   -6.2211811  
N   -1.4453505   -0.0021475   -4.9368173  
C   -2.1975656   -0.0036284   -7.2671145  
C   -1.7546863   -0.0037559   -8.5450784  
O   -2.5622321   -0.0044162   -9.6192807  
C   -0.2978794   -0.0032017   -8.8704614  
O    0.0332557   -0.0034791  -10.0560289  
C    0.6933431   -0.0025028   -7.7798645  
H    1.9299725   -0.0015051   -4.9942637  
H   -3.2505489   -0.0039569   -7.0260003  
H   -1.9581276   -0.0043076  -10.3836173  
H    1.7389231   -0.0020006   -8.0573383  
C    0.8576279    0.7185626    2.2703808  
C    0.0000000    0.0000000    1.4700000  
C   -0.8668858   -0.7285659    2.3373528  
C   -0.4876752   -0.4117774    3.6669281  
N    0.5635254    0.4678311    3.5902241  
C   -1.1297612   -0.9515493    4.7854808  
C   -2.1738724   -1.8268314    4.5576857  
O   -2.8357962   -2.3827064    5.6140350  
C   -2.5667212   -2.1555554    3.2384331  
O   -3.6226318   -3.0413663    3.1773122  
C   -1.9335634   -1.6236449    2.1344818  
H    1.0363952    0.8769718    4.3757045  
H   -0.8454472   -0.7142436    5.8013813  
H   -3.5178062   -2.9546422    5.2385129  
H   -3.8247440   -3.2102924    2.2519915  
H   -2.2566033   -1.8942483    1.1360343  
H    1.6567807    1.3889844    2.0042067  
