64

C    1.6071931   -2.0691458   -5.4061224  
C    0.7600336   -1.6164455   -4.4213127  
C   -0.1612458   -0.7224871   -5.0431507  
C    0.1755311   -0.6690407   -6.4199773  
N    1.2548207   -1.4967875   -6.6059509  
C   -0.5252823    0.1165513   -7.3400290  
C   -1.5855716    0.8615302   -6.8615195  
O   -2.3042732    1.6457771   -7.7167612  
C   -1.9367276    0.8217440   -5.4911463  
O   -3.0155710    1.6195943   -5.1704051  
C   -1.2456329    0.0471727   -4.5828766  
H    0.8017172   -1.8952903   -3.3823217  
H   -0.2735270    0.1617565   -8.3906367  
H   -2.9880781    2.0738671   -7.1853340  
H   -3.1866796    1.5350658   -4.2274409  
H    2.4357995   -2.7539197   -5.3473453  
C    2.3993797   -2.9696497   -8.3092123  
C    2.9720383   -2.8310980   -9.5523257  
C    2.8413576   -1.4592165   -9.9203803  
C    2.1753987   -0.8036302   -8.8533129  
N    1.9197875   -1.7500220   -7.8922604  
C    1.8773599    0.5622274   -8.8731795  
C    2.2588171    1.2793989   -9.9904673  
O    1.9927647    2.6162347  -10.0618770  
C    2.9238677    0.6430804  -11.0654668  
O    3.2377797    1.4928329  -12.1060075  
C    3.2179721   -0.7043895  -11.0466668  
H    3.4269117   -3.6217980  -10.1240570  
H    1.3698952    1.0678001   -8.0631928  
H    2.3376181    2.9182200  -10.9122574  
H    3.6842307    0.9842946  -12.7898736  
H    3.7281897   -1.1641172  -11.8850026  
H    2.2938127   -3.8422470   -7.6876105  
C    1.1243410    0.0099923   -0.7919003  
C    0.7474076    0.0234544   -2.1148543  
C   -0.6787381    0.0234490   -2.1414700  
C   -1.1201745    0.0098592   -0.7935546  
N    0.0000000    0.0000000    0.0000000  
C   -2.4730816    0.0063709   -0.4408240  
C   -3.3971958    0.0170982   -1.4675058  
O   -4.7313517    0.0146259   -1.1793471  
C   -2.9763648    0.0303504   -2.8186324  
O   -4.0166480    0.0395118   -3.7247624  
C   -1.6418562    0.0335260   -3.1673481  
H    1.4178717    0.0310972   -2.9571209  
H   -2.8160166   -0.0041111    0.5845966  
H   -5.1938818    0.0230867   -2.0274384  
H   -3.6464675    0.0482293   -4.6127343  
H    2.1062467    0.0052819   -0.3505407  
C    2.3971438    2.0127888    3.1728260  
C    1.9431056    1.6308205    1.9564670  
C    0.8496017    0.7127664    2.2356185  
C    0.7794028    0.6545384    3.7115134  
N    1.6840587    1.4146091    4.2663826  
C   -0.1885723   -0.1578550    4.3957118  
C   -1.0476298   -0.8789867    3.6398520  
O   -2.0015663   -1.6796266    4.1448486  
C   -1.0022026   -0.8410666    2.1483229  
O   -1.8147390   -1.5232959    1.5241687  
C    0.0000000    0.0000000    1.4700000  
H    2.3054237    1.9346118    0.9892483  
H   -0.2170646   -0.1815267    5.4753125  
H   -2.4487139   -2.0549881    3.3649027  
H    3.2048689    2.6911772    3.3971983  
