58

C    6.6317361    0.0027576   -4.3241621  
C    5.4016570    0.0020952   -3.7488541  
C    5.6054515    0.0015083   -2.3194126  
C    7.0655601    0.0019149   -2.1075800  
N    7.6303533    0.0022712   -3.3621311  
C    7.6659163    0.0019589   -0.8905033  
C    6.8173812    0.0013544    0.2895489  
O    7.2622824    0.0012815    1.4298835  
C    5.2683493    0.0006644    0.0887878  
O    4.5438183   -0.0001546    1.0748482  
C    4.7390840    0.0009613   -1.2727298  
H    4.4591015    0.0018433   -4.2667371  
H    8.7388160    0.0023904   -0.7570959  
H    8.6161382    0.0041519   -3.5499387  
C    6.9876823    0.0035562   -5.7504164  
C    6.1721656    0.0041685   -6.8362375  
C    7.0237124    0.0047813   -8.0023010  
C    8.4121371    0.0044444   -7.5032339  
N    8.3212257    0.0040997   -6.1304172  
C    9.5139594    0.0044420   -8.2955026  
C    9.3193964    0.0050210   -9.7358775  
O   10.2479338    0.0051276  -10.5334478  
C    7.8576782    0.0056373  -10.2865007  
O    7.6814278    0.0064341  -11.4973664  
C    6.7507420    0.0053003   -9.3333250  
H    5.0968005    0.0043708   -6.8219603  
H   10.5237306    0.0040617   -7.9091451  
H    5.7417233    0.0055257   -9.7226894  
H    9.1031694    0.0022623   -5.5014429  
C    3.2798077    0.0005856   -1.4499661  
C    2.5571132    0.0005565   -2.5996564  
C    1.1637425    0.0001547   -2.2210366  
C    1.1336959   -0.0000200   -0.7459475  
N    2.4483509   -0.0001429   -0.3402730  
C    0.0000000    0.0000000    0.0000000  
C   -1.2757370   -0.0000187   -0.6964411  
O   -2.3524597   -0.0000640   -0.1142306  
C   -1.2676502   -0.0000874   -2.2584078  
O   -2.3355774   -0.0004102   -2.8557287  
C    0.0181551    0.0001758   -2.9516297  
H    2.9547342    0.0006074   -3.5989118  
H    0.0150776    0.0003317   -4.0331632  
H    2.7563626    0.0012823    0.6148051  
C    2.3971438    2.0127888    3.1728260  
C    1.9431056    1.6308205    1.9564670  
C    0.8496017    0.7127664    2.2356185  
C    0.7794028    0.6545384    3.7115134  
N    1.6840587    1.4146091    4.2663826  
C   -0.1885723   -0.1578550    4.3957118  
C   -1.0476298   -0.8789867    3.6398520  
O   -2.0015663   -1.6796266    4.1448486  
C   -1.0022026   -0.8410666    2.1483229  
O   -1.8147390   -1.5232959    1.5241687  
C    0.0000000    0.0000000    1.4700000  
H    2.3054237    1.9346118    0.9892483  
H   -0.2170646   -0.1815267    5.4753125  
H   -2.4487139   -2.0549881    3.3649027  
H    3.2048689    2.6911772    3.3971983  
