60

C    0.0000000    0.0000000    0.0000000  
C   -1.0115594    0.2894874   -0.8862343  
C   -0.4725688    0.1359047   -2.1979131  
C    0.8834841   -0.2520812   -2.0478684  
N    1.1382741   -0.3233792   -0.7007912  
C    1.7261612   -0.4929558   -3.1372090  
C    1.1900617   -0.3396577   -4.4010422  
O    1.9686187   -0.5625659   -5.4997576  
C   -0.1605786    0.0471691   -4.5711960  
O   -0.5450646    0.1574710   -5.8915547  
C   -0.9924041    0.2852261   -3.4969890  
H   -2.0142498    0.5771592   -0.6200565  
H    2.0158157   -0.5850629   -0.2891825  
H    2.7606182   -0.7887770   -3.0295513  
H    1.4072835   -0.4016888   -6.2693589  
H   -1.4696232    0.4222255   -5.9180046  
C   -3.7985309    3.1797361   -1.5964878  
C   -2.6822461    2.4631402   -1.8647755  
C   -3.0433061    1.6132091   -2.9889428  
C   -4.4522009    1.9565160   -3.2783208  
N   -4.9003114    2.8742817   -2.4653676  
C   -5.1872260    1.3234897   -4.3385578  
C   -4.5438874    0.3902136   -5.0764230  
O   -5.1073484   -0.2797752   -6.0960641  
C   -3.1221643    0.0221408   -4.8092394  
O   -2.5999930   -0.8360104   -5.5206705  
C   -2.3897462    0.6856912   -3.7159924  
H   -1.7312316    2.5060778   -1.3619797  
H   -6.2158903    1.5937124   -4.5276057  
H   -4.4050766   -0.8708565   -6.4225463  
C   -1.0897840    4.7651494    1.4747489  
C   -1.9236411    5.6550553    2.0720971  
C   -3.1882603    5.5773246    1.3796143  
C   -3.0216208    4.5618853    0.3223041  
N   -1.7274711    4.1082912    0.4332919  
C   -3.9927969    4.1957428   -0.5520306  
C   -5.2886068    4.8452740   -0.4446933  
O   -6.2276413    4.5848363   -1.1854271  
C   -5.4873744    5.9238275    0.6675207  
O   -6.5739045    6.4776738    0.7673572  
C   -4.3657870    6.2332764    1.5507736  
H   -1.6805188    6.2932520    2.9028858  
H   -4.5116665    6.9810850    2.3183838  
H   -0.0630027    4.5340774    1.7075913  
H   -1.3110488    3.4065642   -0.1508477  
C    3.1301144    0.0010313    3.1728260  
C    2.5367765    0.0002768    1.9564670  
C    1.1089900   -0.0001027    2.2356185  
C    1.0177864    0.0004150    3.7115134  
N    2.1993570    0.0011613    4.2663826  
C   -0.2459220    0.0002880    4.3957118  
C   -1.3675327    0.0000606    3.6398520  
O   -2.6129319   -0.0000866    4.1448486  
C   -1.3083589   -0.0000910    2.1483229  
O   -2.3693264   -0.0004206    1.5241687  
C    0.0000000    0.0000000    1.4700000  
H    3.0096015    0.0001008    0.9892483  
H   -0.2829642    0.0004689    5.4753125  
H   -3.1967446   -0.0002093    3.3649027  
H    4.1849273    0.0015113    3.3971983  
