60

C   -3.3039187    0.0371450   -1.5420422  
C   -2.5843676    0.0296254   -0.3695845  
C   -1.2039244    0.0135790   -0.7283586  
C   -1.1421724    0.0122780   -2.1454371  
N   -2.4347393    0.0248487   -2.6077460  
C    0.0655031   -0.0016186   -2.8497917  
C    1.2320950   -0.0141285   -2.1101403  
O    2.4391243   -0.0276240   -2.7472529  
C    1.1910451   -0.0134322   -0.6955268  
O    2.4370003   -0.0272533   -0.1032870  
C    0.0000000    0.0000000    0.0000000  
H   -3.0029617    0.0339345    0.6222590  
H   -2.7052112    0.0376206   -3.5745253  
H    0.1193298   -0.0028304   -3.9297476  
H    3.1131015   -0.0350458   -2.0551796  
H    2.3198863   -0.0257573    0.8516402  
C   -6.6796741    0.0786716    1.2661404  
C   -7.7088159    0.0889356    0.3802301  
C   -7.1268895    0.0808264   -0.9411827  
C   -5.6638733    0.0648532   -0.7511336  
N   -5.4585738    0.0647035    0.6092859  
C   -4.7574256    0.0531429   -1.7610447  
C   -5.2560250    0.0567210   -3.1262998  
O   -4.5199627    0.0470375   -4.1042669  
C   -6.8016704    0.0738140   -3.3510068  
O   -7.2332125    0.0772722   -4.4960041  
C   -7.6786451    0.0851466   -2.1828287  
H   -8.7475871    0.0967511   -2.3469990  
H   -6.7105622    0.0803534    2.3436064  
H   -4.5601073    0.0538548    1.0561503  
C   -9.8391783    2.2585425    3.5014251  
C  -11.1182427    1.8649898    3.2997097  
C  -11.0558062    0.9518568    2.1688741  
C   -9.6237036    0.9090289    1.8030442  
N   -8.9056137    1.6729433    2.5807150  
C   -9.1402873    0.1054427    0.7141709  
C  -10.0462996   -0.6225763    0.0224599  
O   -9.7356936   -1.4163509   -1.0165236  
C  -11.4983961   -0.6007592    0.3675708  
O  -12.2664712   -1.2883364   -0.3051251  
C  -11.9694660    0.2315790    1.4888333  
H  -11.9957240    2.1580646    3.8503558  
H  -10.5858379   -1.7995099   -1.2986531  
H  -13.0289638    0.2197703    1.7069106  
H   -9.4635417    2.9376896    4.2501772  
C    2.5528530    2.1414826    2.8079335  
C    2.0663498    1.7338582    4.0032312  
C    0.9804344    0.8229586    3.6752840  
C    0.9495562    0.7966882    2.1971295  
N    1.8690446    1.5676019    1.6831036  
C    0.0000000    0.0000000    1.4700000  
C   -0.8785127   -0.7372425    2.1869543  
O   -1.8187535   -1.5261249    1.6395491  
C   -0.8723269   -0.7321790    3.6796354  
O   -1.7010379   -1.4274584    4.2670412  
C    0.1115397    0.0933559    4.4024240  
H    2.4028853    2.0163452    4.9860947  
H   -2.2861435   -1.9184361    2.3990168  
H    0.0832434    0.0693689    5.4835595  
H    3.3664920    2.8238276    2.6198634  
