58

C    3.2573671   -0.0002916   -1.5109383  
C    2.5379468   -0.0001707   -0.3591962  
C    1.1435044    0.0000332   -0.7338505  
C    1.1092610   -0.0000080   -2.2088480  
N    2.4227564    0.0001912   -2.6182614  
C   -0.0265531   -0.0002519   -2.9515665  
C   -1.3003034   -0.0002638   -2.2514983  
O   -2.3786783   -0.0004131   -2.8306430  
C   -1.2877727    0.0000312   -0.6895614  
O   -2.3539955    0.0003305   -0.0892044  
C    0.0000000    0.0000000    0.0000000  
H    2.9384088   -0.0000366    0.6389240  
H    4.3270398   -0.0004761   -1.6439444  
H    2.7280494   -0.0013402   -3.5742117  
C    2.4624173   -2.0918862   -5.9392956  
C    1.9141445   -1.6298144   -4.7860555  
C    0.8439987   -0.7345868   -5.1577961  
C    0.8135191   -0.7128498   -6.6327159  
N    1.8196257   -1.5559196   -7.0448718  
C   -0.0596539    0.0159613   -7.3730586  
C   -1.0343381    0.8337036   -6.6703333  
O   -1.8629430    1.5257398   -7.2472226  
C   -1.0200967    0.8261113   -5.1084287  
O   -1.8357401    1.5108614   -4.5058477  
C   -0.0307350   -0.0004643   -4.4215606  
H    2.2241310   -1.8866335   -3.7887767  
H   -0.0651886    0.0176600   -8.4542044  
H    3.2821088   -2.7786947   -6.0745348  
C    3.0079149   -5.1882390   -9.3380501  
C    2.6420296   -4.3787040   -8.3170891  
C    2.4962587   -3.0612639   -8.9167575  
C    2.8211654   -3.2638630  -10.3450339  
N    3.1218046   -4.5087011  -10.5979845  
C    2.7922999   -2.1837977  -11.2925106  
C    2.4538466   -0.9571737  -10.8340581  
O    2.3865555    0.1405287  -11.6064329  
C    2.1202825   -0.7207882   -9.3984343  
O    1.8210935    0.4216784   -9.0513371  
C    2.1571059   -1.8449154   -8.4461175  
H    2.4897641   -4.6429515   -7.2845856  
H    3.0345246   -2.3604762  -12.3303068  
H    2.1216559    0.8549893  -10.9993681  
H    3.2142719   -6.2462243   -9.3055316  
C    2.3971438    2.0127888    3.1728260  
C    1.9431056    1.6308205    1.9564670  
C    0.8496017    0.7127664    2.2356185  
C    0.7794028    0.6545384    3.7115134  
N    1.6840587    1.4146091    4.2663826  
C   -0.1885723   -0.1578550    4.3957118  
C   -1.0476298   -0.8789867    3.6398520  
O   -2.0015663   -1.6796266    4.1448486  
C   -1.0022026   -0.8410666    2.1483229  
O   -1.8147390   -1.5232959    1.5241687  
C    0.0000000    0.0000000    1.4700000  
H    2.3054237    1.9346118    0.9892483  
H   -0.2170646   -0.1815267    5.4753125  
H   -2.4487139   -2.0549881    3.3649027  
H    3.2048689    2.6911772    3.3971983  
