58

C    1.0965508    0.0001356   -0.8010304  
C    0.0000000    0.0000000    0.0000000  
C   -1.1546573    0.0001468   -0.8669500  
C   -0.6372028    0.0003516   -2.2486272  
N    0.7342859    0.0007336   -2.1395009  
C   -1.4147758    0.0001350   -3.3608706  
C   -2.8576066   -0.0001052   -3.1854445  
O   -3.6427802   -0.0002499   -4.1244889  
C   -3.4275856   -0.0000729   -1.7311647  
O   -4.6406840    0.0000328   -1.5710034  
C   -2.4891870   -0.0001095   -0.6116733  
H   -1.0150469    0.0001612   -4.3654236  
H   -2.8919124   -0.0002920    0.3920876  
H    2.1388268    0.0000663   -0.5261649  
C    4.4892964   -2.1441338   -2.6751670  
C    4.8760691   -1.7381812   -3.9069090  
C    3.8307824   -0.8270018   -4.3469401  
C    2.8653290   -0.7987569   -3.2272592  
N    3.2460484   -1.5688474   -2.2444047  
C    1.6707625   -0.0012345   -3.2725975  
C    1.4508800    0.7349192   -4.3857302  
O    0.3779831    1.5243966   -4.5636595  
C    2.4065700    0.7278580   -5.5323630  
O    2.1425146    1.4222294   -6.5138639  
C    3.6247965   -0.0985003   -5.4617881  
H    5.7614086   -2.0219348   -4.4498031  
H    0.5018282    1.9156217   -5.4472642  
H    4.2917507   -0.0759649   -6.3131961  
C    8.2415061   -4.2985894   -3.1916350  
C    8.3401330   -4.9820509   -2.0277057  
C    7.1513060   -4.6135336   -1.2744558  
C    6.4268467   -3.6743764   -2.1574767  
N    7.0610500   -3.4859428   -3.2827631  
C    5.1801884   -3.0737424   -1.7699618  
C    4.6798084   -3.3969451   -0.5556743  
O    3.5264885   -2.9113527   -0.0656807  
C    5.3871479   -4.3418790    0.3580715  
O    4.8734932   -4.5904500    1.4487554  
C    6.6645142   -4.9448249   -0.0623050  
H    9.1228969   -5.6534379   -1.7185196  
H    3.4378783   -3.3224072    0.8131452  
H    7.1454671   -5.6244512    0.6283635  
H    8.9282380   -4.3004664   -4.0231215  
C    0.0000000    0.0000000    1.4700000  
C    1.0662921    0.0000102    2.3034270  
C    0.4961870   -0.0000064    3.6418889  
C   -0.9663858    0.0000850    3.4240247  
N   -1.2632773    0.0000084    2.1528658  
C   -1.8985362    0.0000517    4.5177257  
C   -1.3925775   -0.0004564    5.7720543  
O   -2.1456383   -0.0005410    6.8851312  
C    0.0786232   -0.0009323    6.0245000  
O    0.4683759   -0.0012588    7.1921102  
C    1.0143166   -0.0008442    4.8859032  
H    2.1107198   -0.0000632    2.0421868  
H   -2.9622183    0.0003270    4.3293377  
H   -1.5042274   -0.0009692    7.6184419  
H    2.0724152   -0.0013148    5.1109744  
