60

C    3.3003554    0.0005280   -1.4738974  
C    2.5232825    0.0003502   -2.6090734  
C    1.1623211   -0.0001316   -2.1820095  
C    1.1711890    0.0000585   -0.7636129  
N    2.4852304   -0.0014918   -0.3662346  
C    0.0000000    0.0000000    0.0000000  
C   -1.2020380    0.0000521   -0.6806481  
O   -2.3759249    0.0003491    0.0157740  
C   -1.2314649   -0.0005113   -2.0955512  
O   -2.5054378   -0.0008036   -2.6250186  
C   -0.0764500   -0.0007270   -2.8495193  
H    2.8036266    0.0088186    0.5858674  
H   -3.0835635    0.0000345   -0.6418823  
H   -2.4360032   -0.0011526   -3.5845929  
H   -0.1304078   -0.0013418   -3.9319085  
H    4.3715556    0.0004898   -1.3667116  
C    5.8843142   -2.1416048   -4.3706048  
C    5.8364461   -1.7353556   -5.6606626  
C    4.7035130   -0.8249887   -5.7254231  
C    4.1682360   -0.7974898   -4.3472701  
N    4.8563813   -1.5672820   -3.5486053  
C    3.0267452   -0.0008945   -3.9901689  
C    2.4466124    0.7350853   -4.9654196  
O    1.3754307    1.5237296   -4.7739743  
C    2.9636567    0.7287625   -6.3656999  
O    2.3859619    1.4229262   -7.2021366  
C    4.1359079   -0.0966501   -6.7069414  
H    6.4893666   -2.0184236   -6.4685255  
H    1.1962584    1.9150484   -5.6479989  
H    4.4795931   -0.0735996   -7.7324069  
C    6.8389017   -3.0706748   -3.7489195  
C    7.8734662   -3.7178952   -4.3340358  
C    8.4788510   -4.4994239   -3.2666924  
C    7.6607314   -4.1963957   -2.0727749  
N    6.6978565   -3.3595091   -2.3493280  
C    7.9396537   -4.7823340   -0.7906030  
C    8.9879774   -5.6326558   -0.7051273  
O    9.3623120   -6.2511159    0.4277547  
C    9.8323132   -5.9588097   -1.8920905  
O   10.7706671   -6.7410534   -1.7410701  
C    9.5259090   -5.3448548   -3.1963527  
H    8.1870105   -3.6708577   -5.3628961  
H    7.3253438   -4.5428671    0.0650772  
H   10.1350161   -6.7873877    0.1737987  
H   10.1613387   -5.6070249   -4.0316521  
C    0.0000000    0.0000000    1.4700000  
C    1.0662921    0.0000102    2.3034270  
C    0.4961870   -0.0000064    3.6418889  
C   -0.9663858    0.0000850    3.4240247  
N   -1.2632773    0.0000084    2.1528658  
C   -1.8985362    0.0000517    4.5177257  
C   -1.3925775   -0.0004564    5.7720543  
O   -2.1456383   -0.0005410    6.8851312  
C    0.0786232   -0.0009323    6.0245000  
O    0.4683759   -0.0012588    7.1921102  
C    1.0143166   -0.0008442    4.8859032  
H    2.1107198   -0.0000632    2.0421868  
H   -2.9622183    0.0003270    4.3293377  
H   -1.5042274   -0.0009692    7.6184419  
H    2.0724152   -0.0013148    5.1109744  
