60

C    3.3041270    0.0001177   -1.5420437  
C    2.5845371   -0.0004779   -0.3695859  
C    1.2040006   -0.0000008   -0.7283592  
C    1.1422371    0.0006037   -2.1454379  
N    2.4348635    0.0026110   -2.6077470  
C   -0.0655185    0.0008797   -2.8497920  
C   -1.2321771    0.0002323   -2.1101395  
O   -2.4392818    0.0001142   -2.7472518  
C   -1.1911212   -0.0000008   -0.6955259  
O   -2.4371526   -0.0002322   -0.1032861  
C    0.0000000    0.0000000    0.0000000  
H    3.0031537   -0.0000662    0.6222578  
H   -0.1193553    0.0014843   -3.9297472  
H   -3.1132994   -0.0000649   -2.0551782  
H   -2.3200280   -0.0004071    0.8516416  
H    4.3686620    0.0004072   -1.7024301  
C    5.6502436   -2.1159091   -4.7187994  
C    5.4250922   -1.6663850   -5.9802708  
C    4.2912961   -0.7748304   -5.9133920  
C    3.8713712   -0.7415296   -4.4994104  
N    4.7351837   -1.5757172   -3.8279580  
C    2.8310658   -0.0116218   -4.0232757  
C    2.0743455    0.7948335   -4.9664298  
O    1.1203081    1.4867880   -4.6358049  
C    2.5012797    0.7745019   -6.4688008  
O    1.8714969    1.4492152   -7.2721668  
C    3.6401540   -0.0516383   -6.8616246  
H    3.9294730   -0.0600286   -7.9037132  
H    6.4075315   -2.7965348   -4.3650292  
H    4.7066626   -1.7617127   -2.8422406  
C    6.6757474   -3.2594513   -7.4829372  
C    6.1956057   -2.0260019   -7.1793894  
C    6.5868035   -1.1455664   -8.2548581  
C    7.3395843   -1.9731292   -9.2167577  
N    7.3579519   -3.2440032   -8.6900401  
C    7.8797332   -1.5095611  -10.3722008  
C    7.7084215   -0.1015433  -10.6894917  
O    8.1574310    0.4116023  -11.7060419  
C    6.9149049    0.7935277   -9.6850089  
O    6.7644923    1.9805203   -9.9412989  
C    6.3795653    0.1795126   -8.4724710  
H    8.4282307   -2.1335154  -11.0641122  
H    5.8311851    0.8060752   -7.7822369  
H    6.5887963   -4.1783860   -6.9262611  
H    7.7973335   -4.0384030   -9.1177320  
C    0.8175213    0.6860729    2.3021913  
C    0.0000000    0.0000000    1.4700000  
C   -0.8887526   -0.7456559    2.3478473  
C   -0.4549825   -0.3816753    3.7138435  
N    0.5448156    0.4573574    3.6934124  
C   -1.0945674   -0.9182058    4.8835240  
C   -2.1210866   -1.7789155    4.6970523  
O   -2.8083856   -2.3554314    5.6976972  
C   -2.5824069   -2.1655116    3.3310774  
O   -3.5227682   -2.9541547    3.2362962  
C   -1.9100805   -1.6015804    2.1470656  
H   -0.7567140   -0.6349833    5.8697035  
H   -3.4728268   -2.9124471    5.2533954  
H   -2.2742832   -1.9066565    1.1752040  
H    1.6189533    1.3585343    2.0405121  
