58

C    1.0965513    0.0001360   -0.8010308  
C    0.0000000    0.0000000    0.0000000  
C   -1.1546566    0.0001471   -0.8669507  
C   -0.6372025    0.0003523   -2.2486278  
N    0.7342862    0.0007339   -2.1395012  
C   -1.4147755    0.0001357   -3.3608706  
C   -2.8576064   -0.0001045   -3.1854448  
O   -3.6427799   -0.0002486   -4.1244886  
C   -3.4275850   -0.0000723   -1.7311649  
O   -4.6406838    0.0000336   -1.5710037  
C   -2.4891870   -0.0001088   -0.6116735  
H   -2.8919123   -0.0002917    0.3920882  
H    2.1388268    0.0000662   -0.5261650  
H    1.3735858   -0.0006096   -2.9130264  
C    1.9879915   -2.0094977   -5.4216937  
C    1.1159529   -1.6281419   -4.4595634  
C    0.2020378   -0.7114852   -5.1236411  
C    0.6824134   -0.6533114   -6.5209379  
N    1.7290277   -1.4122069   -6.7016770  
C    0.0350143    0.1578558   -7.5149044  
C   -1.0434962    0.8778658   -7.1305404  
O   -1.7440922    1.6772932   -7.9528071  
C   -1.5526929    0.8399679   -5.7278847  
O   -2.5392372    1.5211385   -5.4486768  
C   -0.8712846    0.0001716   -4.7267104  
H    1.0953609   -1.9314918   -3.4267849  
H   -2.4483696    2.0520616   -7.3936156  
H    2.8222532   -2.6868434   -5.3312280  
C    1.0124330   -0.8422546   -9.6323441  
C    0.5421216    0.1900545   -8.8942905  
C    0.6456419    1.3512046   -9.7646426  
C    1.2141176    0.8237525  -11.0236954  
N    1.4311582   -0.4614563  -10.9521318  
C    1.4741450    1.6710914  -12.1548404  
C    1.1792940    2.9855322  -12.0338330  
O    1.3702808    3.8904390  -13.0088757  
C    0.6043499    3.5480005  -10.7763642  
O    0.3605816    4.7539171  -10.7368237  
C    0.3467625    2.6583325   -9.6300379  
H    1.8902544    1.2587777  -13.0624527  
H    1.0677372    4.7340795  -12.6269192  
H   -0.0704680    3.1046208   -8.7373028  
H    1.1018505   -1.8777650   -9.3447742  
C    0.8175213    0.6860729    2.3021913  
C    0.0000000    0.0000000    1.4700000  
C   -0.8887526   -0.7456559    2.3478473  
C   -0.4549825   -0.3816753    3.7138435  
N    0.5448156    0.4573574    3.6934124  
C   -1.0945674   -0.9182058    4.8835240  
C   -2.1210866   -1.7789155    4.6970523  
O   -2.8083856   -2.3554314    5.6976972  
C   -2.5824069   -2.1655116    3.3310774  
O   -3.5227682   -2.9541547    3.2362962  
C   -1.9100805   -1.6015804    2.1470656  
H   -0.7567140   -0.6349833    5.8697035  
H   -3.4728268   -2.9124471    5.2533954  
H   -2.2742832   -1.9066565    1.1752040  
H    1.6189533    1.3585343    2.0405121  
