58

C   -3.2573635   -0.0043578   -1.5109391  
C   -2.5379445   -0.0034519   -0.3591969  
C   -1.1435025   -0.0016654   -0.7338503  
C   -1.1092584   -0.0015751   -2.2088480  
N   -2.4227520   -0.0036493   -2.6182620  
C    0.0265545    0.0002904   -2.9515659  
C    1.3003034    0.0021202   -2.2514974  
O    2.3786763    0.0038089   -2.8306416  
C    1.2877718    0.0018072   -0.6895602  
O    2.3539938    0.0030297   -0.0892027  
C    0.0000000    0.0000000    0.0000000  
H   -2.9384056   -0.0041578    0.6389226  
H    0.0296302    0.0004510   -4.0327235  
H   -2.7280470   -0.0025534   -3.5742126  
C   -6.4549966   -0.0082886    1.4492333  
C   -7.5628416   -0.0093246    0.6718933  
C   -7.0625066   -0.0087088   -0.6941831  
C   -5.5906468   -0.0071445   -0.5520193  
N   -5.2286089   -0.0069723    0.7021412  
C   -4.7161285   -0.0061885   -1.6923272  
C   -5.2860866   -0.0071579   -2.9189002  
O   -4.5914184   -0.0064339   -4.0693246  
C   -6.7683453   -0.0091141   -3.0951549  
O   -7.2177819   -0.0097878   -4.2411159  
C   -7.6440877   -0.0100207   -1.9098278  
H   -5.2697850   -0.0074820   -4.7685884  
H   -8.7123827   -0.0115542   -2.0800437  
H   -6.3993934   -0.0083328    2.5262115  
C   -9.6228746    2.0958716    3.9288476  
C  -10.8836911    1.6300201    3.7354597  
C  -10.8327739    0.7348657    2.6036727  
C   -9.4288709    0.7172461    2.1503111  
N   -8.7474321    1.5630241    2.9948170  
C   -8.9686194   -0.0108845    1.1016458  
C   -9.9194595   -0.8318405    0.3705715  
O   -9.6030833   -1.5234637   -0.5885242  
C  -11.4113933   -0.8282455    0.8330934  
O  -12.2211045   -1.5152526    0.2251059  
C  -11.7872092   -0.0024778    1.9779610  
H  -11.7505073    1.8845699    4.3189384  
H  -12.8221493   -0.0057232    2.2919873  
H   -9.2596385    2.7837817    4.6749904  
H   -7.7650444    1.7609811    2.9421413  
C    2.3971438    2.0127888    3.1728260  
C    1.9431056    1.6308205    1.9564670  
C    0.8496017    0.7127664    2.2356185  
C    0.7794028    0.6545384    3.7115134  
N    1.6840587    1.4146091    4.2663826  
C   -0.1885723   -0.1578550    4.3957118  
C   -1.0476298   -0.8789867    3.6398520  
O   -2.0015663   -1.6796266    4.1448486  
C   -1.0022026   -0.8410666    2.1483229  
O   -1.8147390   -1.5232959    1.5241687  
C    0.0000000    0.0000000    1.4700000  
H    2.3054237    1.9346118    0.9892483  
H   -0.2170646   -0.1815267    5.4753125  
H   -2.4487139   -2.0549881    3.3649027  
H    3.2048689    2.6911772    3.3971983  
