60

C    0.0000000    0.0000000    0.0000000  
C    0.8624650    0.6026707   -0.8862345  
C    0.4034335    0.2811304   -2.1979133  
C   -0.7526801   -0.5268382   -2.0478689  
N   -0.9686613   -0.6796581   -0.7007920  
C   -1.4709353   -1.0290684   -3.1372098  
C   -1.0139476   -0.7095916   -4.4010432  
O   -1.6778303   -1.1733780   -5.4997590  
C    0.1378540    0.0949066   -4.5711968  
O    0.4658805    0.3238071   -5.8915553  
C    0.8470805    0.5904897   -3.4969894  
H    1.7179281    1.1996001   -0.6200558  
H   -1.7250493   -1.1958309   -0.2891839  
H   -2.3527528   -1.6455178   -3.0295525  
H   -1.1990481   -0.8390917   -6.2693605  
H    1.2542954    0.8745389   -5.9180043  
C    3.2099370    1.3549230   -2.9764949  
C    4.1217029    2.2557326   -3.4251592  
C    3.5108361    2.9592740   -4.5282033  
C    2.1587405    2.3904423   -4.6865015  
N    2.0389128    1.4226397   -3.7159919  
C    1.2618946    2.7888095   -5.6238786  
C    1.6545931    3.8483840   -6.5380040  
O    0.9180799    4.2769392   -7.4167463  
C    3.0818939    4.4650974   -6.3887335  
O    3.4238119    5.3575664   -7.1528364  
C    3.9594852    3.9526520   -5.3394072  
H    5.1095280    2.4096566   -3.0287713  
H    0.2750297    2.3584678   -5.7229395  
H    3.2950368    0.6471481   -2.1679759  
C    7.9172176    2.1888403   -4.4898465  
C    6.5930584    2.3811128   -4.7215988  
C    6.4045834    3.7962939   -4.9374080  
C    7.7370391    4.4171814   -4.8115131  
N    8.6098897    3.3890365   -4.5395940  
C    7.9827125    5.7448031   -4.9485219  
C    6.8598150    6.6206806   -5.2391680  
O    6.9781028    7.8307831   -5.3804499  
C    5.4397592    5.9847630   -5.3764843  
O    4.4866757    6.7122396   -5.6207584  
C    5.3003964    4.5404731   -5.2077908  
H    5.8348331    1.6186173   -4.7391662  
H    8.9677815    6.1799050   -4.8524237  
H    8.4452852    1.2713651   -4.2866868  
H    9.5982056    3.4940742   -4.4008675  
C    1.0672568    0.0000697    2.3021913  
C    0.0000000    0.0000000    1.4700000  
C   -1.1601224    0.0000736    2.3478473  
C   -0.5938729    0.0000769    3.7138435  
N    0.7113367    0.0001554    3.6934124  
C   -1.4286986    0.0001879    4.8835240  
C   -2.7683114    0.0006799    4.6970523  
O   -3.6653903    0.0008304    5.6976972  
C   -3.3702025    0.0010610    3.3310774  
O   -4.5974910    0.0013779    3.2362962  
C   -2.4926826    0.0008943    2.1470656  
H   -0.9878360   -0.0000190    5.8697035  
H   -4.5324246    0.0012261    5.2533954  
H   -2.9677772    0.0012974    1.1752040  
H    2.1134392    0.0000545    2.0405121  
