58

C   -1.1316571    0.0246538   -0.8009266  
C   -0.7968582    0.0149676   -2.1169403  
C    0.6450786   -0.0185176   -2.1842664  
C    1.1263457   -0.0276400   -0.7896021  
N    0.0000000    0.0000000    0.0000000  
C    2.4339276   -0.0577887   -0.4276286  
C    3.4340172   -0.0827046   -1.4820176  
O    4.6371450   -0.1105367   -1.2583903  
C    2.9469888   -0.0733307   -2.9661066  
O    3.7797802   -0.0937972   -3.8623766  
C    1.5108547   -0.0403151   -3.2312118  
H   -1.4818305    0.0297913   -2.9459195  
H    2.7657135   -0.0641024    0.6013452  
H   -2.1098872    0.0479451   -0.3488062  
C    1.0637180   -0.0320377   -4.6315336  
C   -0.2052775   -0.0042792   -5.1010637  
C   -0.0694615   -0.0090859   -6.5495220  
C    1.3896979   -0.0418450   -6.7869345  
N    2.0590964   -0.0554988   -5.6663508  
C    1.9447592   -0.0558748   -8.1123765  
C    1.0813606   -0.0383799   -9.1533238  
O    1.4599703   -0.0484796  -10.4427400  
C   -0.3965430   -0.0056239   -8.9462283  
O   -1.1228905    0.0090517   -9.9399204  
C   -0.9413211    0.0082844   -7.5769410  
H   -1.1204830    0.0167590   -4.5344659  
H    0.6260553   -0.0309099  -10.9461591  
H   -2.0174779    0.0319596   -7.4694440  
C    3.4012545   -0.0882411   -8.3085242  
C    4.3693024   -0.1082497   -7.3629753  
C    5.6193979   -0.1368221   -8.1065779  
C    5.2083790   -0.1298561   -9.5269997  
N    3.9092845   -0.1013324   -9.6516212  
C    6.1676534   -0.1524631  -10.5967508  
C    7.4779812   -0.1803548  -10.2626877  
O    8.4803520   -0.2036139  -11.1575354  
C    7.9244243   -0.1877111   -8.8383296  
O    9.1333205   -0.2136954   -8.6078620  
C    6.9211377   -0.1641759   -7.7590771  
H    4.2498244   -0.1040385   -6.2930299  
H    5.8390606   -0.1469464  -11.6257828  
H    9.2925202   -0.2203231  -10.6197100  
H    7.2853358   -0.1702963   -6.7404744  
C    0.8175213    0.6860729    2.3021913  
C    0.0000000    0.0000000    1.4700000  
C   -0.8887526   -0.7456559    2.3478473  
C   -0.4549825   -0.3816753    3.7138435  
N    0.5448156    0.4573574    3.6934124  
C   -1.0945674   -0.9182058    4.8835240  
C   -2.1210866   -1.7789155    4.6970523  
O   -2.8083856   -2.3554314    5.6976972  
C   -2.5824069   -2.1655116    3.3310774  
O   -3.5227682   -2.9541547    3.2362962  
C   -1.9100805   -1.6015804    2.1470656  
H   -0.7567140   -0.6349833    5.8697035  
H   -3.4728268   -2.9124471    5.2533954  
H   -2.2742832   -1.9066565    1.1752040  
H    1.6189533    1.3585343    2.0405121  
