58

C    1.7761547   -2.0808181   -5.3136690  
C    0.9000098   -1.6207336   -4.3837403  
C   -0.0050994   -0.7252880   -5.0647615  
C    0.4185758   -0.7012574   -6.4778124  
N    1.5032979   -1.5433423   -6.5624317  
C   -0.1857989    0.0284143   -7.4494170  
C   -1.3297803    0.8447283   -7.0786439  
O   -1.9418774    1.5373847   -7.8810563  
C   -1.7956195    0.8347013   -5.5877720  
O   -2.7573928    1.5182333   -5.2636785  
C   -1.0641730    0.0073880   -4.6315339  
H    0.8891419   -1.8790053   -3.3398096  
H    0.1407711    0.0317999   -8.4800722  
H    2.5983401   -2.7671373   -5.1917398  
C    1.1319248    0.0015674   -0.8009270  
C    0.7969918    0.0034954   -2.1169401  
C   -0.6453335    0.0035694   -2.1842671  
C   -1.1266831    0.0015409   -0.7896029  
N    0.0000000    0.0000000    0.0000000  
C   -2.4346128    0.0013914   -0.4276298  
C   -3.4350108    0.0031337   -1.4820186  
O   -4.6384609    0.0030880   -1.2583922  
C   -2.9478957    0.0050442   -2.9661078  
O   -3.7809374    0.0062134   -3.8623778  
C   -1.5113818    0.0053053   -3.2312125  
H    1.4821241    0.0045430   -2.9459190  
H   -2.7664563    0.0000176    0.6013443  
H    2.1104316    0.0009432   -0.3488052  
C    2.7540163   -3.0184262   -8.2052814  
C    2.2548071   -1.8300346   -7.7928553  
C    2.6232752   -0.8858949   -8.8365652  
C    3.3607819   -1.6967047   -9.8291657  
N    3.4405568   -2.9475835   -9.4645732  
C    3.9009146   -1.1222335  -11.0305507  
C    3.7124963    0.2019623  -11.2313940  
O    4.1618724    0.8692440  -12.3078869  
C    2.9722055    1.0469599  -10.2484849  
O    2.8385817    2.2453174  -10.4960836  
C    2.4277469    0.4342477   -9.0237094  
H    4.4357536   -1.7383787  -11.7385211  
H    3.8744161    1.7893987  -12.1670442  
H    1.8976919    1.0804735   -8.3369324  
H    2.6926201   -3.9732038   -7.7076831  
C    0.8175213    0.6860729    2.3021913  
C    0.0000000    0.0000000    1.4700000  
C   -0.8887526   -0.7456559    2.3478473  
C   -0.4549825   -0.3816753    3.7138435  
N    0.5448156    0.4573574    3.6934124  
C   -1.0945674   -0.9182058    4.8835240  
C   -2.1210866   -1.7789155    4.6970523  
O   -2.8083856   -2.3554314    5.6976972  
C   -2.5824069   -2.1655116    3.3310774  
O   -3.5227682   -2.9541547    3.2362962  
C   -1.9100805   -1.6015804    2.1470656  
H   -0.7567140   -0.6349833    5.8697035  
H   -3.4728268   -2.9124471    5.2533954  
H   -2.2742832   -1.9066565    1.1752040  
H    1.6189533    1.3585343    2.0405121  
