58

C    0.4922784   -0.6866268   -5.2544705  
C   -0.2963295   -0.0005339   -4.3948467  
C   -1.2147745    0.7448453   -5.2418229  
C   -0.8280454    0.3806992   -6.6218307  
N    0.1719928   -0.4581843   -6.6355594  
C   -1.5074447    0.9169404   -7.7689784  
C   -2.5270963    1.7775314   -7.5475565  
O   -3.2483917    2.3537796   -8.5241381  
C   -2.9413636    2.1642889   -6.1666287  
O   -3.8780416    2.9528108   -6.0397853  
C   -2.2287467    1.6006544   -5.0062761  
H   -3.8972909    2.9107725   -8.0574043  
H   -2.5594554    1.9058400   -4.0225467  
H    1.3023144   -1.3589275   -5.0203179  
C    3.1301144   -0.0010312   -1.7028255  
C    2.5367764   -0.0002765   -0.4864668  
C    1.1089903    0.0001027   -0.7656179  
C    1.0177865   -0.0004149   -2.2415131  
N    2.1993571   -0.0011609   -2.7963824  
C   -0.2459221   -0.0002878   -2.9257111  
C   -1.3675327   -0.0000605   -2.1698515  
O   -2.6129319    0.0000865   -2.6748482  
C   -1.3083588    0.0000909   -0.6783225  
O   -2.3693262    0.0004203   -0.0541684  
C    0.0000000    0.0000000    0.0000000  
H    3.0096016   -0.0001007    0.4807517  
H   -3.1967446    0.0002094   -1.8949016  
H    4.1849272   -0.0015110   -1.9271978  
C   -0.7172751   -0.6921110   -9.5650045  
C   -1.0939195    0.5313697   -9.1258988  
C   -1.0020586    1.3937539  -10.2939543  
C   -0.5421314    0.5021440  -11.3802706  
N   -0.3735511   -0.7218154  -10.9589715  
C   -0.3247443    0.9815962  -12.7174150  
C   -0.5566675    2.2921076  -12.9584671  
O   -0.3951877    2.8745211  -14.1587834  
C   -1.0217166    3.2172000  -11.8832485  
O   -1.2126711    4.3979064  -12.1742622  
C   -1.2373776    2.7013073  -10.5196973  
H    0.0117824    0.3077485  -13.4917462  
H   -0.6364034    3.8075852  -14.0160982  
H   -1.5746370    3.4035994   -9.7691837  
H   -0.6510825   -1.6088104   -9.0008638  
C    2.3971438    2.0127888    3.1728260  
C    1.9431056    1.6308205    1.9564670  
C    0.8496017    0.7127664    2.2356185  
C    0.7794028    0.6545384    3.7115134  
N    1.6840587    1.4146091    4.2663826  
C   -0.1885723   -0.1578550    4.3957118  
C   -1.0476298   -0.8789867    3.6398520  
O   -2.0015663   -1.6796266    4.1448486  
C   -1.0022026   -0.8410666    2.1483229  
O   -1.8147390   -1.5232959    1.5241687  
C    0.0000000    0.0000000    1.4700000  
H    2.3054237    1.9346118    0.9892483  
H   -0.2170646   -0.1815267    5.4753125  
H   -2.4487139   -2.0549881    3.3649027  
H    3.2048689    2.6911772    3.3971983  
