62

C    3.3041270    0.0001178   -1.5420432  
C    2.5845372   -0.0004779   -0.3695853  
C    1.2040007   -0.0000006   -0.7283591  
C    1.1422373    0.0006039   -2.1454374  
N    2.4348636    0.0026110   -2.6077466  
C   -0.0655186    0.0008800   -2.8497915  
C   -1.2321770    0.0002326   -2.1101397  
O   -2.4392818    0.0001149   -2.7472515  
C   -1.1911209   -0.0000006   -0.6955262  
O   -2.4371522   -0.0002319   -0.1032858  
C    0.0000000    0.0000000    0.0000000  
H    3.0031535   -0.0000661    0.6222580  
H    2.7054625   -0.0071097   -3.5745263  
H   -3.1132993   -0.0000646   -2.0551781  
H   -2.3200286   -0.0004070    0.8516413  
C    5.7082757    0.0170072   -0.7673040  
C    6.9602955    0.0287163   -1.3371950  
C    6.7741497    0.0207406   -2.7513683  
C    5.3755275    0.0043196   -2.9869819  
N    4.7577214    0.0005130   -1.7610465  
C    4.8251842   -0.0068313   -4.2722002  
C    5.7027234   -0.0009973   -5.3390031  
O    5.2190233   -0.0110097   -6.6153055  
C    7.1014511    0.0149721   -5.1242409  
O    7.8424792    0.0185579   -6.2879461  
C    7.6450841    0.0257060   -3.8566158  
H    7.8930383    0.0403357   -0.7997483  
H    3.7601289   -0.0195069   -4.4584764  
H    5.9887337   -0.0049083   -7.1990633  
H    8.7756807    0.0295845   -6.0542418  
H    8.7205207    0.0376812   -3.7233001  
H    5.4181286    0.0176706    0.2694090  
C    2.1709832   -2.0097061   -6.1391756  
C    1.7780118   -1.6284991   -4.9015024  
C    0.6718272   -0.7104844   -5.1253423  
C    0.5282232   -0.6514436   -6.5958779  
N    1.4042452   -1.4110423   -7.1955324  
C   -0.4727393    0.1611593   -7.2305726  
C   -1.2932064    0.8817147   -6.4324695  
O   -2.2712237    1.6824665   -6.8888901  
C   -1.1735679    0.8429687   -4.9450735  
O   -1.9541231    1.5247038   -4.2808511  
C   -0.1387086    0.0017020   -4.3179679  
H    2.1880834   -1.9327664   -3.9536951  
H   -0.5549521    0.1854296   -8.3074022  
H   -2.6790404    2.0573119   -6.0874357  
H    2.9666372   -2.6878246   -6.4038700  
C    0.0000000    0.0000000    1.4700000  
C    1.0662921    0.0000102    2.3034270  
C    0.4961870   -0.0000064    3.6418889  
C   -0.9663858    0.0000850    3.4240247  
N   -1.2632773    0.0000084    2.1528658  
C   -1.8985362    0.0000517    4.5177257  
C   -1.3925775   -0.0004564    5.7720543  
O   -2.1456383   -0.0005410    6.8851312  
C    0.0786232   -0.0009323    6.0245000  
O    0.4683759   -0.0012588    7.1921102  
C    1.0143166   -0.0008442    4.8859032  
H    2.1107198   -0.0000632    2.0421868  
H   -2.9622183    0.0003270    4.3293377  
H   -1.5042274   -0.0009692    7.6184419  
H    2.0724152   -0.0013148    5.1109744  
