60

C   -3.3003543   -0.0034477   -1.4738961  
C   -2.5232826   -0.0025823   -2.6090725  
C   -1.1623223   -0.0008964   -2.1820090  
C   -1.1711890   -0.0010946   -0.7636130  
N   -2.4852309   -0.0007071   -0.3662339  
C    0.0000000    0.0000000    0.0000000  
C    1.2020365    0.0010116   -0.6806484  
O    2.3759235    0.0017528    0.0157729  
C    1.2314626    0.0016008   -2.0955517  
O    2.5054352    0.0030205   -2.6250196  
C    0.0764477    0.0007949   -2.8495194  
H   -2.8919983   -0.0019969   -3.6205280  
H   -2.8036178   -0.0112989    0.5858685  
H    3.0835617    0.0026936   -0.6418839  
H    2.4359999    0.0033082   -3.5845938  
H    0.1304051    0.0014575   -3.9319086  
C   -4.7630493   -0.0046899   -1.3275368  
C   -5.6984986   -0.0064924   -2.3055502  
C   -6.9735480   -0.0070250   -1.6050154  
C   -6.6111473   -0.0054400   -0.1714021  
N   -5.3167459   -0.0039863   -0.0025480  
C   -7.6066054   -0.0053798    0.8650098  
C   -8.9050767   -0.0064479    0.4864514  
O   -9.9376455   -0.0065354    1.3465926  
C   -9.3027456   -0.0076865   -0.9523047  
O  -10.5033597   -0.0087443   -1.2238686  
C   -8.2629681   -0.0077672   -1.9967117  
H   -5.5425435   -0.0072639   -3.3707989  
H  -10.7311736   -0.0073814    0.7813801  
H   -8.5922693   -0.0085664   -3.0271435  
C   -4.3965972    2.1060807    2.9912555  
C   -4.6169046    1.6423603    4.2484359  
C   -5.7466599    0.7462326    4.1746515  
C   -6.1694924    0.7257193    2.7612928  
N   -5.3110514    1.5709215    2.0967621  
C   -7.2074027   -0.0040608    2.2797662  
C   -7.9582925   -0.8238652    3.2160459  
O   -8.9097980   -1.5168078    2.8802344  
C   -7.5281982   -0.8172100    4.7176382  
O   -8.1530725   -1.5032251    5.5152448  
C   -6.3923522    0.0101293    5.1166552  
H   -4.0525276    1.8989333    5.1272204  
H   -6.1008143    0.0090015    6.1581581  
H   -3.6432711    2.7939144    2.6430100  
H   -5.3425818    1.7670595    1.1131040  
C    2.5528530    2.1414826    2.8079335  
C    2.0663498    1.7338582    4.0032312  
C    0.9804344    0.8229586    3.6752840  
C    0.9495562    0.7966882    2.1971295  
N    1.8690446    1.5676019    1.6831036  
C    0.0000000    0.0000000    1.4700000  
C   -0.8785127   -0.7372425    2.1869543  
O   -1.8187535   -1.5261249    1.6395491  
C   -0.8723269   -0.7321790    3.6796354  
O   -1.7010379   -1.4274584    4.2670412  
C    0.1115397    0.0933559    4.4024240  
H    2.4028853    2.0163452    4.9860947  
H   -2.2861435   -1.9184361    2.3990168  
H    0.0832434    0.0693689    5.4835595  
H    3.3664920    2.8238276    2.6198634  
