58

C    6.6174604   -0.0017047    1.3537077  
C    5.3857487   -0.0012517    0.7819026  
C    5.5854744   -0.0008503   -0.6481130  
C    7.0449748   -0.0011376   -0.8640996  
N    7.6133356   -0.0012547    0.3888392  
C    7.6418654   -0.0012958   -2.0828799  
C    6.7899755   -0.0009488   -3.2605124  
O    7.2316300   -0.0009950   -4.4021091  
C    5.2415210   -0.0003889   -3.0553448  
O    4.5141870    0.0002132   -4.0393394  
C    4.7161325   -0.0005435   -1.6923264  
H    4.4446705   -0.0010218    1.3024658  
H    8.7143807   -0.0016363   -2.2193396  
H    6.8814402   -0.0021124    2.3987941  
C   10.0792140   -2.0979457    3.3921313  
C    9.0496780   -1.6339669    2.6379064  
C    9.6165172   -0.7392187    1.6566039  
C   11.0711143   -0.7198415    1.9027019  
N   11.2863858   -1.5636808    2.9678230  
C   11.9629212    0.0078784    1.1838074  
C   11.4562939    0.8268523    0.0951634  
O   12.1791386    1.5180538   -0.6105547  
C    9.9193117    0.8217610   -0.1831586  
O    9.4810890    1.5075647   -1.0968845  
C    9.0581380   -0.0038216    0.6598388  
H    8.0116084   -1.8892219    2.7556716  
H   13.0260021    0.0078454    1.3807068  
H   10.0575919   -2.7850597    4.2223701  
H   12.1826408   -1.7625256    3.3730808  
C    3.2573665   -0.0002920   -1.5109385  
C    2.5379463   -0.0001709   -0.3591964  
C    1.1435038    0.0000331   -0.7338500  
C    1.1092599   -0.0000083   -2.2088477  
N    2.4227553    0.0001909   -2.6182613  
C   -0.0265539   -0.0002524   -2.9515660  
C   -1.3003040   -0.0002640   -2.2514977  
O   -2.3786790   -0.0004133   -2.8306421  
C   -1.2877727    0.0000311   -0.6895603  
O   -2.3539959    0.0003306   -0.0892030  
C    0.0000000    0.0000000    0.0000000  
H    2.9384091   -0.0000367    0.6389234  
H   -0.0296303   -0.0004086   -4.0327229  
H    2.7280482   -0.0013407   -3.5742119  
C    2.5528530    2.1414826    2.8079335  
C    2.0663498    1.7338582    4.0032312  
C    0.9804344    0.8229586    3.6752840  
C    0.9495562    0.7966882    2.1971295  
N    1.8690446    1.5676019    1.6831036  
C    0.0000000    0.0000000    1.4700000  
C   -0.8785127   -0.7372425    2.1869543  
O   -1.8187535   -1.5261249    1.6395491  
C   -0.8723269   -0.7321790    3.6796354  
O   -1.7010379   -1.4274584    4.2670412  
C    0.1115397    0.0933559    4.4024240  
H    2.4028853    2.0163452    4.9860947  
H   -2.2861435   -1.9184361    2.3990168  
H    0.0832434    0.0693689    5.4835595  
H    3.3664920    2.8238276    2.6198634  
