60

C   -1.1036577    0.2149000   -0.7919005  
C   -0.7370180    0.1263823   -2.1148551  
C    0.6603606   -0.1586160   -2.1414705  
C    1.0956081   -0.2335182   -0.7935553  
N    0.0000000    0.0000000    0.0000000  
C    2.4219217   -0.5004679   -0.4408238  
C    3.3252509   -0.6956555   -1.4675061  
O    4.6329886   -0.9598538   -1.1793472  
C    2.9102609   -0.6245410   -2.8186325  
O    3.9277282   -0.8414095   -3.7247626  
C    1.6020371   -0.3609613   -3.1673484  
H   -1.3954850    0.2528809   -2.9571209  
H    2.7600341   -0.5587304    0.5845971  
H    5.0844978   -1.0605767   -2.0274390  
H    3.5632731   -0.7759735   -4.6127346  
H   -2.0648150    0.4157414   -0.3505407  
C    1.2110792   -0.2951505   -4.5828766  
C   -0.0161122   -0.0497932   -5.0980274  
C    0.1655320   -0.1011160   -6.5405501  
C    1.6027315   -0.3961304   -6.7249610  
N    2.2207661   -0.5110384   -5.5809250  
C    2.1908854   -0.5290631   -8.0293729  
C    1.3800550   -0.3746921   -9.1008482  
O    1.7941598   -0.4718668  -10.3756484  
C   -0.0745550   -0.0768228   -8.9474073  
O   -0.7527009    0.0511718   -9.9667000  
C   -0.6540986    0.0548447   -7.5988094  
H   -0.9315671    0.1422090   -4.5649662  
H    0.9941798   -0.3143162  -10.9089048  
H   -1.7118625    0.2708967   -7.5303509  
C    4.9223986   -3.2005533   -5.8161389  
C    3.8380890   -2.5119756   -6.2568300  
C    4.2782732   -1.6978885   -7.3651324  
C    5.7182307   -1.9706066   -7.5352432  
N    6.0469475   -2.8893571   -6.5653295  
C    6.5033001   -1.3951802   -8.4808940  
C    5.8891014   -0.4435867   -9.3918076  
O    6.5116226    0.1279625  -10.2773020  
C    4.3655975   -0.1394820   -9.2297541  
O    3.8375446    0.6601670   -9.9906626  
C    3.6241413   -0.8225776   -8.1726470  
H    2.8434512   -2.5678146   -5.8516250  
H    7.5575645   -1.6092105   -8.5887322  
H    4.9946221   -3.9089995   -5.0069553  
H    6.9622849   -3.2759488   -6.4247888  
C    2.5528530    2.1414826    2.8079335  
C    2.0663498    1.7338582    4.0032312  
C    0.9804344    0.8229586    3.6752840  
C    0.9495562    0.7966882    2.1971295  
N    1.8690446    1.5676019    1.6831036  
C    0.0000000    0.0000000    1.4700000  
C   -0.8785127   -0.7372425    2.1869543  
O   -1.8187535   -1.5261249    1.6395491  
C   -0.8723269   -0.7321790    3.6796354  
O   -1.7010379   -1.4274584    4.2670412  
C    0.1115397    0.0933559    4.4024240  
H    2.4028853    2.0163452    4.9860947  
H   -2.2861435   -1.9184361    2.3990168  
H    0.0832434    0.0693689    5.4835595  
H    3.3664920    2.8238276    2.6198634  
