58

C    3.2798084    0.0005857   -1.4499650  
C    2.5571145    0.0005565   -2.5996555  
C    1.1637431    0.0001547   -2.2210362  
C    1.1336964   -0.0000201   -0.7459470  
N    2.4483511   -0.0001428   -0.3402722  
C    0.0000000    0.0000000    0.0000000  
C   -1.2757364   -0.0000188   -0.6964414  
O   -2.3524599   -0.0000641   -0.1142312  
C   -1.2676496   -0.0000874   -2.2584080  
O   -2.3355771   -0.0004102   -2.8557293  
C    0.0181558    0.0001758   -2.9516296  
H    2.9547349    0.0006075   -3.5989105  
H    0.0150787    0.0003317   -4.0331627  
H    2.7563626    0.0012824    0.6148060  
C    6.5739154    0.0018722   -4.3537893  
C    7.6280843    0.0019471   -3.4977501  
C    7.0842295    0.0017738   -2.1601936  
C    5.6162782    0.0015612   -2.3082161  
N    5.3720695    0.0020316   -3.6621922  
C    4.7390846    0.0009614   -1.2727282  
C    5.2766310    0.0007201    0.0776712  
O    4.5688487    0.0002470    1.0763428  
C    6.8281781    0.0011908    0.2579680  
O    7.2923833    0.0012996    1.3901228  
C    7.6713711    0.0015461   -0.9348765  
H    8.6679906    0.0022879   -3.7719914  
H    6.5739152    0.0019307   -5.4316990  
H    4.4610961    0.0004681   -4.0831100  
C   10.0567490    0.6880703   -1.4619216  
C    9.1301375    0.0017085   -0.7534890  
C    9.8917139   -0.7440646    0.2366235  
C   11.3007445   -0.3798285   -0.0251954  
N   11.4037211    0.4594428   -1.0196848  
C   12.3826409   -0.9163839    0.7537109  
C   12.0710489   -1.7773616    1.7491819  
O   12.9793191   -2.3539324    2.5545709  
C   10.6586436   -2.1642198    2.0383382  
O   10.4486622   -2.9530999    2.9596399  
C    9.5665622   -1.6002573    1.2251784  
H   13.4029330   -0.6329711    0.5401907  
H   12.4565033   -2.9111575    3.1589850  
H    8.5572299   -1.9055286    1.4666082  
H    9.8958673    1.3606959   -2.2893667  
C    0.8175213    0.6860729    2.3021913  
C    0.0000000    0.0000000    1.4700000  
C   -0.8887526   -0.7456559    2.3478473  
C   -0.4549825   -0.3816753    3.7138435  
N    0.5448156    0.4573574    3.6934124  
C   -1.0945674   -0.9182058    4.8835240  
C   -2.1210866   -1.7789155    4.6970523  
O   -2.8083856   -2.3554314    5.6976972  
C   -2.5824069   -2.1655116    3.3310774  
O   -3.5227682   -2.9541547    3.2362962  
C   -1.9100805   -1.6015804    2.1470656  
H   -0.7567140   -0.6349833    5.8697035  
H   -3.4728268   -2.9124471    5.2533954  
H   -2.2742832   -1.9066565    1.1752040  
H    1.6189533    1.3585343    2.0405121  
