58

C    2.8497505   -0.7283608   -3.3359964  
C    3.4914347   -0.5134529   -4.5133372  
C    2.6832183    0.4131987   -5.2702641  
C    1.5096744    0.7227757   -4.4313672  
N    1.6707645   -0.0012351   -3.2725971  
C    0.5071672    1.5634827   -4.7917776  
C    0.5893852    2.2061555   -6.0928339  
O   -0.2632806    2.9796294   -6.5087679  
C    1.8232414    1.8926640   -6.9978898  
O    1.9032044    2.4275843   -8.0954898  
C    2.8399733    0.9695582   -6.4999101  
H   -0.3448590    1.7770150   -4.1614087  
H    3.6912445    0.7579535   -7.1325907  
H    3.1388492   -1.3569186   -2.5094211  
C    1.0965515    0.0001357   -0.8010303  
C    0.0000000    0.0000000    0.0000000  
C   -1.1546560    0.0001466   -0.8669515  
C   -0.6372014    0.0003513   -2.2486280  
N    0.7342874    0.0007332   -2.1395011  
C   -1.4147736    0.0001344   -3.3608717  
C   -2.8576045   -0.0001056   -3.1854464  
O   -3.6427775   -0.0002505   -4.1244904  
C   -3.4275838   -0.0000734   -1.7311669  
O   -4.6406825    0.0000325   -1.5710062  
C   -2.4891865   -0.0001094   -0.6116745  
H   -1.0150446    0.0001604   -4.3654245  
H   -2.8919121   -0.0002923    0.3920864  
H    2.1388272    0.0000662   -0.5261646  
C    4.7666285   -1.1155540   -4.9283741  
C    5.5413935   -1.9848458   -4.2387007  
C    6.6747984   -2.2507995   -5.1111466  
C    6.4147228   -1.4375177   -6.3184234  
N    5.2976375   -0.7698115   -6.2170428  
C    7.3182260   -1.4239583   -7.4358236  
C    8.4311564   -2.1878320   -7.3508521  
O    9.3601924   -2.2708370   -8.3183453  
C    8.7218399   -3.0192551   -6.1456966  
O    9.7538089   -3.6902150   -6.1371216  
C    7.7795353   -3.0162214   -5.0125697  
H    5.3655381   -2.3948813   -3.2588937  
H    7.1030044   -0.8203810   -8.3054691  
H   10.0276894   -2.8884285   -7.9688012  
H    8.0264050   -3.6319102   -4.1580450  
C    2.5528530    2.1414826    2.8079335  
C    2.0663498    1.7338582    4.0032312  
C    0.9804344    0.8229586    3.6752840  
C    0.9495562    0.7966882    2.1971295  
N    1.8690446    1.5676019    1.6831036  
C    0.0000000    0.0000000    1.4700000  
C   -0.8785127   -0.7372425    2.1869543  
O   -1.8187535   -1.5261249    1.6395491  
C   -0.8723269   -0.7321790    3.6796354  
O   -1.7010379   -1.4274584    4.2670412  
C    0.1115397    0.0933559    4.4024240  
H    2.4028853    2.0163452    4.9860947  
H   -2.2861435   -1.9184361    2.3990168  
H    0.0832434    0.0693689    5.4835595  
H    3.3664920    2.8238276    2.6198634  
