58

C    2.4782015   -2.1081875   -5.8783642  
C    1.9212507   -1.6438938   -7.0265422  
C    0.8545975   -0.7486147   -6.6450156  
C    0.8356626   -0.7292242   -5.1698696  
N    1.8439048   -1.5742003   -4.7669395  
C   -0.0307358   -0.0004642   -4.4215599  
C   -1.0100808    0.8193487   -5.1153365  
O   -1.8333388    1.5114172   -4.5308818  
C   -1.0083728    0.8138726   -6.6773136  
O   -1.8284260    1.4999051   -7.2724038  
C   -0.0251104   -0.0124246   -7.3732163  
H    2.2230610   -1.8995536   -8.0266229  
H   -0.0304442   -0.0104841   -8.4547392  
H    2.0835076   -1.7709322   -3.8125108  
C    3.2573667   -0.0002922   -1.5109381  
C    2.5379468   -0.0001710   -0.3591960  
C    1.1435040    0.0000334   -0.7338497  
C    1.1092606   -0.0000080   -2.2088473  
N    2.4227558    0.0001910   -2.6182611  
C   -0.0265535   -0.0002520   -2.9515658  
C   -1.3003038   -0.0002635   -2.2514976  
O   -2.3786789   -0.0004126   -2.8306422  
C   -1.2877726    0.0000313   -0.6895607  
O   -2.3539958    0.0003308   -0.0892034  
C    0.0000000    0.0000000    0.0000000  
H    2.9384091   -0.0000370    0.6389236  
H    4.3270390   -0.0004767   -1.6439449  
H    2.7280489   -0.0013404   -3.5742114  
C    4.3260762   -3.6590631   -6.6652986  
C    3.5969095   -3.0457639   -5.7041742  
C    4.1608829   -3.5158451   -4.4482052  
C    5.2512733   -4.4308962   -4.8485984  
N    5.3529373   -4.5187903   -6.1470315  
C    6.0665632   -5.1122502   -3.8810528  
C    5.8047190   -4.8892929   -2.5729770  
O    6.4858057   -5.4579880   -1.5636471  
C    4.7113922   -3.9712030   -2.1371915  
O    4.5292972   -3.8155515   -0.9297835  
C    3.8889924   -3.2840544   -3.1488286  
H    6.8565129   -5.7755114   -4.2019495  
H    6.0701054   -5.1072226   -0.7553717  
H    3.1069925   -2.6271266   -2.7922449  
H    4.2208326   -3.5731182   -7.7351169  
C    0.8175213    0.6860729    2.3021913  
C    0.0000000    0.0000000    1.4700000  
C   -0.8887526   -0.7456559    2.3478473  
C   -0.4549825   -0.3816753    3.7138435  
N    0.5448156    0.4573574    3.6934124  
C   -1.0945674   -0.9182058    4.8835240  
C   -2.1210866   -1.7789155    4.6970523  
O   -2.8083856   -2.3554314    5.6976972  
C   -2.5824069   -2.1655116    3.3310774  
O   -3.5227682   -2.9541547    3.2362962  
C   -1.9100805   -1.6015804    2.1470656  
H   -0.7567140   -0.6349833    5.8697035  
H   -3.4728268   -2.9124471    5.2533954  
H   -2.2742832   -1.9066565    1.1752040  
H    1.6189533    1.3585343    2.0405121  
