60

C    3.3041275    0.0001174   -1.5420427  
C    2.5845373   -0.0004781   -0.3695847  
C    1.2040009   -0.0000009   -0.7283587  
C    1.1422379    0.0006033   -2.1454375  
N    2.4348645    0.0026106   -2.6077463  
C   -0.0655177    0.0008794   -2.8497921  
C   -1.2321765    0.0002322   -2.1101403  
O   -2.4392807    0.0001143   -2.7472524  
C   -1.1911209   -0.0000009   -0.6955264  
O   -2.4371522   -0.0002320   -0.1032871  
C    0.0000000    0.0000000    0.0000000  
H    3.0031536   -0.0000662    0.6222589  
H   -0.1193541    0.0014839   -3.9297470  
H   -3.1132983   -0.0000650   -2.0551793  
H   -2.3200281   -0.0004069    0.8516406  
H    4.3686628    0.0004068   -1.7024286  
C    5.6502451   -2.1159098   -4.7187972  
C    5.4250940   -1.6663859   -5.9802687  
C    4.2912982   -0.7748315   -5.9133905  
C    3.8713727   -0.7415302   -4.4994090  
N    4.7351851   -1.5757179   -3.8279561  
C    2.8310672   -0.0116225   -4.0232748  
C    2.0743475    0.7948328   -4.9664295  
O    1.1203098    1.4867872   -4.6358044  
C    2.5012821    0.7745011   -6.4688001  
O    1.8714994    1.4492142   -7.2721659  
C    3.6401563   -0.0516392   -6.8616232  
H    5.9888062   -1.9294835   -6.8575500  
H    6.4075330   -2.7965357   -4.3650266  
H    4.7066632   -1.7617131   -2.8422384  
C    4.9856726   -3.3000045   -9.4924111  
C    5.1689534   -2.5981314  -10.6403907  
C    4.8277473   -1.2248325  -10.3532259  
C    4.4278189   -1.1838680   -8.9336592  
N    4.5451910   -2.4737570   -8.4696549  
C    4.0333919   -0.0630432   -8.2780042  
C    4.0003587    1.1862871   -9.0200406  
O    3.6594653    2.2497943   -8.5189972  
C    4.4195213    1.1662029  -10.5246021  
O    4.3954102    2.2118582  -11.1596490  
C    4.8262624   -0.1037669  -11.1209156  
H    5.5046673   -2.9969500  -11.5810582  
H    5.1151992   -0.1091028  -12.1631301  
H    5.1351252   -4.3513787   -9.3075700  
H    4.3440037   -2.7690315   -7.5319002  
C    0.0000000    0.0000000    1.4700000  
C    1.0662921    0.0000102    2.3034270  
C    0.4961870   -0.0000064    3.6418889  
C   -0.9663858    0.0000850    3.4240247  
N   -1.2632773    0.0000084    2.1528658  
C   -1.8985362    0.0000517    4.5177257  
C   -1.3925775   -0.0004564    5.7720543  
O   -2.1456383   -0.0005410    6.8851312  
C    0.0786232   -0.0009323    6.0245000  
O    0.4683759   -0.0012588    7.1921102  
C    1.0143166   -0.0008442    4.8859032  
H    2.1107198   -0.0000632    2.0421868  
H   -2.9622183    0.0003270    4.3293377  
H   -1.5042274   -0.0009692    7.6184419  
H    2.0724152   -0.0013148    5.1109744  
