64

C    3.3041273    0.0001176   -1.5420427  
C    2.5845372   -0.0004779   -0.3695849  
C    1.2040006   -0.0000007   -0.7283585  
C    1.1422374    0.0006037   -2.1454371  
N    2.4348641    0.0026108   -2.6077464  
C   -0.0655184    0.0008796   -2.8497917  
C   -1.2321767    0.0002321   -2.1101399  
O   -2.4392811    0.0001142   -2.7472521  
C   -1.1911212   -0.0000007   -0.6955257  
O   -2.4371525   -0.0002322   -0.1032865  
C    0.0000000    0.0000000    0.0000000  
H    3.0031534   -0.0000661    0.6222587  
H   -0.1193542    0.0014840   -3.9297469  
H   -3.1132987   -0.0000651   -2.0551789  
H   -2.3200283   -0.0004071    0.8516414  
H    4.3686625    0.0004071   -1.7024291  
C    5.6718698   -2.1292828   -4.7374656  
C    5.4024582   -1.6450690   -5.9966009  
C    4.2795483   -0.7737663   -5.8761622  
C    3.9039369   -0.7655395   -4.5083999  
N    4.7686528   -1.6005165   -3.8453030  
C    2.8310666   -0.0116221   -4.0232749  
C    2.1246916    0.7480616   -4.9354657  
O    1.0681527    1.5033226   -4.5155603  
C    2.4839121    0.7526865   -6.3043179  
O    1.6833250    1.5594237   -7.0863533  
C    3.5420403    0.0089614   -6.7836551  
H    4.7540933   -1.7863153   -2.8587695  
H    0.7213551    1.9477939   -5.3000611  
H    1.9931415    1.5056035   -7.9955952  
H    3.7934487    0.0324028   -7.8375638  
H    6.4359577   -2.8111063   -4.4054340  
C    6.6265712   -3.2270552   -7.5475215  
C    6.1466407   -1.9803299   -7.2191774  
C    6.5115719   -1.1007437   -8.2811345  
C    7.2182869   -1.8738013   -9.2376190  
N    7.2717674   -3.1598076   -8.7601832  
C    7.7297032   -1.3307910  -10.4201504  
C    7.5236832    0.0171081  -10.6412867  
O    8.0015614    0.5985215  -11.7799718  
C    6.8213190    0.8051263   -9.6986681  
O    6.6990448    2.1301488  -10.0629600  
C    6.3167508    0.2701579   -8.5317292  
H    7.7026460   -3.9356839   -9.2295869  
H    8.2693353   -1.9145773  -11.1530850  
H    7.7523361    1.5308317  -11.7358186  
H    6.2127359    2.5916566   -9.3729472  
H    5.7831040    0.8986724   -7.8284023  
H    6.5609406   -4.1586311   -7.0119672  
C    0.8175213    0.6860729    2.3021913  
C    0.0000000    0.0000000    1.4700000  
C   -0.8887526   -0.7456559    2.3478473  
C   -0.4549825   -0.3816753    3.7138435  
N    0.5448156    0.4573574    3.6934124  
C   -1.0945674   -0.9182058    4.8835240  
C   -2.1210866   -1.7789155    4.6970523  
O   -2.8083856   -2.3554314    5.6976972  
C   -2.5824069   -2.1655116    3.3310774  
O   -3.5227682   -2.9541547    3.2362962  
C   -1.9100805   -1.6015804    2.1470656  
H   -0.7567140   -0.6349833    5.8697035  
H   -3.4728268   -2.9124471    5.2533954  
H   -2.2742832   -1.9066565    1.1752040  
H    1.6189533    1.3585343    2.0405121  
