62

C    3.3041272    0.0001176   -1.5420427  
C    2.5845371   -0.0004783   -0.3695852  
C    1.2040006   -0.0000009   -0.7283586  
C    1.1422374    0.0006035   -2.1454371  
N    2.4348638    0.0026108   -2.6077464  
C   -0.0655183    0.0008794   -2.8497913  
C   -1.2321770    0.0002322   -2.1101398  
O   -2.4392812    0.0001143   -2.7472517  
C   -1.1911210   -0.0000008   -0.6955262  
O   -2.4371530   -0.0002321   -0.1032856  
C    0.0000000    0.0000000    0.0000000  
H    3.0031533   -0.0000661    0.6222589  
H   -0.1193551    0.0014842   -3.9297465  
H   -3.1132988   -0.0000649   -2.0551781  
H   -2.3200286   -0.0004070    0.8516415  
H    4.3686622    0.0004069   -1.7024291  
C    3.8594204   -0.7175077   -4.5601988  
C    2.8310659   -0.0116220   -4.0232747  
C    2.2094024    0.7153300   -5.1048987  
C    2.9652785    0.3726183   -6.3247312  
N    3.9521592   -0.4993327   -5.9264123  
C    2.6888637    0.8568055   -7.5620111  
C    1.5725228    1.7770483   -7.7015487  
O    1.2438400    2.2678073   -8.7736603  
C    0.7583121    2.1540909   -6.4229925  
O   -0.1835068    2.9281700   -6.5280646  
C    1.1517637    1.5673729   -5.1443959  
H    3.2557692    0.5925696   -8.4438887  
H    0.5827554    1.8333881   -4.2639475  
H    4.5574573   -1.3785741   -4.0727306  
C    5.6990843   -4.6098401   -6.1304730  
C    4.9675812   -3.5008934   -5.7732511  
C    5.3360122   -2.4530732   -6.6681986  
C    6.3040659   -2.9862628   -7.5573041  
N    6.5027996   -4.2972624   -7.2017739  
C    6.8913785   -2.2313392   -8.5770798  
C    6.4939885   -0.9142548   -8.7017693  
O    7.0353051   -0.1321563   -9.6807031  
C    5.5297468   -0.3640390   -7.8240915  
O    5.2398950    0.9608904   -8.0768606  
C    4.9501295   -1.1081275   -6.8176614  
H    4.2567710   -3.4527526   -4.9661421  
H    7.1276483   -4.9348400   -7.6611652  
H    7.6298468   -2.6317789   -9.2578987  
H    6.6261239    0.7384666   -9.5921018  
H    4.5809120    1.2548293   -7.4405077  
H    5.7121659   -5.5986311   -5.7049373  
C    0.0000000    0.0000000    1.4700000  
C    1.0662921    0.0000102    2.3034270  
C    0.4961870   -0.0000064    3.6418889  
C   -0.9663858    0.0000850    3.4240247  
N   -1.2632773    0.0000084    2.1528658  
C   -1.8985362    0.0000517    4.5177257  
C   -1.3925775   -0.0004564    5.7720543  
O   -2.1456383   -0.0005410    6.8851312  
C    0.0786232   -0.0009323    6.0245000  
O    0.4683759   -0.0012588    7.1921102  
C    1.0143166   -0.0008442    4.8859032  
H    2.1107198   -0.0000632    2.0421868  
H   -2.9622183    0.0003270    4.3293377  
H   -1.5042274   -0.0009692    7.6184419  
H    2.0724152   -0.0013148    5.1109744  
