60

C    3.3003552    0.0005276   -1.4738980  
C    2.5232822    0.0003497   -2.6090742  
C    1.1623210   -0.0001319   -2.1820102  
C    1.1711889    0.0000583   -0.7636142  
N    2.4852305   -0.0014919   -0.3662355  
C    0.0000000    0.0000000    0.0000000  
C   -1.2020381    0.0000520   -0.6806483  
O   -2.3759252    0.0003496    0.0157737  
C   -1.2314649   -0.0005113   -2.0955516  
O   -2.5054380   -0.0008037   -2.6250188  
C   -0.0764507   -0.0007272   -2.8495199  
H    2.8036268    0.0088180    0.5858669  
H   -3.0835632    0.0000349   -0.6418826  
H   -2.4360041   -0.0011526   -3.5845928  
H   -0.1304082   -0.0013421   -3.9319088  
H    4.3715554    0.0004893   -1.3667123  
C    4.0912594   -0.7049387   -4.4540730  
C    3.0267448   -0.0008952   -3.9901694  
C    2.4918049    0.7392283   -5.1086021  
C    3.3379767    0.4062536   -6.2704581  
N    4.2890161   -0.4732104   -5.8068234  
C    3.1585244    0.9039806   -7.5201656  
C    2.0587104    1.8295626   -7.7352070  
O    1.8145057    2.3323674   -8.8241751  
C    1.1499704    2.1964768   -6.5189127  
O    0.2211191    2.9749316   -6.6877463  
C    1.4426654    1.5953879   -5.2201159  
H    3.7906033    0.6467125   -8.3587354  
H    0.8086039    1.8544577   -4.3831137  
H    4.7480576   -1.3734090   -3.9214824  
C    5.3506549   -1.0764565   -6.6253078  
C    6.3120472   -1.9452590   -6.2348117  
C    7.0864912   -2.2128643   -7.4369448  
C    6.4359949   -1.4009746   -8.4877894  
N    5.4179111   -0.7325955   -8.0179357  
C    6.9116206   -1.3892633   -9.8437872  
C    7.9883889   -2.1535731  -10.1365930  
O    8.5384180   -2.2382495  -11.3598422  
C    8.6670003   -2.9836213   -9.0980037  
O    9.6418524   -3.6550743   -9.4356944  
C    8.1601133   -2.9787016   -7.7141818  
H    6.4755455   -2.3539750   -5.2523170  
H    6.4167855   -0.7866750  -10.5914069  
H    9.2845241   -2.8557270  -11.2540130  
H    8.6796765   -3.5934354   -6.9914190  
C    0.8175213    0.6860729    2.3021913  
C    0.0000000    0.0000000    1.4700000  
C   -0.8887526   -0.7456559    2.3478473  
C   -0.4549825   -0.3816753    3.7138435  
N    0.5448156    0.4573574    3.6934124  
C   -1.0945674   -0.9182058    4.8835240  
C   -2.1210866   -1.7789155    4.6970523  
O   -2.8083856   -2.3554314    5.6976972  
C   -2.5824069   -2.1655116    3.3310774  
O   -3.5227682   -2.9541547    3.2362962  
C   -1.9100805   -1.6015804    2.1470656  
H   -0.7567140   -0.6349833    5.8697035  
H   -3.4728268   -2.9124471    5.2533954  
H   -2.2742832   -1.9066565    1.1752040  
H    1.6189533    1.3585343    2.0405121  
