58

C    1.0965517    0.0001359   -0.8010306  
C    0.0000000    0.0000000    0.0000000  
C   -1.1546565    0.0001471   -0.8669509  
C   -0.6372015    0.0003522   -2.2486283  
N    0.7342872    0.0007341   -2.1395011  
C   -1.4147740    0.0001356   -3.3608713  
C   -2.8576051   -0.0001043   -3.1854460  
O   -3.6427776   -0.0002489   -4.1244906  
C   -3.4275843   -0.0000725   -1.7311663  
O   -4.6406828    0.0000334   -1.5710056  
C   -2.4891865   -0.0001091   -0.6116745  
H   -1.0150447    0.0001622   -4.3654243  
H   -2.8919123   -0.0002920    0.3920865  
H    2.1388273    0.0000664   -0.5261645  
C    4.5298623   -2.1105781   -2.7870401  
C    4.8358779   -1.6476822   -4.0264580  
C    3.7723838   -0.7519980   -4.4157720  
C    2.8148500   -0.7308466   -3.2935094  
N    3.3319992   -1.5752937   -2.3383368  
C    1.6707642   -0.0012340   -3.2725973  
C    1.3617420    0.8177040   -4.4329339  
O    0.3555482    1.5104318   -4.5104134  
C    2.3615449    0.8103626   -5.6329946  
O    2.1118346    1.4956459   -6.6154876  
C    3.5619268   -0.0167192   -5.5388084  
H    5.7070853   -1.9045221   -4.6023435  
H    5.0785345   -2.7978854   -2.1637768  
H    2.9059925   -1.7708746   -1.4510301  
C    5.9987682   -3.0974203   -7.6448771  
C    5.1465169   -2.5137208   -6.7704958  
C    5.1319480   -1.1074540   -7.1429220  
C    6.0571312   -1.0168443   -8.2928830  
N    6.5682481   -2.1802099   -8.5917640  
C    6.3218494    0.2280435   -8.9601648  
C    5.6906917    1.3321520   -8.4998170  
O    5.8440170    2.5589055   -9.0267028  
C    4.7509831    1.2730111   -7.3415385  
O    4.2117611    2.3174971   -6.9761493  
C    4.4960380   -0.0158372   -6.6738574  
H    4.5956956   -2.9798919   -5.9715244  
H    7.0027559    0.2651377   -9.7979591  
H    5.2698861    3.1333769   -8.4886414  
H    6.2830063   -4.1361114   -7.7023499  
C    0.8175213    0.6860729    2.3021913  
C    0.0000000    0.0000000    1.4700000  
C   -0.8887526   -0.7456559    2.3478473  
C   -0.4549825   -0.3816753    3.7138435  
N    0.5448156    0.4573574    3.6934124  
C   -1.0945674   -0.9182058    4.8835240  
C   -2.1210866   -1.7789155    4.6970523  
O   -2.8083856   -2.3554314    5.6976972  
C   -2.5824069   -2.1655116    3.3310774  
O   -3.5227682   -2.9541547    3.2362962  
C   -1.9100805   -1.6015804    2.1470656  
H   -0.7567140   -0.6349833    5.8697035  
H   -3.4728268   -2.9124471    5.2533954  
H   -2.2742832   -1.9066565    1.1752040  
H    1.6189533    1.3585343    2.0405121  
