62

C    1.6073881   -2.0689119   -5.4060700  
C    0.7601862   -1.6162666   -4.4212716  
C   -0.1611749   -0.7224078   -5.0431317  
C    0.1755977   -0.6689626   -6.4199591  
N    1.2549640   -1.4966144   -6.6059126  
C   -0.5252873    0.1165428   -7.3400298  
C   -1.5856458    0.8614352   -6.8615387  
O   -2.3044190    1.6455958   -7.7167996  
C   -1.9367991    0.8216485   -5.4911646  
O   -3.0157164    1.6194068   -5.1704428  
C   -1.2456338    0.0471626   -4.5828765  
H    0.8018947   -1.8950830   -3.3822746  
H   -0.2735355    0.1617467   -8.3906388  
H   -2.9882640    2.0736350   -7.1853822  
H   -3.1868180    1.5348851   -4.2274777  
H    2.4360578   -2.7536079   -5.3472762  
C    1.1243406    0.0100015   -0.7919003  
C    0.7474072    0.0234606   -2.1148544  
C   -0.6787388    0.0234435   -2.1414695  
C   -1.1201747    0.0098501   -0.7935549  
N    0.0000000    0.0000000    0.0000000  
C   -2.4730815    0.0063506   -0.4408239  
C   -3.3971962    0.0170701   -1.4675056  
O   -4.7313520    0.0145872   -1.1793466  
C   -2.9763653    0.0303262   -2.8186321  
O   -4.0166485    0.0394789   -3.7247618  
C   -1.6418567    0.0335125   -3.1673482  
H    1.4178710    0.0311089   -2.9571210  
H   -2.8160167   -0.0041343    0.5845972  
H   -5.1938821    0.0230439   -2.0274381  
H   -3.6464682    0.0481993   -4.6127342  
H    2.1062464    0.0052993   -0.3505409  
C    1.9199550   -1.7498174   -7.8922153  
C    2.9768031   -2.5583203   -8.1391465  
C    3.2188197   -2.4333361   -9.5682395  
C    2.1877179   -1.4838192  -10.0392281  
N    1.4234370   -1.0796658   -9.0612072  
C    2.0881925   -1.0908913  -11.4179187  
C    2.9785189   -1.6220741  -12.2865376  
O    3.0019730   -1.3441253  -13.6011613  
C    4.0310055   -2.5826350  -11.8418404  
O    4.8079002   -3.0265532  -12.6871759  
C    4.1124452   -2.9700805  -10.4222701  
H    3.5245636   -3.1645717   -7.4380804  
H    1.3246300   -0.3953399  -11.7342889  
H    3.7429139   -1.8700931  -13.9526111  
H    4.8891641   -3.6683198  -10.1404911  
C    0.8175213    0.6860729    2.3021913  
C    0.0000000    0.0000000    1.4700000  
C   -0.8887526   -0.7456559    2.3478473  
C   -0.4549825   -0.3816753    3.7138435  
N    0.5448156    0.4573574    3.6934124  
C   -1.0945674   -0.9182058    4.8835240  
C   -2.1210866   -1.7789155    4.6970523  
O   -2.8083856   -2.3554314    5.6976972  
C   -2.5824069   -2.1655116    3.3310774  
O   -3.5227682   -2.9541547    3.2362962  
C   -1.9100805   -1.6015804    2.1470656  
H   -0.7567140   -0.6349833    5.8697035  
H   -3.4728268   -2.9124471    5.2533954  
H   -2.2742832   -1.9066565    1.1752040  
H    1.6189533    1.3585343    2.0405121  
