60

C    1.1243405    0.0100579   -0.7919005  
C    0.7474061    0.0234979   -2.1148545  
C   -0.6787397    0.0234092   -2.1414699  
C   -1.1201752    0.0097939   -0.7935547  
N    0.0000000    0.0000000    0.0000000  
C   -2.4730815    0.0062265   -0.4408247  
C   -3.3971972    0.0169000   -1.4675061  
O   -4.7313521    0.0143498   -1.1793474  
C   -2.9763670    0.0301768   -2.8186327  
O   -4.0166498    0.0392772   -3.7247625  
C   -1.6418585    0.0334300   -3.1673483  
H   -2.8160167   -0.0042754    0.5845968  
H   -5.1938833    0.0227837   -2.0274383  
H   -3.6464701    0.0480163   -4.6127342  
H   -1.3497495    0.0435080   -4.2109232  
H    2.1062464    0.0054047   -0.3505410  
C    4.5576540   -2.0608770   -2.9109854  
C    3.4088896   -1.6040004   -2.3491312  
C    2.8058657   -0.6998634   -3.2997804  
C    3.7039031   -0.6672365   -4.4699318  
N    4.7468755   -1.5131505   -4.1707198  
C    3.4850151    0.0720187   -5.5867552  
C    2.2849643    0.8903122   -5.6397499  
O    1.9987076    1.5913464   -6.6014719  
C    1.3198855    0.8712925   -4.4117158  
O    0.3065736    1.5563984   -4.4447247  
C    1.6628930    0.0339871   -3.2649301  
H    3.0275645   -1.8698619   -1.3793263  
H    4.1564149    0.0816022   -6.4341283  
H    5.2820356   -2.7514593   -2.5106644  
C    6.9080560   -5.2312418   -5.0586579  
C    7.8215252   -4.7544435   -5.9431420  
C    7.5712273   -3.3395261   -6.0852529  
C    6.4288861   -3.0288571   -5.2047236  
N    6.0734903   -4.2182170   -4.6114222  
C    5.8860981   -1.7939264   -5.0562918  
C    6.4655318   -0.6976327   -5.8145344  
O    6.0478215    0.4511109   -5.7496665  
C    7.6757309   -1.0037804   -6.7534139  
O    8.1716875   -0.0888603   -7.3970055  
C    8.1731014   -2.3751621   -6.8294889  
H    8.5835827   -5.3284496   -6.4395277  
H    9.0114637   -2.5787453   -7.4817363  
H    6.7741984   -6.2374808   -4.6960904  
H    5.3246329   -4.3323314   -3.9532135  
C    0.0000000    0.0000000    1.4700000  
C    1.0662921    0.0000102    2.3034270  
C    0.4961870   -0.0000064    3.6418889  
C   -0.9663858    0.0000850    3.4240247  
N   -1.2632773    0.0000084    2.1528658  
C   -1.8985362    0.0000517    4.5177257  
C   -1.3925775   -0.0004564    5.7720543  
O   -2.1456383   -0.0005410    6.8851312  
C    0.0786232   -0.0009323    6.0245000  
O    0.4683759   -0.0012588    7.1921102  
C    1.0143166   -0.0008442    4.8859032  
H    2.1107198   -0.0000632    2.0421868  
H   -2.9622183    0.0003270    4.3293377  
H   -1.5042274   -0.0009692    7.6184419  
H    2.0724152   -0.0013148    5.1109744  
