58

C    2.4782015   -2.1081875   -5.8783642  
C    1.9212507   -1.6438938   -7.0265422  
C    0.8545975   -0.7486147   -6.6450156  
C    0.8356626   -0.7292242   -5.1698696  
N    1.8439048   -1.5742003   -4.7669395  
C   -0.0307358   -0.0004642   -4.4215599  
C   -1.0100808    0.8193487   -5.1153365  
O   -1.8333388    1.5114172   -4.5308818  
C   -1.0083728    0.8138726   -6.6773136  
O   -1.8284260    1.4999051   -7.2724038  
C   -0.0251104   -0.0124246   -7.3732163  
H    2.2230610   -1.8995536   -8.0266229  
H   -0.0304442   -0.0104841   -8.4547392  
H    2.0835076   -1.7709322   -3.8125108  
C    3.2573667   -0.0002922   -1.5109381  
C    2.5379468   -0.0001710   -0.3591960  
C    1.1435040    0.0000334   -0.7338497  
C    1.1092606   -0.0000080   -2.2088473  
N    2.4227558    0.0001910   -2.6182611  
C   -0.0265535   -0.0002520   -2.9515658  
C   -1.3003038   -0.0002635   -2.2514976  
O   -2.3786789   -0.0004126   -2.8306422  
C   -1.2877726    0.0000313   -0.6895607  
O   -2.3539958    0.0003308   -0.0892034  
C    0.0000000    0.0000000    0.0000000  
H    2.9384091   -0.0000370    0.6389236  
H    4.3270390   -0.0004767   -1.6439449  
H    2.7280489   -0.0013404   -3.5742114  
C    3.5969095   -3.0457639   -5.7041742  
C    4.3268919   -3.6598223   -6.6641937  
C    5.2943099   -4.4694060   -5.9395033  
C    4.9972798   -4.2172195   -4.5130532  
N    4.0031953   -3.3835532   -4.3688820  
C    5.7459185   -4.8426938   -3.4578717  
C    6.7455863   -5.6822496   -3.8116303  
O    7.5250138   -6.3339779   -2.9319802  
C    7.0694613   -5.9574548   -5.2425491  
O    7.9928195   -6.7325708   -5.4911966  
C    6.2870088   -5.3035776   -6.3065687  
H    4.2217873   -3.5740661   -7.7322176  
H    5.5072456   -4.6400294   -2.4240090  
H    8.1403836   -6.8516436   -3.4819756  
H    6.5529718   -5.5293564   -7.3305403  
C    2.5528530    2.1414826    2.8079335  
C    2.0663498    1.7338582    4.0032312  
C    0.9804344    0.8229586    3.6752840  
C    0.9495562    0.7966882    2.1971295  
N    1.8690446    1.5676019    1.6831036  
C    0.0000000    0.0000000    1.4700000  
C   -0.8785127   -0.7372425    2.1869543  
O   -1.8187535   -1.5261249    1.6395491  
C   -0.8723269   -0.7321790    3.6796354  
O   -1.7010379   -1.4274584    4.2670412  
C    0.1115397    0.0933559    4.4024240  
H    2.4028853    2.0163452    4.9860947  
H   -2.2861435   -1.9184361    2.3990168  
H    0.0832434    0.0693689    5.4835595  
H    3.3664920    2.8238276    2.6198634  
