64

C   -4.5382360    2.1274892   -0.3187876  
C   -3.4269602    1.6643337   -0.9843851  
C   -3.8900483    0.7769752   -2.0006254  
C   -5.3047950    0.7381445   -1.9062262  
N   -5.6653099    1.5678669   -0.8736536  
C   -6.0984770   -0.0376818   -2.7564914  
C   -5.4522278   -0.7877416   -3.7197929  
O   -6.1789762   -1.5629108   -4.5765089  
C   -4.0415022   -0.7625028   -3.8294926  
O   -3.5480072   -1.5637590   -4.8383502  
C   -3.2578655    0.0024282   -2.9908505  
H   -2.4078383    1.9321496   -0.7637973  
H   -7.1771659   -0.0717345   -2.6896157  
H   -5.5421678   -1.9966428   -5.1592753  
H   -2.5888325   -1.4892402   -4.8442641  
H   -4.6159715    2.8116402    0.5087712  
C   -7.6705067    5.2836320    0.4420811  
C   -8.9134556    4.7407044    0.6718081  
C   -8.8248039    3.3513603    0.3612209  
C   -7.4921923    3.1023527   -0.0559928  
N   -6.8187520    4.2971804    0.0030178  
C   -7.0442479    1.8347555   -0.4398304  
C   -7.9581360    0.7996146   -0.4015097  
O   -7.5737460   -0.4584535   -0.7655464  
C   -9.2922781    1.0282427    0.0115396  
O  -10.0809234   -0.1036211   -0.0048122  
C   -9.7349527    2.2785510    0.3900835  
H   -9.7780089    5.2799411    1.0193203  
H   -5.8499969    4.4292336   -0.2251431  
H   -8.3528831   -1.0211203   -0.6674803  
H  -10.9652356    0.1375955    0.2874374  
H  -10.7628137    2.4231728    0.7016352  
H   -7.3245314    6.2967647    0.5553135  
C    0.0000000    0.0000000    0.0000000  
C    1.0521666   -0.0011982   -0.8862343  
C    0.4917215   -0.0011996   -2.1979132  
C   -0.9187429    0.0003215   -2.0478682  
N   -1.1833171   -0.0009323   -0.7007913  
C   -1.7951703    0.0010483   -3.1372089  
C   -1.2375841    0.0005313   -4.4010422  
O   -2.0474218    0.0015510   -5.4997578  
C    0.1673576   -0.0013585   -4.5711963  
O    0.5673520   -0.0020735   -5.8915554  
C    1.0325768   -0.0023493   -3.4969892  
H    2.0953056   -0.0030808   -0.6200564  
H   -2.0989778    0.0102529   -0.2891822  
H   -1.4634888    0.0006601   -6.2693595  
H    1.5290707   -0.0033271   -5.9180047  
H    2.1042146   -0.0039770   -3.6584456  
C    0.0000000    0.0000000    1.4700000  
C    1.0662921    0.0000102    2.3034270  
C    0.4961870   -0.0000064    3.6418889  
C   -0.9663858    0.0000850    3.4240247  
N   -1.2632773    0.0000084    2.1528658  
C   -1.8985362    0.0000517    4.5177257  
C   -1.3925775   -0.0004564    5.7720543  
O   -2.1456383   -0.0005410    6.8851312  
C    0.0786232   -0.0009323    6.0245000  
O    0.4683759   -0.0012588    7.1921102  
C    1.0143166   -0.0008442    4.8859032  
H    2.1107198   -0.0000632    2.0421868  
H   -2.9622183    0.0003270    4.3293377  
H   -1.5042274   -0.0009692    7.6184419  
H    2.0724152   -0.0013148    5.1109744  
