62

C    1.1188643    0.0008226   -0.8003809  
C    0.0000000    0.0000000    0.0000000  
C   -1.1323862    0.0008893   -0.8673527  
C   -0.6382661    0.0019674   -2.1969282  
N    0.7324019    0.0038481   -2.1202243  
C   -1.4770916    0.0027306   -3.3154811  
C   -2.8395474    0.0020924   -3.0876858  
O   -3.7039196    0.0024401   -4.1440351  
C   -3.3517873    0.0013913   -1.7684329  
O   -4.7300492    0.0012340   -1.7073128  
C   -2.5248542    0.0009110   -0.6644820  
H   -1.1067564    0.0036975   -4.3313811  
H   -4.5940030    0.0021801   -3.7685135  
H   -4.9934603    0.0007236   -0.7819913  
H   -2.9462576    0.0005588    0.3339653  
H    2.1619897    0.0009363   -0.5342071  
C    4.5426446   -2.1280460   -2.8244673  
C    4.7840764   -1.6433654   -4.0890868  
C    3.7027654   -0.7718616   -4.4144297  
C    2.8248674   -0.7639989   -3.3003566  
N    3.3636328   -1.5993764   -2.3535230  
C    1.6478436   -0.0100096   -3.2703001  
C    1.3518117    0.7501216   -4.3850837  
O    0.2151945    1.5054722   -4.4087633  
C    2.2150333    0.7551145   -5.5065294  
O    1.7815966    1.5622772   -6.5380165  
C    3.3762254    0.0113188   -5.5369822  
H    2.9665981   -1.7854927   -1.4503587  
H    0.2007685    1.9502728   -5.2662070  
H    2.4205812    1.5086862   -7.2552545  
H    4.0176563    0.0350491   -6.4101841  
H    5.1174447   -2.8101409   -2.2217151  
C    6.9551281   -5.4218371   -4.8005068  
C    6.0860056   -4.4748709   -4.3623782  
C    6.4603985   -3.2335523   -4.9978254  
C    7.6272305   -3.5371436   -5.8481933  
N    7.8768788   -4.8800604   -5.6834524  
C    8.2775066   -2.6258593   -6.6152701  
C    7.7961845   -1.2544748   -6.6023137  
O    8.3141009   -0.3605382   -7.2587737  
C    6.5620638   -0.9103597   -5.7088170  
O    6.1480173    0.2409249   -5.6895634  
C    5.9450624   -1.9783883   -4.9262080  
H    5.2752790   -4.6283622   -3.6726129  
H    9.1314676   -2.8693683   -7.2320078  
H    6.9999428   -6.4698669   -4.5524852  
H    8.6137816   -5.3886989   -6.1365630  
C    2.5528530    2.1414826    2.8079335  
C    2.0663498    1.7338582    4.0032312  
C    0.9804344    0.8229586    3.6752840  
C    0.9495562    0.7966882    2.1971295  
N    1.8690446    1.5676019    1.6831036  
C    0.0000000    0.0000000    1.4700000  
C   -0.8785127   -0.7372425    2.1869543  
O   -1.8187535   -1.5261249    1.6395491  
C   -0.8723269   -0.7321790    3.6796354  
O   -1.7010379   -1.4274584    4.2670412  
C    0.1115397    0.0933559    4.4024240  
H    2.4028853    2.0163452    4.9860947  
H   -2.2861435   -1.9184361    2.3990168  
H    0.0832434    0.0693689    5.4835595  
H    3.3664920    2.8238276    2.6198634  
