58

C    2.8497500   -0.7283602   -3.3359970  
C    3.4914339   -0.5134522   -4.5133378  
C    2.6832175    0.4131995   -5.2702645  
C    1.5096738    0.7227764   -4.4313674  
N    1.6707640   -0.0012346   -3.2725974  
C    0.5071665    1.5634835   -4.7917776  
C    0.5893840    2.2061566   -6.0928336  
O   -0.2632818    2.9796306   -6.5087674  
C    1.8232403    1.8926652   -6.9978897  
O    1.9032033    2.4275856   -8.0954899  
C    2.8399721    0.9695592   -6.4999103  
H    4.4243724   -0.9539526   -4.8169812  
H   -0.3448597    1.7770156   -4.1614080  
H    3.1388486   -1.3569184   -2.5094213  
C    1.0965516    0.0001357   -0.8010304  
C    0.0000000    0.0000000    0.0000000  
C   -1.1546563    0.0001468   -0.8669509  
C   -0.6372015    0.0003517   -2.2486279  
N    0.7342869    0.0007336   -2.1395013  
C   -1.4147739    0.0001346   -3.3608715  
C   -2.8576054   -0.0001053   -3.1854458  
O   -3.6427780   -0.0002503   -4.1244898  
C   -3.4275841   -0.0000727   -1.7311662  
O   -4.6406831    0.0000327   -1.5710054  
C   -2.4891866   -0.0001093   -0.6116739  
H   -1.0150452    0.0001612   -4.3654243  
H   -2.8919121   -0.0002921    0.3920870  
H    2.1388271    0.0000665   -0.5261650  
C    5.2232335   -2.6606704   -7.5028753  
C    4.2878088   -1.8521129   -6.9526082  
C    4.5594936   -0.5339955   -7.5051062  
C    5.7241462   -0.7351743   -8.3937545  
N    6.1176090   -1.9798305   -8.3965903  
C    6.3085402    0.3459030   -9.1386315  
C    5.7543870    1.5721380   -9.0022592  
O    6.1970819    2.6706779   -9.6372968  
C    4.5783643    1.8070979   -8.1134828  
O    4.1257417    2.9492826   -8.0375356  
C    3.9969993    0.6819514   -7.3598351  
H    3.5094940   -2.1174103   -6.2576844  
H    7.1595171    0.1702545   -9.7804219  
H    5.6044202    3.3845714   -9.3402077  
H    5.3613212   -3.7187494   -7.3467516  
C    2.5528530    2.1414826    2.8079335  
C    2.0663498    1.7338582    4.0032312  
C    0.9804344    0.8229586    3.6752840  
C    0.9495562    0.7966882    2.1971295  
N    1.8690446    1.5676019    1.6831036  
C    0.0000000    0.0000000    1.4700000  
C   -0.8785127   -0.7372425    2.1869543  
O   -1.8187535   -1.5261249    1.6395491  
C   -0.8723269   -0.7321790    3.6796354  
O   -1.7010379   -1.4274584    4.2670412  
C    0.1115397    0.0933559    4.4024240  
H    2.4028853    2.0163452    4.9860947  
H   -2.2861435   -1.9184361    2.3990168  
H    0.0832434    0.0693689    5.4835595  
H    3.3664920    2.8238276    2.6198634  
