64

C    4.3172181   -2.1276214   -1.4346667  
C    5.3517550   -1.6299844   -2.1926636  
C    4.7753703   -0.7549587   -3.1605017  
C    3.3738274   -0.7584004   -2.9423468  
N    3.1294633   -1.6035969   -1.8885225  
C    2.4861704   -0.0045255   -3.7159919  
C    3.0231744    0.7671112   -4.7281088  
O    2.2016882    1.5228925   -5.5135820  
C    4.4189003    0.7834865   -4.9615571  
O    4.7982356    1.6013206   -6.0058726  
C    5.2951622    0.0398121   -4.1989044  
H    6.3935655   -1.8691808   -2.0645680  
H    2.2250241   -1.7989301   -1.4988868  
H    2.7718801    1.9765076   -6.1479167  
H    5.7549249    1.5549959   -6.0964458  
H    6.3593041    0.0724104   -4.4014334  
C    5.4664807   -3.6605106    0.2115060  
C    5.1089447   -4.4903109    1.2488422  
C    3.6909037   -4.4072485    1.3786913  
C    3.2341638   -3.5039614    0.3850167  
N    4.3380426   -3.0675920   -0.3046572  
C    1.8839496   -3.1808046    0.2198515  
C    0.9782819   -3.7806665    1.0731444  
O   -0.3524728   -3.5008928    0.9555327  
C    1.4146080   -4.6843024    2.0710812  
O    0.3918542   -5.1977282    2.8416087  
C    2.7464989   -5.0033615    2.2347704  
H    5.7869201   -5.0817864    1.8400265  
H    1.5294257   -2.4930236   -0.5354452  
H   -0.8013539   -4.0172133    1.6375762  
H    0.7717106   -5.7981804    3.4902771  
H    3.0507727   -5.6988622    3.0081884  
H    6.4372986   -3.4435860   -0.2000952  
C    0.0000000    0.0000000    0.0000000  
C    1.0521669   -0.0011848   -0.8862341  
C    0.4917221   -0.0011931   -2.1979130  
C   -0.9187427    0.0003100   -2.0478683  
N   -1.1833170   -0.0009472   -0.7007915  
C   -1.7951698    0.0010259   -3.1372090  
C   -1.2375835    0.0005161   -4.4010425  
O   -2.0474208    0.0015256   -5.4997580  
C    0.1673584   -0.0013557   -4.5711962  
O    0.5673529   -0.0020659   -5.8915551  
C    1.0325773   -0.0023359   -3.4969890  
H    2.0953059   -0.0030542   -0.6200560  
H   -2.0989777    0.0102265   -0.2891825  
H   -2.8710930    0.0020274   -3.0295514  
H   -1.4634881    0.0006427   -6.2693593  
H    1.5290715   -0.0033076   -5.9180042  
C    3.3321173   -0.0004715    2.8079335  
C    2.6974184   -0.0000116    4.0032312  
C    1.2800439    0.0002118    3.6752840  
C    1.2395035   -0.0000644    2.1971295  
N    2.4394063   -0.0005460    1.6831036  
C    0.0000000    0.0000000    1.4700000  
C   -1.1468701   -0.0000635    2.1869543  
O   -2.3742202   -0.0000073    1.6395491  
C   -1.1388768   -0.0001607    3.6796354  
O   -2.2206231   -0.0000905    4.2670412  
C    0.1454524   -0.0001816    4.4024240  
H    3.1367986    0.0000651    4.9860947  
H   -2.9844344   -0.0001026    2.3990168  
H    0.1083576   -0.0003682    5.4835595  
H    4.3940039   -0.0007619    2.6198634  
