58

C    3.2573668   -0.0002920   -1.5109379  
C    2.5379467   -0.0001710   -0.3591960  
C    1.1435040    0.0000332   -0.7338495  
C    1.1092603   -0.0000082   -2.2088472  
N    2.4227559    0.0001909   -2.6182607  
C   -0.0265537   -0.0002523   -2.9515654  
C   -1.3003041   -0.0002640   -2.2514973  
O   -2.3786787   -0.0004131   -2.8306424  
C   -1.2877728    0.0000312   -0.6895600  
O   -2.3539956    0.0003307   -0.0892030  
C    0.0000000    0.0000000    0.0000000  
H    2.9384089   -0.0000367    0.6389240  
H   -0.0296296   -0.0004085   -4.0327227  
H    4.3270393   -0.0004766   -1.6439440  
C    5.7077615   -2.0955290   -4.6950678  
C    4.8321760   -1.6318731   -3.7663869  
C    3.9281494   -0.7371777   -4.4498269  
C    4.3518499   -0.7174793   -5.8629371  
N    5.4355520   -1.5611011   -5.9452790  
C    3.7483560    0.0102942   -6.8365108  
C    2.6053636    0.8289907   -6.4679465  
O    1.9941032    1.5202154   -7.2722291  
C    2.1395164    0.8235571   -4.9770537  
O    1.1785715    1.5091256   -4.6548103  
C    2.8699637   -0.0020525   -4.0185822  
H    4.8209984   -1.8873090   -2.7217620  
H    6.5291166   -2.7825107   -4.5712830  
H    5.9483424   -1.7597065   -6.7847131  
C    5.1916863   -3.1963684   -9.5068185  
C    4.7239397   -2.4882300   -8.4467108  
C    4.6047625   -1.1151676   -8.8772116  
C    5.0445453   -1.0811798  -10.2851272  
N    5.3874349   -2.3743238  -10.6062121  
C    5.0792520    0.0372308  -11.0530190  
C    4.6553725    1.2912199  -10.4527082  
O    4.6503385    2.3530622  -11.0616152  
C    4.1859464    1.2786380   -8.9629813  
O    3.8270842    2.3283710   -8.4467071  
C    4.1923785    0.0105723   -8.2378476  
H    4.4893580   -2.8826875   -7.4740910  
H    5.4051625    0.0404366  -12.0838834  
H    5.4100656   -4.2495660   -9.5773559  
H    5.7256579   -2.6749997  -11.5018936  
C    0.8175213    0.6860729    2.3021913  
C    0.0000000    0.0000000    1.4700000  
C   -0.8887526   -0.7456559    2.3478473  
C   -0.4549825   -0.3816753    3.7138435  
N    0.5448156    0.4573574    3.6934124  
C   -1.0945674   -0.9182058    4.8835240  
C   -2.1210866   -1.7789155    4.6970523  
O   -2.8083856   -2.3554314    5.6976972  
C   -2.5824069   -2.1655116    3.3310774  
O   -3.5227682   -2.9541547    3.2362962  
C   -1.9100805   -1.6015804    2.1470656  
H   -0.7567140   -0.6349833    5.8697035  
H   -3.4728268   -2.9124471    5.2533954  
H   -2.2742832   -1.9066565    1.1752040  
H    1.6189533    1.3585343    2.0405121  
