58

C    3.2798084    0.0005856   -1.4499646  
C    2.5571146    0.0005565   -2.5996554  
C    1.1637432    0.0001549   -2.2210359  
C    1.1336965   -0.0000200   -0.7459469  
N    2.4483512   -0.0001430   -0.3402718  
C    0.0000000    0.0000000    0.0000000  
C   -1.2757379   -0.0000186   -0.6964418  
O   -2.3524596   -0.0000639   -0.1142315  
C   -1.2676492   -0.0000872   -2.2584081  
O   -2.3355757   -0.0004100   -2.8557297  
C    0.0181563    0.0001760   -2.9516295  
H    2.9547353    0.0006075   -3.5989101  
H    0.0150791    0.0003320   -4.0331628  
H    2.7563624    0.0012823    0.6148064  
C    6.6317391   -0.0005811   -4.3241584  
C    5.4016591   -0.0005061   -3.7488512  
C    5.6054526    0.0003362   -2.3194101  
C    7.0655612    0.0007779   -2.1075767  
N    7.6303558   -0.0002120   -3.3621268  
C    7.6659171    0.0019860   -0.8904999  
C    6.8173806    0.0026870    0.2895510  
O    7.2622811    0.0037194    1.4298859  
C    5.2683490    0.0019842    0.0887900  
O    4.5438176    0.0022581    1.0748502  
C    4.7390846    0.0009613   -1.2727276  
H    4.4591041   -0.0011684   -4.2667345  
H    6.8927447   -0.0010918   -5.3699913  
H    8.6161411    0.0013557   -3.5499358  
C   10.8729997    2.1089614   -3.0255917  
C   11.9457298    1.6453410   -2.3339409  
C   11.4385340    0.7506920   -1.3204360  
C    9.9718696    0.7309373   -1.4794829  
N    9.6932970    1.5751226   -2.5295483  
C    9.1246829    0.0025768   -0.7091124  
C    9.6954600   -0.8163907    0.3473159  
O    9.0161284   -1.5080476    1.0945908  
C   11.2462474   -0.8105166    0.5339429  
O   11.7382405   -1.4958381    1.4202489  
C   12.0554833    0.0152879   -0.3588264  
H   12.9748594    1.9010507   -2.5131517  
H   13.1284736    0.0136272   -0.2231316  
H   10.8449897    2.7958680   -3.8558111  
H    8.7746859    1.7714473   -2.8826172  
C    2.3971438    2.0127888    3.1728260  
C    1.9431056    1.6308205    1.9564670  
C    0.8496017    0.7127664    2.2356185  
C    0.7794028    0.6545384    3.7115134  
N    1.6840587    1.4146091    4.2663826  
C   -0.1885723   -0.1578550    4.3957118  
C   -1.0476298   -0.8789867    3.6398520  
O   -2.0015663   -1.6796266    4.1448486  
C   -1.0022026   -0.8410666    2.1483229  
O   -1.8147390   -1.5232959    1.5241687  
C    0.0000000    0.0000000    1.4700000  
H    2.3054237    1.9346118    0.9892483  
H   -0.2170646   -0.1815267    5.4753125  
H   -2.4487139   -2.0549881    3.3649027  
H    3.2048689    2.6911772    3.3971983  
