58

C   -0.9325306    0.5768984   -0.8010308  
C    0.0000000    0.0000000    0.0000000  
C    0.9817912   -0.6077148   -0.8669512  
C    0.5416624   -0.3356007   -2.2486281  
N   -0.6247918    0.3857630   -2.1395010  
C    1.2029897   -0.7445816   -3.3608714  
C    2.4300359   -1.5036066   -3.1854460  
O    3.0977881   -1.9166479   -4.1244900  
C    2.9147042   -1.8035612   -1.7311661  
O    3.9462143   -2.4419935   -1.5710055  
C    2.1167518   -1.3097373   -0.6116741  
H    2.4593080   -1.5214992    0.3920865  
H   -1.8187992    1.1254113   -0.5261645  
H   -1.1677174    0.7233102   -2.9130259  
C   -0.6073545    2.8345451   -5.2072024  
C   -0.0524537    1.9480662   -4.3409952  
C    0.2034499    0.7369773   -5.0843738  
C   -0.2510822    0.9923931   -6.4645744  
N   -0.7321662    2.2813399   -6.4725583  
C   -0.1798377    0.0911814   -7.4767238  
C    0.3818035   -1.2177757   -7.1873681  
O    0.4889899   -2.0979536   -8.0312275  
C    0.8692606   -1.5101808   -5.7324837  
O    1.3436254   -2.6087704   -5.4768661  
C    0.7408096   -0.4586229   -4.7267109  
H    0.1538676    2.1225735   -3.3000376  
H   -0.5187954    0.2987196   -8.4821821  
H   -1.1131866    2.7489105   -7.2745860  
C   -1.0552853    4.2130415   -4.9622409  
C   -1.0116404    4.9099630   -3.8029414  
C   -1.5786162    6.2103519   -4.1254741  
C   -1.9203381    6.1221622   -5.5614524  
N   -1.6159269    4.9536679   -6.0573797  
C   -2.5137904    7.2217552   -6.2712378  
C   -2.7552570    8.3576761   -5.5779035  
O   -3.3046779    9.4612083   -6.1130625  
C   -2.4220147    8.4774796   -4.1278146  
O   -2.6693235    9.5413646   -3.5601811  
C   -1.8138432    7.3355230   -3.4221331  
H   -0.6406126    4.5820645   -2.8469620  
H   -2.7529996    7.1296100   -7.3206171  
H   -3.3495062   10.0978196   -5.3769449  
H   -1.5875479    7.4624449   -2.3719374  
C    0.0000000    0.0000000    1.4700000  
C    1.0662921    0.0000102    2.3034270  
C    0.4961870   -0.0000064    3.6418889  
C   -0.9663858    0.0000850    3.4240247  
N   -1.2632773    0.0000084    2.1528658  
C   -1.8985362    0.0000517    4.5177257  
C   -1.3925775   -0.0004564    5.7720543  
O   -2.1456383   -0.0005410    6.8851312  
C    0.0786232   -0.0009323    6.0245000  
O    0.4683759   -0.0012588    7.1921102  
C    1.0143166   -0.0008442    4.8859032  
H    2.1107198   -0.0000632    2.0421868  
H   -2.9622183    0.0003270    4.3293377  
H   -1.5042274   -0.0009692    7.6184419  
H    2.0724152   -0.0013148    5.1109744  
