60

C    0.0000000    0.0000000    0.0000000  
C    1.0521665   -0.0011901   -0.8862342  
C    0.4917217   -0.0011956   -2.1979130  
C   -0.9187428    0.0003148   -2.0478683  
N   -1.1833173   -0.0009411   -0.7007911  
C   -1.7951703    0.0010349   -3.1372088  
C   -1.2375840    0.0005224   -4.4010424  
O   -2.0474220    0.0015359   -5.4997576  
C    0.1673578   -0.0013566   -4.5711965  
O    0.5673521   -0.0020688   -5.8915549  
C    1.0325768   -0.0023412   -3.4969890  
H    2.0953059   -0.0030648   -0.6200563  
H   -2.0989774    0.0102371   -0.2891826  
H   -1.4634888    0.0006496   -6.2693593  
H    1.5290706   -0.0033152   -5.9180048  
C    3.4064528   -0.7318366   -2.9764950  
C    4.6700471   -0.5171191   -3.4251602  
C    4.5733462    0.4095834   -4.5282045  
C    3.1395582    0.7193978   -4.6865021  
N    2.4861699   -0.0045381   -3.7159922  
C    2.6335421    1.5602166   -5.6238792  
C    3.5630782    2.2027684   -6.5380050  
O    3.2057020    2.9763279   -7.4167478  
C    5.0859339    1.8890250   -6.3887352  
O    5.8780057    2.4238418   -7.1528382  
C    5.5107310    0.9658168   -5.3394087  
H    5.5674380   -0.9577775   -3.0287723  
H    1.5783521    1.7739232   -5.7229396  
H    6.5669016    0.7540381   -5.2425735  
H    3.0700923   -1.3603658   -2.1679762  
C   -4.7116853    2.0166393   -0.4361493  
C   -3.5469323    1.6335646   -1.0090230  
C   -3.9344256    0.7158339   -2.0692677  
C   -5.4100300    0.6589843   -1.9921705  
N   -5.8713626    1.4195192   -1.0367917  
C   -6.1879609   -0.1527158   -2.8871859  
C   -5.5220602   -0.8745016   -3.8172057  
O   -6.1202713   -1.6746160   -4.7160947  
C   -4.0333848   -0.8379730   -3.9205074  
O   -3.4938673   -1.5207365   -4.7911251  
C   -3.2578657    0.0024038   -2.9908504  
H   -2.5481629    1.9364342   -0.7448157  
H   -7.2650558   -0.1753806   -2.8080468  
H   -5.3890707   -2.0506778   -5.2386612  
H   -4.8538898    2.6951898    0.3898775  
C    3.3321173   -0.0004715    2.8079335  
C    2.6974184   -0.0000116    4.0032312  
C    1.2800439    0.0002118    3.6752840  
C    1.2395035   -0.0000644    2.1971295  
N    2.4394063   -0.0005460    1.6831036  
C    0.0000000    0.0000000    1.4700000  
C   -1.1468701   -0.0000635    2.1869543  
O   -2.3742202   -0.0000073    1.6395491  
C   -1.1388768   -0.0001607    3.6796354  
O   -2.2206231   -0.0000905    4.2670412  
C    0.1454524   -0.0001816    4.4024240  
H    3.1367986    0.0000651    4.9860947  
H   -2.9844344   -0.0001026    2.3990168  
H    0.1083576   -0.0003682    5.4835595  
H    4.3940039   -0.0007619    2.6198634  
