60

C    3.3003554    0.0005273   -1.4738973  
C    2.5232827    0.0003494   -2.6090737  
C    1.1623213   -0.0001321   -2.1820100  
C    1.1711892    0.0000583   -0.7636139  
N    2.4852305   -0.0014921   -0.3662348  
C    0.0000000    0.0000000    0.0000000  
C   -1.2020378    0.0000520   -0.6806488  
O   -2.3759246    0.0003493    0.0157732  
C   -1.2314646   -0.0005114   -2.0955514  
O   -2.5054373   -0.0008039   -2.6250195  
C   -0.0764502   -0.0007275   -2.8495198  
H    2.8036264    0.0088182    0.5858676  
H   -3.0835630    0.0000348   -0.6418832  
H   -2.4360027   -0.0011530   -3.5845934  
H   -0.1304074   -0.0013424   -3.9319089  
H    4.3715557    0.0004892   -1.3667119  
C    5.8913017   -2.0917718   -4.5522438  
C    4.9785007   -1.6292459   -3.6595293  
C    4.1021084   -0.7349694   -4.3785855  
C    4.5825821   -0.7142855   -5.7734001  
N    5.6694235   -1.5569948   -5.8122132  
C    4.0183459    0.0134434   -6.7702714  
C    2.8607109    0.8310489   -6.4478777  
O    2.2818996    1.5221458   -7.2759259  
C    2.3349682    0.8245604   -4.9770422  
O    1.3612145    1.5092060   -4.6936270  
C    3.0267455   -0.0008954   -3.9901689  
H    4.9253058   -1.8851662   -2.6163186  
H    6.7075464   -2.7781460   -4.3956404  
H    6.2158986   -1.7548036   -6.6303110  
C    5.5711099   -3.1908369   -9.3813906  
C    5.0602984   -2.4835592   -8.3407633  
C    4.9574919   -1.1103974   -8.7751512  
C    5.4538128   -1.0754136  -10.1641191  
N    5.8104711   -2.3681340  -10.4716224  
C    5.5186164    0.0433741  -10.9295074  
C    5.0697768    1.2967471  -10.3462978  
O    5.0884900    2.3588621  -10.9544603  
C    4.5405113    1.2831080   -8.8767750  
O    4.1602017    2.3323158   -8.3749888  
C    4.5186650    0.0147180   -8.1525087  
H    4.7869080   -2.8786484   -7.3785906  
H    5.8859387    0.0473123  -11.9463506  
H    5.7930313   -4.2438254   -9.4434853  
H    6.1848809   -2.6681291  -11.3530237  
C    2.5528530    2.1414826    2.8079335  
C    2.0663498    1.7338582    4.0032312  
C    0.9804344    0.8229586    3.6752840  
C    0.9495562    0.7966882    2.1971295  
N    1.8690446    1.5676019    1.6831036  
C    0.0000000    0.0000000    1.4700000  
C   -0.8785127   -0.7372425    2.1869543  
O   -1.8187535   -1.5261249    1.6395491  
C   -0.8723269   -0.7321790    3.6796354  
O   -1.7010379   -1.4274584    4.2670412  
C    0.1115397    0.0933559    4.4024240  
H    2.4028853    2.0163452    4.9860947  
H   -2.2861435   -1.9184361    2.3990168  
H    0.0832434    0.0693689    5.4835595  
H    3.3664920    2.8238276    2.6198634  
