58

C   -3.2797363   -0.0217545   -1.4499652  
C   -2.5570576   -0.0170609   -2.5996558  
C   -1.1637184   -0.0076659   -2.2210362  
C   -1.1336727   -0.0072972   -0.7459471  
N   -2.4483014   -0.0156595   -0.3402723  
C    0.0000000    0.0000000    0.0000000  
C    1.2757106    0.0082526   -0.6964414  
O    2.3524096    0.0152475   -0.1142312  
C    1.2676218    0.0082691   -2.2584083  
O    2.3355254    0.0154846   -2.8557293  
C   -0.0181541   -0.0002931   -2.9516296  
H   -2.9546693   -0.0196783   -3.5989110  
H   -0.0150758   -0.0004292   -4.0331632  
H   -2.7562970   -0.0190727    0.6148059  
C   -5.6705277   -0.0363191   -2.2998286  
C   -6.9365427   -0.0428629   -1.8086684  
C   -6.8294820   -0.0419612   -0.3687473  
C   -5.3869750   -0.0342716   -0.0590629  
N   -4.7389798   -0.0315488   -1.2727285  
C   -4.8699578   -0.0308518    1.1956825  
C   -5.7960294   -0.0352494    2.3159092  
O   -5.4289435   -0.0327402    3.4836178  
C   -7.3280006   -0.0436579    2.0112828  
O   -8.1172836   -0.0477227    2.9463102  
C   -7.7643624   -0.0464342    0.6172123  
H   -7.8420666   -0.0479448   -2.3888536  
H   -3.8084951   -0.0250762    1.4010427  
H   -5.3396856   -0.0347971   -3.3257091  
C  -10.4219528   -2.0742442   -2.3306078  
C   -9.3140691   -1.6862312   -1.6570950  
C   -9.7977256   -0.7703016   -0.6355039  
C  -11.2609647   -0.7197905   -0.8427814  
N  -11.6327489   -1.4821893   -1.8350085  
C  -12.1184621    0.0884498   -0.0202657  
C  -11.5405052    0.8129828    0.9647987  
O  -12.2192815    1.6104099    1.8070657  
C  -10.0666500    0.7828456    1.1993288  
O   -9.6091600    1.4678200    2.1140600  
C   -9.2083689   -0.0540773    0.3421014  
H   -8.2945588   -1.9847706   -1.8318807  
H  -13.1844293    0.1064907   -0.1943335  
H  -11.5387697    1.9895516    2.3921376  
H  -10.4876502   -2.7533020   -3.1657949  
C    0.0000000    0.0000000    1.4700000  
C    1.0662921    0.0000102    2.3034270  
C    0.4961870   -0.0000064    3.6418889  
C   -0.9663858    0.0000850    3.4240247  
N   -1.2632773    0.0000084    2.1528658  
C   -1.8985362    0.0000517    4.5177257  
C   -1.3925775   -0.0004564    5.7720543  
O   -2.1456383   -0.0005410    6.8851312  
C    0.0786232   -0.0009323    6.0245000  
O    0.4683759   -0.0012588    7.1921102  
C    1.0143166   -0.0008442    4.8859032  
H    2.1107198   -0.0000632    2.0421868  
H   -2.9622183    0.0003270    4.3293377  
H   -1.5042274   -0.0009692    7.6184419  
H    2.0724152   -0.0013148    5.1109744  
