58

C    1.5356920   -1.0916567   -9.4620004  
C    1.0343283   -0.0598046   -8.7440205  
C    1.1736472    1.1016591   -9.6089437  
C    1.7946694    0.5748697  -10.8432079  
N    2.0091764   -0.7102519  -10.7629684  
C    2.1014499    1.4226789  -11.9622210  
C    1.8011137    2.7369357  -11.8533122  
O    2.0323417    3.6422314  -12.8192384  
C    1.1736769    3.2987384  -10.6208909  
O    0.9278500    4.5045211  -10.5912675  
C    0.8687193    2.4085971   -9.4866182  
H    2.5554498    1.0108463  -12.8517096  
H    1.7136218    4.4856055  -12.4500639  
H    0.4142066    2.8544081   -8.6120339  
H    1.6135059   -2.1272086   -9.1712245  
C    2.0485059   -2.1404838   -4.9352596  
C    2.0920573   -1.7327542   -6.2250031  
C    0.9665701   -0.8221932   -6.3687265  
C    0.3351125   -0.7962139   -5.0318758  
N    0.9649966   -1.5669927   -4.1874018  
C   -0.8287665    0.0000939   -4.7555305  
C   -1.3384137    0.7372507   -5.7685430  
O   -2.4204376    1.5257895   -5.6524722  
C   -0.7235766    0.7324748   -7.1287316  
O   -1.2406169    1.4276564   -8.0031532  
C    0.4698625   -0.0926719   -7.3871127  
H    2.8005017   -2.0149674   -6.9849629  
H   -2.5373015    1.9181275   -6.5365349  
H    2.7147577   -2.8226585   -4.4315535  
C    1.0672569   -0.0000698   -0.8321910  
C    0.0000000    0.0000000    0.0000000  
C   -1.1601223   -0.0000736   -0.8778472  
C   -0.5938729   -0.0000768   -2.2438435  
N    0.7113367   -0.0001553   -2.2234123  
C   -1.4286985   -0.0001877   -3.4135239  
C   -2.7683113   -0.0006798   -3.2270524  
O   -3.6653902   -0.0008302   -4.2276970  
C   -3.3702024   -0.0010610   -1.8610774  
O   -4.5974910   -0.0013779   -1.7662963  
C   -2.4926825   -0.0008943   -0.6770658  
H   -4.5324245   -0.0012258   -3.7833954  
H   -2.9677772   -0.0012974    0.2947961  
H    2.1134391   -0.0000547   -0.5705119  
C    0.8175213    0.6860729    2.3021913  
C    0.0000000    0.0000000    1.4700000  
C   -0.8887526   -0.7456559    2.3478473  
C   -0.4549825   -0.3816753    3.7138435  
N    0.5448156    0.4573574    3.6934124  
C   -1.0945674   -0.9182058    4.8835240  
C   -2.1210866   -1.7789155    4.6970523  
O   -2.8083856   -2.3554314    5.6976972  
C   -2.5824069   -2.1655116    3.3310774  
O   -3.5227682   -2.9541547    3.2362962  
C   -1.9100805   -1.6015804    2.1470656  
H   -0.7567140   -0.6349833    5.8697035  
H   -3.4728268   -2.9124471    5.2533954  
H   -2.2742832   -1.9066565    1.1752040  
H    1.6189533    1.3585343    2.0405121  
