58

C    1.0965513    0.0001360   -0.8010302  
C    0.0000000    0.0000000    0.0000000  
C   -1.1546567    0.0001472   -0.8669508  
C   -0.6372019    0.0003523   -2.2486279  
N    0.7342867    0.0007340   -2.1395008  
C   -1.4147743    0.0001357   -3.3608712  
C   -2.8576055   -0.0001041   -3.1854457  
O   -3.6427785   -0.0002487   -4.1244905  
C   -3.4275843   -0.0000721   -1.7311660  
O   -4.6406831    0.0000340   -1.5710055  
C   -2.4891869   -0.0001089   -0.6116742  
H   -1.0150452    0.0001620   -4.3654240  
H   -2.8919123   -0.0002917    0.3920869  
H    2.1388269    0.0000662   -0.5261641  
C    4.5298619   -2.1105787   -2.7870397  
C    4.8358777   -1.6476827   -4.0264577  
C    3.7723833   -0.7519985   -4.4157717  
C    2.8148499   -0.7308470   -3.2935095  
N    3.3319992   -1.5752941   -2.3383367  
C    1.6707639   -0.0012341   -3.2725969  
C    1.3617417    0.8177038   -4.4329339  
O    0.3555479    1.5104316   -4.5104131  
C    2.3615447    0.8103621   -5.6329947  
O    2.1118346    1.4956453   -6.6154877  
C    3.5619265   -0.0167196   -5.5388083  
H    4.2491892   -0.0160708   -6.3739090  
H    5.0785342   -2.7978859   -2.1637764  
H    2.9059922   -1.7708749   -1.4510297  
C    7.1576076   -5.3776278   -4.7758066  
C    6.2196923   -4.5236178   -4.3040419  
C    6.5591314   -3.2345419   -4.8867634  
C    7.7616450   -3.5005218   -5.7051748  
N    8.1171169   -4.7550737   -5.6441055  
C    8.4160626   -2.4640203   -6.4551681  
C    7.8927218   -1.2185049   -6.3908136  
O    8.4005323   -0.1565866   -7.0392723  
C    6.6798664   -0.9184536   -5.5740441  
O    6.2584744    0.2380488   -5.5617210  
C    6.0266938   -1.9987463   -4.8136113  
H    5.3988221   -4.7415334   -3.6424069  
H    9.2934529   -2.6867149   -7.0446613  
H    7.8150253    0.5840270   -6.7988034  
H    7.2555444   -6.4328413   -4.5760423  
C    0.0000000    0.0000000    1.4700000  
C    1.0662921    0.0000102    2.3034270  
C    0.4961870   -0.0000064    3.6418889  
C   -0.9663858    0.0000850    3.4240247  
N   -1.2632773    0.0000084    2.1528658  
C   -1.8985362    0.0000517    4.5177257  
C   -1.3925775   -0.0004564    5.7720543  
O   -2.1456383   -0.0005410    6.8851312  
C    0.0786232   -0.0009323    6.0245000  
O    0.4683759   -0.0012588    7.1921102  
C    1.0143166   -0.0008442    4.8859032  
H    2.1107198   -0.0000632    2.0421868  
H   -2.9622183    0.0003270    4.3293377  
H   -1.5042274   -0.0009692    7.6184419  
H    2.0724152   -0.0013148    5.1109744  
