58

C    3.2798092    0.0005853   -1.4499641  
C    2.5571153    0.0005564   -2.5996549  
C    1.1637442    0.0001546   -2.2210359  
C    1.1336968   -0.0000202   -0.7459473  
N    2.4483517   -0.0001428   -0.3402717  
C    0.0000000    0.0000000    0.0000000  
C   -1.2757366   -0.0000188   -0.6964415  
O   -2.3524593   -0.0000641   -0.1142317  
C   -1.2676490   -0.0000878   -2.2584088  
O   -2.3355752   -0.0004107   -2.8557304  
C    0.0181569    0.0001754   -2.9516298  
H    2.9547363    0.0006071   -3.5989100  
H    4.3498554    0.0008610   -1.3200013  
H    2.7563629    0.0012825    0.6148062  
C    0.8301006   -0.6844019   -5.2562386  
C    0.0139751    0.0003870   -4.4216240  
C   -0.8783311    0.7449044   -5.2968288  
C   -0.4479313    0.3817380   -6.6641075  
N    0.5531134   -0.4558745   -6.6466447  
C   -1.0916036    0.9175263   -7.8318844  
C   -2.1188114    1.7767477   -7.6423661  
O   -2.8097737    2.3524293   -8.6409666  
C   -2.5767931    2.1624902   -6.2750270  
O   -3.5180018    2.9497812   -6.1774546  
C   -1.9002999    1.5993458   -5.0930163  
H   -3.4737397    2.9084352   -8.1946942  
H   -2.2621699    1.9037632   -4.1200773  
H    1.6332295   -1.3557602   -4.9969400  
C   -0.6351198    0.5329609   -9.1752506  
C    0.3716838   -0.3095935   -9.5039252  
C    0.3874026   -0.3258306  -10.9585693  
C   -0.7063044    0.5877062  -11.3533342  
N   -1.3092615    1.0941974  -10.3122303  
C   -1.0205561    0.8475593  -12.7313063  
C   -0.2757894    0.2234712  -13.6721431  
O   -0.4583594    0.3734036  -14.9951054  
C    0.8349555   -0.7038708  -13.3054776  
O    1.4711578   -1.2373511  -14.2142493  
C    1.1377156   -0.9540958  -11.8850383  
H    1.0232730   -0.8529036   -8.8411119  
H   -1.8254057    1.5196180  -12.9910437  
H    0.2195820   -0.1937754  -15.4048077  
H    1.9501653   -1.6323313  -11.6610923  
C    2.5528530    2.1414826    2.8079335  
C    2.0663498    1.7338582    4.0032312  
C    0.9804344    0.8229586    3.6752840  
C    0.9495562    0.7966882    2.1971295  
N    1.8690446    1.5676019    1.6831036  
C    0.0000000    0.0000000    1.4700000  
C   -0.8785127   -0.7372425    2.1869543  
O   -1.8187535   -1.5261249    1.6395491  
C   -0.8723269   -0.7321790    3.6796354  
O   -1.7010379   -1.4274584    4.2670412  
C    0.1115397    0.0933559    4.4024240  
H    2.4028853    2.0163452    4.9860947  
H   -2.2861435   -1.9184361    2.3990168  
H    0.0832434    0.0693689    5.4835595  
H    3.3664920    2.8238276    2.6198634  
