62

C   -3.3038943    0.0393370   -1.5420411  
C   -2.5843474    0.0313399   -0.3695838  
C   -1.2039152    0.0143778   -0.7283583  
C   -1.1421651    0.0130359   -2.1454367  
N   -2.4347232    0.0264641   -2.6077452  
C    0.0655010   -0.0016619   -2.8497915  
C    1.2320853   -0.0149458   -2.1101404  
O    2.4391044   -0.0292420   -2.7472531  
C    1.1910344   -0.0142223   -0.6955271  
O    2.4369807   -0.0288701   -0.1032874  
C    0.0000000    0.0000000    0.0000000  
H   -3.0029384    0.0359268    0.6222598  
H   -2.7051871    0.0394155   -3.5745251  
H    0.1193268   -0.0029094   -3.9297474  
H    3.1130763   -0.0371110   -2.0551801  
H    2.3198683   -0.0272965    0.8516397  
C   -6.7063457    0.0835041    1.2828929  
C   -7.7130270    0.0942555    0.3453726  
C   -7.0880317    0.0853864   -0.9367751  
C   -5.6868838    0.0688582   -0.7166909  
N   -5.4896795    0.0700935    0.6418842  
C   -4.7573902    0.0562992   -1.7610435  
C   -5.2513492    0.0601949   -3.0510692  
O   -4.3878951    0.0480467   -4.1081002  
C   -6.6459767    0.0769890   -3.2909630  
O   -6.9797335    0.0792507   -4.6295988  
C   -7.5635209    0.0896583   -2.2611677  
H   -4.5958156    0.0498325    1.0985879  
H   -4.9327588    0.0536503   -4.9058197  
H   -7.9388724    0.0908978   -4.7038985  
H   -8.6257132    0.1025875   -2.4757799  
H   -6.7599221    0.0857865    2.3581062  
C   -9.7626534    0.8270172    1.6189881  
C   -9.1535942    0.1130726    0.6374563  
C  -10.1884072   -0.6170305   -0.0560470  
C  -11.4593814   -0.2673852    0.6066468  
N  -11.1323707    0.6111816    1.6136591  
C  -12.6741242   -0.7520475    0.2444214  
C  -12.7337083   -1.6801550   -0.8725396  
O  -13.7799301   -2.1719678   -1.2748333  
C  -11.3999829   -2.0646228   -1.5888966  
O  -11.4376308   -2.8453523   -2.5303339  
C  -10.1523665   -1.4766378   -1.1076711  
H  -13.5944330   -0.4826523    0.7437885  
H   -9.2333326   -1.7478260   -1.6092270  
H   -9.3260900    1.4925113    2.3459130  
H  -11.7880056    1.0324327    2.2459076  
C    0.0000000    0.0000000    1.4700000  
C    1.0662921    0.0000102    2.3034270  
C    0.4961870   -0.0000064    3.6418889  
C   -0.9663858    0.0000850    3.4240247  
N   -1.2632773    0.0000084    2.1528658  
C   -1.8985362    0.0000517    4.5177257  
C   -1.3925775   -0.0004564    5.7720543  
O   -2.1456383   -0.0005410    6.8851312  
C    0.0786232   -0.0009323    6.0245000  
O    0.4683759   -0.0012588    7.1921102  
C    1.0143166   -0.0008442    4.8859032  
H    2.1107198   -0.0000632    2.0421868  
H   -2.9622183    0.0003270    4.3293377  
H   -1.5042274   -0.0009692    7.6184419  
H    2.0724152   -0.0013148    5.1109744  
