60

C    0.0000000    0.0000000    0.0000000  
C    1.0521663   -0.0011902   -0.8862345  
C    0.4917215   -0.0011956   -2.1979133  
C   -0.9187430    0.0003149   -2.0478683  
N   -1.1833172   -0.0009411   -0.7007910  
C   -1.7951704    0.0010351   -3.1372088  
C   -1.2375840    0.0005226   -4.4010423  
O   -2.0474221    0.0015361   -5.4997580  
C    0.1673576   -0.0013565   -4.5711965  
O    0.5673516   -0.0020685   -5.8915550  
C    1.0325767   -0.0023411   -3.4969892  
H    2.0953056   -0.0030649   -0.6200563  
H   -2.0989778    0.0102372   -0.2891821  
H   -1.4634890    0.0006499   -6.2693592  
H    1.5290706   -0.0033151   -5.9180044  
C   -3.9676858    0.7292803   -2.0471632  
C   -5.3027884    0.5138129   -2.1702451  
C   -5.4806689   -0.4129644   -3.2630753  
C   -4.1300714   -0.7220055   -3.7701948  
N   -3.2578654    0.0024039   -2.9908502  
C   -3.8704657   -1.5626540   -4.8034518  
C   -4.9964195   -2.2058250   -5.4600295  
O   -4.8664338   -2.9792892   -6.3997937  
C   -6.4355612   -1.8929052   -4.9396856  
O   -7.3913524   -2.4282480   -5.4847853  
C   -6.5888871   -0.9698096   -3.8179737  
H   -6.0749066    0.9540219   -1.5647167  
H   -2.8722055   -1.7757893   -5.1597650  
H   -7.5886453   -0.7586028   -3.4635753  
H   -3.4426192    1.3580890   -1.3465961  
C    3.4298597   -0.6918158   -3.0313917  
C    2.4861696   -0.0045381   -3.7159924  
C    3.2229077    0.7397635   -4.7258100  
C    4.6377464    0.3737620   -4.5002917  
N    4.7652612   -0.4651925   -3.5083821  
C    5.6998745    0.9085139   -5.3071440  
C    5.3638174    1.7694535   -6.2946578  
O    6.2517466    2.3444410   -7.1235191  
C    3.9449281    2.1580691   -6.5474283  
O    3.7122682    2.9468091   -7.4633866  
C    2.8734667    1.5959394   -5.7060572  
H    6.7249644    0.6238336   -5.1199077  
H    5.7142334    2.9020893   -7.7145018  
H    1.8586412    1.9024507   -5.9214875  
H    3.2895110   -1.3638480   -2.1997375  
C    0.0000000    0.0000000    1.4700000  
C    1.0662921    0.0000102    2.3034270  
C    0.4961870   -0.0000064    3.6418889  
C   -0.9663858    0.0000850    3.4240247  
N   -1.2632773    0.0000084    2.1528658  
C   -1.8985362    0.0000517    4.5177257  
C   -1.3925775   -0.0004564    5.7720543  
O   -2.1456383   -0.0005410    6.8851312  
C    0.0786232   -0.0009323    6.0245000  
O    0.4683759   -0.0012588    7.1921102  
C    1.0143166   -0.0008442    4.8859032  
H    2.1107198   -0.0000632    2.0421868  
H   -2.9622183    0.0003270    4.3293377  
H   -1.5042274   -0.0009692    7.6184419  
H    2.0724152   -0.0013148    5.1109744  
