62

C    4.1072303   -0.7191023   -4.4475472  
C    3.0267433   -0.0008947   -3.9901699  
C    2.5087344    0.7258922   -5.1028455  
C    3.3206451    0.4084345   -6.2217506  
N    4.2827389   -0.4698428   -5.7885972  
C    3.1000325    0.9464857   -7.4932141  
C    2.0403143    1.8207030   -7.6378508  
O    1.7797466    2.3748859   -8.8576868  
C    1.2191161    2.1500706   -6.5333297  
O    0.2053884    3.0346610   -6.8386143  
C    1.4363344    1.6198580   -5.2786520  
H    3.7152882    0.7086621   -8.3500122  
H    1.0098898    2.9463183   -8.7391490  
H   -0.3015567    3.2041275   -6.0386819  
H    0.7906448    1.8909176   -4.4515547  
H    4.7674524   -1.3883357   -3.9229595  
C    3.3003543    0.0005277   -1.4738984  
C    2.5232813    0.0003500   -2.6090746  
C    1.1623201   -0.0001317   -2.1820101  
C    1.1711884    0.0000583   -0.7636139  
N    2.4852298   -0.0014919   -0.3662355  
C    0.0000000    0.0000000    0.0000000  
C   -1.2020383    0.0000520   -0.6806478  
O   -2.3759254    0.0003497    0.0157747  
C   -1.2314658   -0.0005111   -2.0955512  
O   -2.5054392   -0.0008038   -2.6250184  
C   -0.0764517   -0.0007270   -2.8495193  
H    2.8036267    0.0088183    0.5858660  
H   -3.0835638    0.0000347   -0.6418817  
H   -2.4360049   -0.0011522   -3.5845925  
H   -0.1304094   -0.0013419   -3.9319087  
H    4.3715550    0.0004896   -1.3667135  
C    6.1486472   -4.5018896   -6.1427516  
C    5.3582454   -3.4867858   -5.7227405  
C    5.7342046   -2.3513222   -6.5509174  
C    6.7942422   -2.8732582   -7.4400109  
N    7.0414252   -4.1333649   -7.2054436  
C    7.4375633   -2.0465122   -8.4237362  
C    7.0397115   -0.7570731   -8.5153657  
O    7.5533965    0.1267043   -9.3877798  
C    5.9722847   -0.2008378   -7.6325513  
O    5.6605916    0.9818871   -7.7712221  
C    5.3276212   -1.0690335   -6.6312670  
H    4.6121584   -3.5061573   -4.9468192  
H    8.2094216   -2.4542107   -9.0600740  
H    7.0715784    0.9554219   -9.2139059  
H    6.1768343   -5.5163133   -5.7778906  
C    2.5528530    2.1414826    2.8079335  
C    2.0663498    1.7338582    4.0032312  
C    0.9804344    0.8229586    3.6752840  
C    0.9495562    0.7966882    2.1971295  
N    1.8690446    1.5676019    1.6831036  
C    0.0000000    0.0000000    1.4700000  
C   -0.8785127   -0.7372425    2.1869543  
O   -1.8187535   -1.5261249    1.6395491  
C   -0.8723269   -0.7321790    3.6796354  
O   -1.7010379   -1.4274584    4.2670412  
C    0.1115397    0.0933559    4.4024240  
H    2.4028853    2.0163452    4.9860947  
H   -2.2861435   -1.9184361    2.3990168  
H    0.0832434    0.0693689    5.4835595  
H    3.3664920    2.8238276    2.6198634  
