60

C   -2.4230947    2.2463020   -1.5420426  
C   -1.8949929    1.7575085   -0.3695846  
C   -0.8829291    0.8185687   -0.7283585  
C   -0.8380475    0.7761344   -2.1454372  
N   -1.7873335    1.6534847   -2.6077461  
C    0.0474476   -0.0451884   -2.8497921  
C    0.9034335   -0.8378945   -2.1101402  
O    1.7887189   -1.6584859   -2.7472525  
C    0.8734845   -0.8098110   -0.6955265  
O    1.7873937   -1.6567849   -0.1032869  
C    0.0000000    0.0000000    0.0000000  
H   -2.2022566    2.0418121    0.6222589  
H    0.0865169   -0.0822342   -3.9297471  
H    2.2831179   -2.1166009   -2.0551794  
H    1.7016219   -1.5770266    0.8516404  
H   -3.2039467    2.9698385   -1.7024286  
C   -2.7165354    5.3825691   -4.7819000  
C   -2.4170994    4.4650468   -3.8266170  
C   -2.3348036    3.1828675   -4.4854633  
C   -2.6128049    3.4303926   -5.9131316  
N   -2.8363602    4.7831868   -6.0265378  
C   -2.6289749    2.4693657   -6.8711872  
C   -2.3544591    1.0997966   -6.4693694  
O   -2.3458145    0.1633717   -7.2576175  
C   -2.0576948    0.8146114   -4.9625829  
O   -1.8254650   -0.3345958   -4.6123642  
C   -2.0682040    1.9332898   -4.0232747  
H   -2.2707703    4.6637347   -2.7798483  
H   -2.8350575    2.6721947   -7.9129647  
H   -3.0512518    5.2616922   -6.8820501  
C   -2.8256870    7.5476236   -3.4932460  
C   -2.9121340    6.8330280   -4.6447469  
C   -3.2310344    7.7682135   -5.6976316  
C   -3.3239274    9.0957392   -5.0605787  
N   -3.0681826    8.8932439   -3.7239860  
C   -3.6086862   10.2469555   -5.7203656  
C   -3.8392740   10.1735895   -7.1535377  
O   -4.1023960   11.1544240   -7.8369350  
C   -3.7462041    8.7780199   -7.8489003  
O   -3.9386919    8.7037923   -9.0550099  
C   -3.4319038    7.6085771   -7.0319119  
H   -3.6719628   11.2105313   -5.2341273  
H   -3.3691074    6.6460124   -7.5210440  
H   -2.6054416    7.2044058   -2.4954568  
H   -3.0571807    9.6125116   -3.0242858  
C    0.0000000    0.0000000    1.4700000  
C    1.0662921    0.0000102    2.3034270  
C    0.4961870   -0.0000064    3.6418889  
C   -0.9663858    0.0000850    3.4240247  
N   -1.2632773    0.0000084    2.1528658  
C   -1.8985362    0.0000517    4.5177257  
C   -1.3925775   -0.0004564    5.7720543  
O   -2.1456383   -0.0005410    6.8851312  
C    0.0786232   -0.0009323    6.0245000  
O    0.4683759   -0.0012588    7.1921102  
C    1.0143166   -0.0008442    4.8859032  
H    2.1107198   -0.0000632    2.0421868  
H   -2.9622183    0.0003270    4.3293377  
H   -1.5042274   -0.0009692    7.6184419  
H    2.0724152   -0.0013148    5.1109744  
