62

C    3.3003547    0.0005275   -1.4738980  
C    2.5232816    0.0003495   -2.6090742  
C    1.1623206   -0.0001320   -2.1820096  
C    1.1711889    0.0000583   -0.7636136  
N    2.4852300   -0.0014920   -0.3662353  
C    0.0000000    0.0000000    0.0000000  
C   -1.2020382    0.0000519   -0.6806479  
O   -2.3759247    0.0003494    0.0157745  
C   -1.2314650   -0.0005113   -2.0955508  
O   -2.5054383   -0.0008037   -2.6250181  
C   -0.0764510   -0.0007273   -2.8495192  
H    2.8919962   -0.0005621   -3.6205295  
H    2.8036265    0.0088181    0.5858667  
H   -3.0835641    0.0000347   -0.6418820  
H   -2.4360047   -0.0011529   -3.5845921  
C    6.4260944    0.0030630   -4.5098895  
C    7.5522601    0.0028889   -3.7593359  
C    7.0848225    0.0018026   -2.3816560  
C    5.6099767    0.0015409   -2.4884878  
N    5.2179721    0.0021960   -3.7336069  
C    4.7630506    0.0004754   -1.3275394  
C    5.3622562   -0.0006825   -0.1149857  
O    4.6953714   -0.0017512    1.0517637  
C    6.8483162   -0.0008251    0.0256774  
O    7.3251007   -0.0017842    1.1605328  
C    7.6953858    0.0003257   -1.1803061  
H    8.5739858    0.0033403   -4.0986751  
H    5.3903102   -0.0024423    1.7345606  
H    8.7674559    0.0000662   -1.0357539  
H    6.3446843    0.0037692   -5.5852243  
C    2.1601073   -2.0149551   -6.1366355  
C    1.7671254   -1.6323652   -4.8993931  
C    0.6609150   -0.7146343   -5.1242671  
C    0.5173094   -0.6572543   -6.5948687  
N    1.3933527   -1.4175035   -7.1936666  
C   -0.4836758    0.1546050   -7.2304781  
C   -1.3041632    0.8760361   -6.4331874  
O   -2.2822029    1.6762457   -6.8905099  
C   -1.1845238    0.8389692   -4.9457491  
O   -1.9650982    1.5214302   -4.2822953  
C   -0.1496409   -0.0015614   -4.3176961  
H    2.1772052   -1.9355530   -3.9512435  
H   -0.5658892    0.1776598   -8.3073339  
H   -2.6900303    2.0519825   -6.0894778  
H    2.9557804   -2.6933490   -6.4005661  
C    0.0000000    0.0000000    1.4700000  
C    1.0521667    0.0011902    2.3562342  
C    0.4917218    0.0011957    3.6679131  
C   -0.9187428   -0.0003148    3.5178682  
N   -1.1833171    0.0009411    2.1707914  
C   -1.7951701   -0.0010350    4.6072090  
C   -1.2375837   -0.0005224    5.8710424  
O   -2.0474215   -0.0015360    6.9697579  
C    0.1673580    0.0013566    6.0411963  
O    0.5673524    0.0020687    7.3615553  
C    1.0325770    0.0023412    4.9669890  
H    2.0953057    0.0030649    2.0900562  
H   -2.0989778   -0.0102372    1.7591824  
H   -2.8710934   -0.0020419    4.4995513  
H   -1.4634884   -0.0006497    7.7393593  
H    1.5290710    0.0033153    7.3880045  
H    2.1042148    0.0039609    5.1284455  
