60

C    0.0000000    0.0000000    0.0000000  
C    1.0521665   -0.0011901   -0.8862342  
C    0.4917217   -0.0011956   -2.1979130  
C   -0.9187428    0.0003148   -2.0478683  
N   -1.1833173   -0.0009411   -0.7007911  
C   -1.7951703    0.0010349   -3.1372088  
C   -1.2375840    0.0005224   -4.4010424  
O   -2.0474220    0.0015359   -5.4997576  
C    0.1673578   -0.0013566   -4.5711965  
O    0.5673521   -0.0020688   -5.8915549  
C    1.0325768   -0.0023412   -3.4969890  
H    2.0953059   -0.0030648   -0.6200563  
H   -2.0989774    0.0102371   -0.2891826  
H   -1.4634888    0.0006496   -6.2693593  
H    1.5290706   -0.0033152   -5.9180048  
C    4.3492258   -2.0980283   -1.4710659  
C    3.1288514   -1.6343955   -1.8449707  
C    3.3413738   -0.7396614   -2.9581287  
C    4.7960251   -0.7199156   -3.2038712  
N    5.3496885   -1.5635496   -2.2686550  
C    5.4017602    0.0079028   -4.1760185  
C    4.5652083    0.8266013   -5.0376727  
O    5.0157109    1.5178647   -5.9418317  
C    3.0221522    0.8211179   -4.7952825  
O    2.3077377    1.5066874   -5.5142170  
C    2.4861699   -0.0045381   -3.7159922  
H    2.1872508   -1.8898703   -1.3924946  
H    6.4704877    0.0081417   -4.3395230  
H    4.6019078   -2.7850257   -0.6798161  
H    6.3294058   -1.7621300   -2.1805279  
C   -4.7116853    2.0166393   -0.4361493  
C   -3.5469323    1.6335646   -1.0090230  
C   -3.9344256    0.7158339   -2.0692677  
C   -5.4100300    0.6589843   -1.9921705  
N   -5.8713626    1.4195192   -1.0367917  
C   -6.1879609   -0.1527158   -2.8871859  
C   -5.5220602   -0.8745016   -3.8172057  
O   -6.1202713   -1.6746160   -4.7160947  
C   -4.0333848   -0.8379730   -3.9205074  
O   -3.4938673   -1.5207365   -4.7911251  
C   -3.2578657    0.0024038   -2.9908504  
H   -2.5481629    1.9364342   -0.7448157  
H   -7.2650558   -0.1753806   -2.8080468  
H   -5.3890707   -2.0506778   -5.2386612  
H   -4.8538898    2.6951898    0.3898775  
C    3.1301144    0.0010313    3.1728260  
C    2.5367765    0.0002768    1.9564670  
C    1.1089900   -0.0001027    2.2356185  
C    1.0177864    0.0004150    3.7115134  
N    2.1993570    0.0011613    4.2663826  
C   -0.2459220    0.0002880    4.3957118  
C   -1.3675327    0.0000606    3.6398520  
O   -2.6129319   -0.0000866    4.1448486  
C   -1.3083589   -0.0000910    2.1483229  
O   -2.3693264   -0.0004206    1.5241687  
C    0.0000000    0.0000000    1.4700000  
H    3.0096015    0.0001008    0.9892483  
H   -0.2829642    0.0004689    5.4753125  
H   -3.1967446   -0.0002093    3.3649027  
H    4.1849273    0.0015113    3.3971983  
