60

C    3.3003540    0.0005278   -1.4738998  
C    2.5232805    0.0003501   -2.6090759  
C    1.1623190   -0.0001315   -2.1820106  
C    1.1711880    0.0000584   -0.7636147  
N    2.4852300   -0.0014918   -0.3662366  
C    0.0000000    0.0000000    0.0000000  
C   -1.2020387    0.0000521   -0.6806476  
O   -2.3759253    0.0003495    0.0157752  
C   -1.2314666   -0.0005110   -2.0955505  
O   -2.5054395   -0.0008035   -2.6250174  
C   -0.0764524   -0.0007269   -2.8495195  
H    2.8919942   -0.0005615   -3.6205312  
H    2.8036265    0.0088181    0.5858650  
H   -3.0835639    0.0000348   -0.6418810  
H   -2.4360058   -0.0011523   -3.5845915  
C    0.6503137   -0.7058441   -5.1591997  
C   -0.1496428   -0.0015607   -4.3176960  
C   -1.0769634    0.7392938   -5.1399167  
C   -0.7493514    0.4064861   -6.5394521  
N    0.3066291   -0.4735887   -6.4823321  
C   -1.4003426    0.9048532   -7.6209074  
C   -2.4966998    1.8309964   -7.3911354  
O   -3.1448416    2.3343959   -8.2993216  
C   -2.8607685    2.1977452   -5.9171087  
O   -3.7817321    2.9766681   -5.7112803  
C   -2.0864171    1.5959463   -4.8344874  
H   -1.1442244    0.6476967   -8.6393293  
H   -2.3449694    1.8549059   -3.8167374  
H    1.4621417   -1.3748322   -4.9240836  
H    0.7568381   -0.8854573   -7.2790271  
C    6.4260924    0.0030639   -4.5098927  
C    7.5522578    0.0028897   -3.7593396  
C    7.0848216    0.0018032   -2.3816593  
C    5.6099752    0.0015414   -2.4884905  
N    5.2179699    0.0021968   -3.7336095  
C    4.7630502    0.0004759   -1.3275418  
C    5.3622559   -0.0006824   -0.1149884  
O    4.6953715   -0.0017512    1.0517612  
C    6.8483155   -0.0008249    0.0256741  
O    7.3251007   -0.0017841    1.1605290  
C    7.6953849    0.0003261   -1.1803098  
H    8.5739837    0.0033413   -4.0986788  
H    5.3903106   -0.0024423    1.7345582  
H    8.7674555    0.0000667   -1.0357580  
H    6.3446815    0.0037702   -5.5852275  
C    2.4951002    2.0940188    2.9809380  
C    1.9440701    1.6314916    1.8291961  
C    0.8759964    0.7350050    2.2038498  
C    0.8497377    0.7130254    3.6788474  
N    1.8560616    1.5571714    4.0882609  
C   -0.0205033   -0.0168748    4.4215661  
C   -0.9962600   -0.8356168    3.7214979  
O   -1.8224391   -1.5286685    4.3006425  
C   -0.9864710   -0.8277881    2.1595606  
O   -1.8030528   -1.5133726    1.5592035  
C    0.0000000    0.0000000    1.4700000  
H    2.2509283    1.8888011    0.8310761  
H   -0.0229599   -0.0187323    5.5027230  
H    3.3143982    2.7817323    3.1139444  
H    2.0889452    1.7545833    5.0442112  
