64

C    3.3041274    0.0001178   -1.5420424  
C    2.5845370   -0.0004780   -0.3695848  
C    1.2040008   -0.0000007   -0.7283588  
C    1.1422381    0.0006039   -2.1454372  
N    2.4348643    0.0026111   -2.6077460  
C   -0.0655178    0.0008800   -2.8497916  
C   -1.2321770    0.0002327   -2.1101400  
O   -2.4392813    0.0001149   -2.7472523  
C   -1.1911197   -0.0000007   -0.6955269  
O   -2.4371527   -0.0002319   -0.1032865  
C    0.0000000    0.0000000    0.0000000  
H    3.0031532   -0.0000660    0.6222587  
H    2.7054630   -0.0071097   -3.5745257  
H   -0.1193547    0.0014846   -3.9297470  
H   -3.1132988   -0.0000647   -2.0551792  
H   -2.3200292   -0.0004070    0.8516405  
C    6.7748105   -0.0036707    1.2764685  
C    5.5082320   -0.0035545    0.7395837  
C    5.6573262   -0.0010105   -0.6789945  
C    7.0493887    0.0000631   -0.9511860  
N    7.6991160    0.0003496    0.2581408  
C    7.5659491    0.0022523   -2.2503970  
C    6.6607409    0.0030713   -3.2938410  
O    7.1109062    0.0048476   -4.5823914  
C    5.2680310    0.0023992   -3.0424924  
O    4.4967640    0.0037872   -4.1863844  
C    4.7577219    0.0005130   -1.7610452  
H    4.5898232   -0.0040067    1.3012946  
H    8.6954213   -0.0094974    0.3816732  
H    6.3261402    0.0054440   -5.1457802  
H    3.5699438    0.0031881   -3.9283015  
H    7.0920029   -0.0048575    2.3052281  
C   10.9536277   -2.1192411   -0.3578378  
C   11.9480994   -1.6181306   -1.1655388  
C   11.3224163   -0.7427889   -2.1019671  
C    9.9334838   -0.7496268   -1.8143119  
N    9.7436570   -1.5970607   -0.7510908  
C    9.0068370    0.0035733   -2.5415003  
C    9.4911704    0.7780150   -3.5777622  
O    8.6300187    1.5332847   -4.3200555  
C   10.8735043    0.7977988   -3.8803800  
O   11.1986659    1.6181480   -4.9408713  
C   11.7882017    0.0547920   -3.1635851  
H   12.9954930   -1.8552722   -1.0898834  
H    8.8601495   -1.7949886   -0.3172481  
H    9.1669716    1.9891647   -4.9812056  
H   12.1497533    1.5740462   -5.0790409  
H   12.8408700    0.0900286   -3.4187856  
H   11.0114998   -2.8089324    0.4667443  
C    2.5528530    2.1414826    2.8079335  
C    2.0663498    1.7338582    4.0032312  
C    0.9804344    0.8229586    3.6752840  
C    0.9495562    0.7966882    2.1971295  
N    1.8690446    1.5676019    1.6831036  
C    0.0000000    0.0000000    1.4700000  
C   -0.8785127   -0.7372425    2.1869543  
O   -1.8187535   -1.5261249    1.6395491  
C   -0.8723269   -0.7321790    3.6796354  
O   -1.7010379   -1.4274584    4.2670412  
C    0.1115397    0.0933559    4.4024240  
H    2.4028853    2.0163452    4.9860947  
H   -2.2861435   -1.9184361    2.3990168  
H    0.0832434    0.0693689    5.4835595  
H    3.3664920    2.8238276    2.6198634  
