58

C    3.2798079    0.0005854   -1.4499652  
C    2.5571138    0.0005562   -2.5996556  
C    1.1637429    0.0001546   -2.2210361  
C    1.1336962   -0.0000201   -0.7459474  
N    2.4483511   -0.0001429   -0.3402725  
C    0.0000000    0.0000000    0.0000000  
C   -1.2757372   -0.0000187   -0.6964411  
O   -2.3524601   -0.0000638   -0.1142301  
C   -1.2676502   -0.0000873   -2.2584078  
O   -2.3355772   -0.0004103   -2.8557289  
C    0.0181553    0.0001757   -2.9516294  
H    2.9547344    0.0006073   -3.5989111  
H    4.3498545    0.0008608   -1.3200031  
H    2.7563626    0.0012822    0.6148059  
C    2.5654221   -2.1380213   -5.7671300  
C    2.0750605   -1.7307737   -6.9609784  
C    0.9890563   -0.8211468   -6.6298090  
C    0.9623541   -0.7951243   -5.1515691  
N    1.8841699   -1.5650744   -4.6402746  
C    0.0139728    0.0003876   -4.4216237  
C   -0.8674069    0.7367420   -5.1359671  
O   -1.8069756    1.5244845   -4.5857729  
C   -0.8654624    0.7319005   -6.6286602  
O   -1.6966245    1.4263295   -7.2136036  
C    0.1172739   -0.0924199   -7.3543664  
H    2.4091164   -2.0127392   -7.9448367  
H   -2.2769664    1.9163771   -5.3438499  
H    0.0858748   -0.0683090   -8.4354136  
C    3.6762784   -3.0669212   -5.5140624  
C    4.4455458   -3.7129507   -6.4209542  
C    5.3824300   -4.4949099   -5.6289392  
C    5.0265721   -4.1934085   -4.2257120  
N    4.0270995   -3.3569736   -4.1520895  
C    5.7311340   -4.7801773   -3.1191945  
C    6.7448553   -5.6298342   -3.4016583  
O    7.4874486   -6.2489388   -2.4682209  
C    7.1277280   -5.9544492   -4.8074304  
O    8.0608366   -6.7361579   -4.9903525  
C    6.3897377   -5.3396653   -5.9251669  
H    4.3846773   -3.6648711   -7.4947602  
H    5.4498371   -4.5418242   -2.1038279  
H    8.1252112   -6.7844674   -2.9738103  
H    6.6978999   -5.6007232   -6.9287177  
C    2.5528530    2.1414826    2.8079335  
C    2.0663498    1.7338582    4.0032312  
C    0.9804344    0.8229586    3.6752840  
C    0.9495562    0.7966882    2.1971295  
N    1.8690446    1.5676019    1.6831036  
C    0.0000000    0.0000000    1.4700000  
C   -0.8785127   -0.7372425    2.1869543  
O   -1.8187535   -1.5261249    1.6395491  
C   -0.8723269   -0.7321790    3.6796354  
O   -1.7010379   -1.4274584    4.2670412  
C    0.1115397    0.0933559    4.4024240  
H    2.4028853    2.0163452    4.9860947  
H   -2.2861435   -1.9184361    2.3990168  
H    0.0832434    0.0693689    5.4835595  
H    3.3664920    2.8238276    2.6198634  
