62

C    1.1188647    0.0008222   -0.8003809  
C    0.0000000    0.0000000    0.0000000  
C   -1.1323857    0.0008897   -0.8673532  
C   -0.6382652    0.0019677   -2.1969286  
N    0.7324024    0.0038479   -2.1202243  
C   -1.4770906    0.0027316   -3.3154814  
C   -2.8395469    0.0020943   -3.0876862  
O   -3.7039190    0.0024420   -4.1440356  
C   -3.3517863    0.0013927   -1.7684337  
O   -4.7300496    0.0012365   -1.7073126  
C   -2.5248540    0.0009121   -0.6644824  
H   -1.1067561    0.0036985   -4.3313816  
H   -4.5940026    0.0021825   -3.7685140  
H   -4.9934598    0.0007261   -0.7819920  
H   -2.9462577    0.0005600    0.3339653  
H    2.1619897    0.0009354   -0.5342068  
C    4.4769672   -2.1470636   -2.7027280  
C    4.8409695   -1.7539554   -3.9455261  
C    3.7877273   -0.8472134   -4.3756417  
C    2.8430657   -0.8072142   -3.2387166  
N    3.2418502   -1.5671438   -2.2551175  
C    1.6478441   -0.0100102   -3.2702999  
C    1.4074698    0.7146087   -4.3867594  
O    0.3314549    1.5023749   -4.5530624  
C    2.3418729    0.6955145   -5.5506700  
O    2.0597593    1.3797241   -6.5342808  
C    3.5612163   -0.1302662   -5.4939931  
H    5.7161646   -2.0434615   -4.5016698  
H    0.4389884    1.8844061   -5.4428045  
H    4.9959832   -2.8222039   -2.0410774  
C    5.8327668   -3.3392989   -7.5190976  
C    6.3984109   -2.5607417   -8.5021347  
C    5.9351527   -1.2275887   -8.2955059  
C    5.0828642   -1.2541171   -7.1620040  
N    5.0411746   -2.5518562   -6.7161873  
C    4.4460574   -0.1117774   -6.6677117  
C    4.6740197    1.0790907   -7.3295606  
O    4.0775282    2.2249937   -6.8889715  
C    5.5208038    1.1257294   -8.4625202  
O    5.6466170    2.3853880   -9.0109508  
C    6.1491437   -0.0008724   -8.9508674  
H    7.0622842   -2.9108432   -9.2739471  
H    4.5243080   -2.8751428   -5.9184931  
H    4.3661307    2.9292266   -7.4839747  
H    6.2344426    2.3290999   -9.7704873  
H    6.7920272    0.0657025   -9.8207801  
H    5.9302146   -4.3942627   -7.3280098  
C    0.8175213    0.6860729    2.3021913  
C    0.0000000    0.0000000    1.4700000  
C   -0.8887526   -0.7456559    2.3478473  
C   -0.4549825   -0.3816753    3.7138435  
N    0.5448156    0.4573574    3.6934124  
C   -1.0945674   -0.9182058    4.8835240  
C   -2.1210866   -1.7789155    4.6970523  
O   -2.8083856   -2.3554314    5.6976972  
C   -2.5824069   -2.1655116    3.3310774  
O   -3.5227682   -2.9541547    3.2362962  
C   -1.9100805   -1.6015804    2.1470656  
H   -0.7567140   -0.6349833    5.8697035  
H   -3.4728268   -2.9124471    5.2533954  
H   -2.2742832   -1.9066565    1.1752040  
H    1.6189533    1.3585343    2.0405121  
