60

C   -1.1188202    0.0099960   -0.8003807  
C    0.0000000    0.0000000    0.0000000  
C    1.1323246   -0.0118385   -0.8673530  
C    0.6382171   -0.0081390   -2.1969278  
N   -0.7324049    0.0032336   -2.1202236  
C    1.4769959   -0.0170131   -3.3154808  
C    2.8393942   -0.0295491   -3.0876856  
O    3.7037234   -0.0382546   -4.1440352  
C    3.3516164   -0.0338005   -1.7684332  
O    4.7298162   -0.0469702   -1.7073127  
C    2.5247273   -0.0253245   -0.6644821  
H   -1.3575139    0.0187433   -2.9057040  
H    4.5937670   -0.0466009   -3.7685134  
H    4.9932198   -0.0490068   -0.7819915  
H    2.9461146   -0.0290470    0.3339656  
H   -2.1618973    0.0199686   -0.5342064  
C    0.9735448   -0.0134597   -4.6965766  
C   -0.3100005   -0.0016216   -5.1397996  
C   -0.2571536   -0.0034661   -6.5827269  
C    1.1726450   -0.0174786   -6.9464170  
N    1.8657918   -0.0225896   -5.7579677  
C    1.6421054   -0.0235466   -8.2197093  
C    0.6746019   -0.0155307   -9.3043328  
O    0.9975142   -0.0200127  -10.4850140  
C   -0.8447841   -0.0004154   -8.9423339  
O   -1.6686365    0.0067400   -9.8470310  
C   -1.2284116    0.0047081   -7.5328466  
H   -1.1930419    0.0075582   -4.5259861  
H    2.6950632   -0.0339673   -8.4648250  
H    2.8657727   -0.0335303   -5.6745056  
C   -3.2402498    0.7516902   -6.1790044  
C   -4.5820176    0.5477063   -6.1329085  
C   -4.9038585   -0.3775835   -7.1936119  
C   -3.6304717   -0.6982662   -7.8662482  
N   -2.6610089    0.0186688   -7.2036500  
C   -3.5100899   -1.5411891   -8.9229855  
C   -4.7151388   -2.1746973   -9.4319633  
O   -4.7110082   -2.9493172  -10.3797232  
C   -6.0746667   -1.8493739   -8.7350751  
O   -7.0959667   -2.3765138   -9.1549927  
C   -6.0777860   -0.9249147   -7.6040502  
H   -5.2680435    0.9945830   -5.4355680  
H   -2.5664388   -1.7629283   -9.4018007  
H   -7.0231809   -0.7050912   -7.1269442  
H   -2.6258807    1.3760085   -5.5507789  
C    0.0000000    0.0000000    1.4700000  
C    1.0662921    0.0000102    2.3034270  
C    0.4961870   -0.0000064    3.6418889  
C   -0.9663858    0.0000850    3.4240247  
N   -1.2632773    0.0000084    2.1528658  
C   -1.8985362    0.0000517    4.5177257  
C   -1.3925775   -0.0004564    5.7720543  
O   -2.1456383   -0.0005410    6.8851312  
C    0.0786232   -0.0009323    6.0245000  
O    0.4683759   -0.0012588    7.1921102  
C    1.0143166   -0.0008442    4.8859032  
H    2.1107198   -0.0000632    2.0421868  
H   -2.9622183    0.0003270    4.3293377  
H   -1.5042274   -0.0009692    7.6184419  
H    2.0724152   -0.0013148    5.1109744  
