58

C    3.2798082    0.0005862   -1.4499650  
C    2.5571139    0.0005570   -2.5996554  
C    1.1637431    0.0001552   -2.2210361  
C    1.1336960   -0.0000198   -0.7459469  
N    2.4483511   -0.0001427   -0.3402720  
C    0.0000000    0.0000000    0.0000000  
C   -1.2757371   -0.0000185   -0.6964412  
O   -2.3524599   -0.0000640   -0.1142311  
C   -1.2676497   -0.0000868   -2.2584076  
O   -2.3355765   -0.0004097   -2.8557291  
C    0.0181554    0.0001764   -2.9516295  
H    0.0150782    0.0003325   -4.0331629  
H    4.3498545    0.0008616   -1.3200025  
H    2.7563624    0.0012824    0.6148065  
C    4.2042264   -0.7245765   -4.3883883  
C    4.4532742   -0.5080826   -5.7056510  
C    3.4504640    0.4176292   -6.1771001  
C    2.5906250    0.7249267   -5.0182058  
N    3.1006049    0.0006270   -3.9654950  
C    1.5247255    1.5641946   -5.0527251  
C    1.2027489    2.2076140   -6.3156099  
O    0.2625092    2.9799153   -6.4490272  
C    2.0996878    1.8965305   -7.5559858  
O    1.8381619    2.4320976   -8.6246447  
C    3.2214644    0.9748211   -7.3949816  
H    0.9070130    1.7760617   -4.1910679  
H    3.8377462    0.7648819   -8.2586052  
H    4.7339420   -1.3530606   -3.6910372  
C    6.3509908   -4.5338938   -5.9422078  
C    5.5368868   -3.5196887   -5.5677714  
C    5.9479019   -2.3878539   -6.3841755  
C    7.0520559   -2.9106879   -7.2172857  
N    7.2928039   -4.1681513   -6.9626956  
C    7.7389613   -2.0873540   -8.1740347  
C    7.3406567   -0.8003237   -8.2933694  
O    7.8924337    0.0801681   -9.1456122  
C    6.2292837   -0.2432643   -7.4671148  
O    5.9197655    0.9371418   -7.6285466  
C    5.5403572   -1.1079407   -6.4926200  
H    4.7540665   -3.5374586   -4.8288853  
H    8.5425219   -2.4956354   -8.7694403  
H    7.3992838    0.9078075   -9.0008037  
H    6.3656471   -5.5458331   -5.5697333  
C    0.8175213    0.6860729    2.3021913  
C    0.0000000    0.0000000    1.4700000  
C   -0.8887526   -0.7456559    2.3478473  
C   -0.4549825   -0.3816753    3.7138435  
N    0.5448156    0.4573574    3.6934124  
C   -1.0945674   -0.9182058    4.8835240  
C   -2.1210866   -1.7789155    4.6970523  
O   -2.8083856   -2.3554314    5.6976972  
C   -2.5824069   -2.1655116    3.3310774  
O   -3.5227682   -2.9541547    3.2362962  
C   -1.9100805   -1.6015804    2.1470656  
H   -0.7567140   -0.6349833    5.8697035  
H   -3.4728268   -2.9124471    5.2533954  
H   -2.2742832   -1.9066565    1.1752040  
H    1.6189533    1.3585343    2.0405121  
