60

C    3.3003547    0.0005275   -1.4738980  
C    2.5232816    0.0003495   -2.6090742  
C    1.1623206   -0.0001320   -2.1820096  
C    1.1711889    0.0000583   -0.7636136  
N    2.4852300   -0.0014920   -0.3662353  
C    0.0000000    0.0000000    0.0000000  
C   -1.2020382    0.0000519   -0.6806479  
O   -2.3759247    0.0003494    0.0157745  
C   -1.2314650   -0.0005113   -2.0955508  
O   -2.5054383   -0.0008037   -2.6250181  
C   -0.0764510   -0.0007273   -2.8495192  
H    2.8919962   -0.0005621   -3.6205295  
H    2.8036265    0.0088181    0.5858667  
H   -3.0835641    0.0000347   -0.6418820  
H   -2.4360047   -0.0011529   -3.5845921  
C    6.4260944    0.0030630   -4.5098895  
C    7.5522601    0.0028889   -3.7593359  
C    7.0848225    0.0018026   -2.3816560  
C    5.6099767    0.0015409   -2.4884878  
N    5.2179721    0.0021960   -3.7336069  
C    4.7630506    0.0004754   -1.3275394  
C    5.3622562   -0.0006825   -0.1149857  
O    4.6953714   -0.0017512    1.0517637  
C    6.8483162   -0.0008251    0.0256774  
O    7.3251007   -0.0017842    1.1605328  
C    7.6953858    0.0003257   -1.1803061  
H    8.5739858    0.0033403   -4.0986751  
H    5.3903102   -0.0024423    1.7345606  
H    8.7674559    0.0000662   -1.0357539  
H    6.3446843    0.0037692   -5.5852243  
C   -0.1496409   -0.0015614   -4.3176961  
C    0.8738332   -0.0018840   -5.2031785  
C    0.2377946   -0.0027127   -6.5115952  
C   -1.2121170   -0.0029007   -6.2211811  
N   -1.4453505   -0.0021475   -4.9368173  
C   -2.1975656   -0.0036284   -7.2671145  
C   -1.7546863   -0.0037559   -8.5450784  
O   -2.5622321   -0.0044162   -9.6192807  
C   -0.2978794   -0.0032017   -8.8704614  
O    0.0332557   -0.0034791  -10.0560289  
C    0.6933431   -0.0025028   -7.7798645  
H    1.9299725   -0.0015051   -4.9942637  
H   -3.2505489   -0.0039569   -7.0260003  
H   -1.9581276   -0.0043076  -10.3836173  
H    1.7389231   -0.0020006   -8.0573383  
C    0.8175213    0.6860729    2.3021913  
C    0.0000000    0.0000000    1.4700000  
C   -0.8887526   -0.7456559    2.3478473  
C   -0.4549825   -0.3816753    3.7138435  
N    0.5448156    0.4573574    3.6934124  
C   -1.0945674   -0.9182058    4.8835240  
C   -2.1210866   -1.7789155    4.6970523  
O   -2.8083856   -2.3554314    5.6976972  
C   -2.5824069   -2.1655116    3.3310774  
O   -3.5227682   -2.9541547    3.2362962  
C   -1.9100805   -1.6015804    2.1470656  
H   -0.7567140   -0.6349833    5.8697035  
H   -3.4728268   -2.9124471    5.2533954  
H   -2.2742832   -1.9066565    1.1752040  
H    1.6189533    1.3585343    2.0405121  
