60

C   -3.3001091   -0.0403324   -1.4738970  
C   -2.5230953   -0.0307824   -2.6090734  
C   -1.1622390   -0.0138866   -2.1820093  
C   -1.1711032   -0.0141838   -0.7636133  
N   -2.4850675   -0.0284820   -0.3662345  
C    0.0000000    0.0000000    0.0000000  
C    1.2019506    0.0144456   -0.6806484  
O    2.3757556    0.0283061    0.0157735  
C    1.2313682    0.0153636   -2.0955516  
O    2.5052460    0.0310211   -2.6250189  
C    0.0764354    0.0016492   -2.8495196  
H   -2.8917941   -0.0343178   -3.6205288  
H   -2.8033159   -0.0426314    0.5858677  
H    3.0833394    0.0371555   -0.6418829  
H    2.4358119    0.0305327   -3.5845934  
H    0.1303822    0.0029149   -3.9319086  
C   -5.6722887   -0.0680841   -2.3740952  
C   -6.9483496   -0.0812676   -1.9098002  
C   -6.8717568   -0.0792640   -0.4679385  
C   -5.4361809   -0.0636918   -0.1278382  
N   -4.7626992   -0.0579216   -1.3275378  
C   -4.9458278   -0.0570295    1.1375529  
C   -5.8953346   -0.0660063    2.2379579  
O   -5.5530333   -0.0610940    3.4131630  
C   -7.4204573   -0.0827774    1.9010238  
O   -8.2292956   -0.0907522    2.8191619  
C   -7.8272321   -0.0884126    0.4980432  
H   -7.8413663   -0.0914385   -2.5089923  
H   -3.8889896   -0.0454619    1.3652995  
H   -5.3198482   -0.0651545   -3.3927545  
C   -9.8602823   -0.8376489   -0.8224548  
C  -11.2028454   -0.6351079   -0.8464656  
C  -11.5081743    0.2899115    0.2193434  
C  -10.2242312    0.6120080    0.8709072  
N   -9.2650392   -0.1039336    0.1924769  
C  -10.0873744    1.4551347    1.9254742  
C  -11.2845605    2.0873858    2.4541885  
O  -11.2656587    2.8620771    3.4017106  
C  -12.6550268    1.7605545    1.7797941  
O  -13.6698405    2.2866282    2.2164400  
C  -12.6757723    0.8360120    0.6490234  
H  -11.8997786   -1.0827700   -1.5323935  
H   -9.1362065    1.6779202    2.3886769  
H  -13.6286580    0.6151405    0.1875577  
H   -9.2556691   -1.4613523   -1.4606759  
C    0.8175213    0.6860729    2.3021913  
C    0.0000000    0.0000000    1.4700000  
C   -0.8887526   -0.7456559    2.3478473  
C   -0.4549825   -0.3816753    3.7138435  
N    0.5448156    0.4573574    3.6934124  
C   -1.0945674   -0.9182058    4.8835240  
C   -2.1210866   -1.7789155    4.6970523  
O   -2.8083856   -2.3554314    5.6976972  
C   -2.5824069   -2.1655116    3.3310774  
O   -3.5227682   -2.9541547    3.2362962  
C   -1.9100805   -1.6015804    2.1470656  
H   -0.7567140   -0.6349833    5.8697035  
H   -3.4728268   -2.9124471    5.2533954  
H   -2.2742832   -1.9066565    1.1752040  
H    1.6189533    1.3585343    2.0405121  
