60

C    3.3041273    0.0001178   -1.5420433  
C    2.5845371   -0.0004779   -0.3695855  
C    1.2040005   -0.0000007   -0.7283590  
C    1.1422373    0.0006039   -2.1454374  
N    2.4348643    0.0026112   -2.6077462  
C   -0.0655181    0.0008799   -2.8497921  
C   -1.2321766    0.0002325   -2.1101401  
O   -2.4392815    0.0001147   -2.7472520  
C   -1.1911210   -0.0000007   -0.6955265  
O   -2.4371527   -0.0002321   -0.1032862  
C    0.0000000    0.0000000    0.0000000  
H    3.0031537   -0.0000660    0.6222583  
H    2.7054631   -0.0071096   -3.5745262  
H   -3.1132985   -0.0000648   -2.0551790  
H   -2.3200283   -0.0004072    0.8516409  
H    4.3686621    0.0004072   -1.7024296  
C   -0.1387080    0.0017018   -4.3179685  
C    0.8847660    0.0023482   -5.2034512  
C    0.2487269    0.0030114   -6.5118682  
C   -1.2011845    0.0025368   -6.2214537  
N   -1.4344179    0.0018496   -4.9370903  
C   -2.1866332    0.0030151   -7.2673871  
C   -1.7437544    0.0043151   -8.5453513  
O   -2.5513001    0.0048875   -9.6195538  
C   -0.2869473    0.0051951   -8.8707332  
O    0.0441878    0.0062441  -10.0563001  
C    0.7042754    0.0046374   -7.7801361  
H    1.9409052    0.0024621   -4.9945362  
H   -3.2396163    0.0024445   -7.0262734  
H   -1.9471958    0.0058404  -10.3838898  
C    4.0740969   -2.1370314   -6.0351275  
C    5.1044222   -1.7281151   -6.8115276  
C    4.5084741   -0.8165070   -7.7760565  
C    3.0718400   -0.7912831   -7.4267295  
N    2.8112283   -1.5633716   -6.4069500  
C    2.1250955    0.0057049   -8.1571895  
C    2.5923729    0.7442338   -9.1894500  
O    1.8217330    1.5335383   -9.9570133  
C    4.0367042    0.7402487   -9.5663476  
O    4.3915620    1.4366771  -10.5172862  
C    4.9880677   -0.0856189   -8.8016410  
H    6.1408594   -2.0101817   -6.7386455  
H    2.4357192    1.9268083  -10.6031651  
H    6.0257637   -0.0608222   -9.1062763  
H    4.1013433   -2.8202221   -5.2011723  
C    2.3971438    2.0127888    3.1728260  
C    1.9431056    1.6308205    1.9564670  
C    0.8496017    0.7127664    2.2356185  
C    0.7794028    0.6545384    3.7115134  
N    1.6840587    1.4146091    4.2663826  
C   -0.1885723   -0.1578550    4.3957118  
C   -1.0476298   -0.8789867    3.6398520  
O   -2.0015663   -1.6796266    4.1448486  
C   -1.0022026   -0.8410666    2.1483229  
O   -1.8147390   -1.5232959    1.5241687  
C    0.0000000    0.0000000    1.4700000  
H    2.3054237    1.9346118    0.9892483  
H   -0.2170646   -0.1815267    5.4753125  
H   -2.4487139   -2.0549881    3.3649027  
H    3.2048689    2.6911772    3.3971983  
