60

C    2.4521484    0.0014842   -3.7217481  
C    3.4891871    0.0026165   -2.8521913  
C    4.6797438    0.0027985   -3.6882978  
C    4.1623480    0.0015425   -5.0735358  
N    2.8572365    0.0008489   -5.0994560  
C    5.0381741    0.0013700   -6.2128405  
C    6.3703211    0.0027939   -5.9789273  
O    7.3023599    0.0028121   -6.9470927  
C    6.9233377    0.0044557   -4.5924456  
O    8.1464873    0.0055754   -4.4541528  
C    6.0043347    0.0045566   -3.4403343  
H    3.4509646    0.0033402   -1.7762667  
H    4.6326017    0.0002347   -7.2140495  
H    8.1530728    0.0040285   -6.4722895  
H    6.4446259    0.0058990   -2.4522190  
C    0.0000000    0.0000000    0.0000000  
C    1.0662922   -0.0000101   -0.8334266  
C    0.4961875    0.0000066   -2.1718886  
C   -0.9663853   -0.0000848   -1.9540248  
N   -1.2632772   -0.0000083   -0.6828658  
C   -1.8985359   -0.0000514   -3.0477260  
C   -1.3925768    0.0004568   -4.3020543  
O   -2.1456378    0.0005413   -5.4151314  
C    0.0786238    0.0009327   -4.5544999  
O    0.4683768    0.0012594   -5.7221098  
C    1.0143171    0.0008446   -3.4159030  
H    2.1107199    0.0000634   -0.5721863  
H   -1.5042266    0.0009697   -6.1484425  
C   -4.2186865    2.1401321   -0.0437266  
C   -5.4804249    1.7323143   -0.3144303  
C   -5.3466894    0.8217464   -1.4411425  
C   -3.8965659    0.7958598   -1.7293377  
N   -3.2302257    1.5666945   -0.9133757  
C   -3.3460091   -0.0004261   -2.7913651  
C   -4.2050292   -0.7376506   -3.5315803  
O   -3.8298198   -1.5261787   -4.5530900  
C   -5.6737583   -0.7329690   -3.2651718  
O   -6.3965393   -1.4282088   -3.9789299  
C   -6.2140635    0.0921568   -2.1701089  
H   -6.3895961    2.0144738    0.1884308  
H   -4.6590771   -1.9185766   -4.8809757  
H   -7.2835613    0.0679007   -2.0094331  
H   -3.8917480    2.8223390    0.7248292  
C    1.1243417   -0.0099156    2.2619005  
C    0.7474090   -0.0234034    3.5848544  
C   -0.6787367   -0.0234952    3.6114698  
C   -1.1201739   -0.0099357    2.2635546  
N    0.0000000    0.0000000    1.4700000  
C   -2.4730812   -0.0065396    1.9108239  
C   -3.3971947   -0.0173298    2.9375057  
O   -4.7313508   -0.0149487    2.6493466  
C   -2.9763630   -0.0305536    4.2886322  
O   -4.0166453   -0.0397858    5.1947621  
C   -1.6418541   -0.0336380    4.6373480  
H    1.4178735   -0.0310004    4.4271209  
H   -2.8160170    0.0039190    0.8854031  
H   -5.1938803   -0.0234410    3.4974381  
H   -3.6464643   -0.0484781    6.0827341  
H   -1.3497443   -0.0436789    5.6809233  
H    2.1062470   -0.0051382    1.8205408  
