60

C    3.3003552    0.0005285   -1.4738972  
C    2.5232826    0.0003507   -2.6090736  
C    1.1623212   -0.0001311   -2.1820097  
C    1.1711890    0.0000587   -0.7636137  
N    2.4852304   -0.0014914   -0.3662351  
C    0.0000000    0.0000000    0.0000000  
C   -1.2020381    0.0000523   -0.6806491  
O   -2.3759247    0.0003490    0.0157734  
C   -1.2314645   -0.0005108   -2.0955513  
O   -2.5054375   -0.0008033   -2.6250193  
C   -0.0764506   -0.0007263   -2.8495194  
H    2.8036265    0.0088185    0.5858674  
H   -3.0835635    0.0000345   -0.6418830  
H   -2.4360031   -0.0011517   -3.5845931  
H   -0.1304079   -0.0013410   -3.9319087  
H    4.3715557    0.0004903   -1.3667118  
C    5.8850917   -2.1080177   -4.4895951  
C    5.7585093   -1.6448877   -5.7598559  
C    4.6253954   -0.7500301   -5.7707340  
C    4.0984511   -0.7296185   -4.3927995  
N    4.9059601   -1.5736615   -3.6658810  
C    3.0267453   -0.0008938   -3.9901690  
C    2.3467562    0.8178009   -4.9800624  
O    1.3721093    1.5097474   -4.7162936  
C    2.8874981    0.8112320   -6.4454499  
O    2.3229964    1.4963187   -7.2876228  
C    4.0508322   -0.0149179   -6.7584712  
H    6.3870555   -1.9010531   -6.5940757  
H    4.4191272   -0.0137378   -7.7753693  
H    4.8014755   -1.7695703   -2.6872340  
C    9.3594698   -4.3732321   -6.1211411  
C    8.2863318   -3.5524213   -6.0422519  
C    7.8644596   -3.6192170   -4.6515460  
C    8.8199705   -4.5521942   -4.0166156  
N    9.6987128   -4.9973757   -4.8731287  
C    8.7411474   -4.8897051   -2.6219973  
C    7.7529368   -4.3207253   -1.8946485  
O    7.5612119   -4.5454868   -0.5836315  
C    6.7734390   -3.3750063   -2.5064979  
O    5.8997770   -2.8947628   -1.7844858  
C    6.8752642   -3.0447502   -3.9391486  
H    7.8366199   -2.9730970   -6.8304260  
H    9.4526436   -5.5746337   -2.1843272  
H    6.7864841   -4.0030310   -0.3497688  
H    9.9613070   -4.5981261   -6.9872757  
C    0.8175213    0.6860729    2.3021913  
C    0.0000000    0.0000000    1.4700000  
C   -0.8887526   -0.7456559    2.3478473  
C   -0.4549825   -0.3816753    3.7138435  
N    0.5448156    0.4573574    3.6934124  
C   -1.0945674   -0.9182058    4.8835240  
C   -2.1210866   -1.7789155    4.6970523  
O   -2.8083856   -2.3554314    5.6976972  
C   -2.5824069   -2.1655116    3.3310774  
O   -3.5227682   -2.9541547    3.2362962  
C   -1.9100805   -1.6015804    2.1470656  
H   -0.7567140   -0.6349833    5.8697035  
H   -3.4728268   -2.9124471    5.2533954  
H   -2.2742832   -1.9066565    1.1752040  
H    1.6189533    1.3585343    2.0405121  
