58

C    3.2573670   -0.0002919   -1.5109384  
C    2.5379470   -0.0001709   -0.3591964  
C    1.1435040    0.0000332   -0.7338499  
C    1.1092606   -0.0000081   -2.2088477  
N    2.4227557    0.0001910   -2.6182611  
C   -0.0265536   -0.0002523   -2.9515660  
C   -1.3003033   -0.0002639   -2.2514979  
O   -2.3786789   -0.0004131   -2.8306421  
C   -1.2877726    0.0000312   -0.6895605  
O   -2.3539963    0.0003307   -0.0892032  
C    0.0000000    0.0000000    0.0000000  
H    2.9384088   -0.0000368    0.6389234  
H   -0.0296296   -0.0004084   -4.0327231  
H    2.7280488   -0.0013406   -3.5742118  
C    6.5597225   -0.0008211    1.3835019  
C    7.6114516   -0.0009114    0.5244672  
C    7.0637934   -0.0009870   -0.8115365  
C    5.5962697   -0.0009038   -0.6593383  
N    5.3559138   -0.0012037    0.6953274  
C    4.7161330   -0.0005435   -1.6923262  
C    5.2498357   -0.0004420   -3.0442496  
O    4.5392143   -0.0001858   -4.0409036  
C    6.8008630   -0.0007795   -3.2289598  
O    7.2618453   -0.0010041   -4.3624308  
C    7.6474465   -0.0008760   -2.0385193  
H    8.6521344   -0.0011059    0.7957486  
H    6.5627891   -0.0007240    2.4614077  
H    4.4461413    0.0003271    1.1188351  
C   10.7550553   -2.1426499    0.1393394  
C   11.8794052   -1.7350158   -0.4941057  
C   11.4170543   -0.8240152   -1.5298708  
C    9.9468248   -0.7977031   -1.3739337  
N    9.5529353   -1.5686814   -0.3969830  
C    9.1056904   -0.0009149   -2.2240563  
C    9.7060562    0.7363833   -3.1859746  
O    9.0443846    1.5253602   -4.0495412  
C   11.1875810    0.7312798   -3.3682386  
O   11.6657180    1.4266141   -4.2644055  
C   12.0287385   -0.0943579   -2.4835343  
H   12.8968731   -2.0175575   -0.2843371  
H    9.7388016    1.9176909   -4.6090185  
H   13.0976567   -0.0703970   -2.6480586  
H   10.6711587   -2.8250590    0.9701535  
C    2.5528530    2.1414826    2.8079335  
C    2.0663498    1.7338582    4.0032312  
C    0.9804344    0.8229586    3.6752840  
C    0.9495562    0.7966882    2.1971295  
N    1.8690446    1.5676019    1.6831036  
C    0.0000000    0.0000000    1.4700000  
C   -0.8785127   -0.7372425    2.1869543  
O   -1.8187535   -1.5261249    1.6395491  
C   -0.8723269   -0.7321790    3.6796354  
O   -1.7010379   -1.4274584    4.2670412  
C    0.1115397    0.0933559    4.4024240  
H    2.4028853    2.0163452    4.9860947  
H   -2.2861435   -1.9184361    2.3990168  
H    0.0832434    0.0693689    5.4835595  
H    3.3664920    2.8238276    2.6198634  
