58

C   -3.9877630    0.7060337   -1.9730980  
C   -3.2941076    0.0012878   -2.9038237  
C   -4.2616230   -0.7404938   -3.6774573  
C   -5.5852975   -0.4077261   -3.1171521  
N   -5.3499622    0.4732133   -2.0868838  
C   -6.7614333   -0.9068533   -3.5746254  
C   -6.7208860   -1.8338316   -4.6933761  
O   -7.7257841   -2.3379516   -5.1774667  
C   -5.3299832   -2.2005537   -5.3022350  
O   -5.2832936   -2.9801745   -6.2441850  
C   -4.1317821   -1.5978942   -4.7234698  
H   -7.7216479   -0.6497118   -3.1494484  
H   -3.1726429   -1.8568414   -5.1509306  
H   -3.6184115    1.3757280   -1.2135067  
C   -6.3981892    2.3915559   -0.7986496  
C   -7.4909334    2.6395723   -0.0315302  
C   -8.2455923    1.4104457    0.0360995  
C   -7.4975533    0.4189036   -0.7601868  
N   -6.3882432    1.0768166   -1.2392191  
C   -7.8832141   -0.8693357   -0.9429708  
C   -9.1175288   -1.3085405   -0.3136040  
O   -9.5496286   -2.4489633   -0.4186088  
C   -9.9259624   -0.2752237    0.5340373  
O  -10.9668363   -0.6333769    1.0684229  
C   -9.4087831    1.0852502    0.6584915  
H   -7.7400111    3.5766632    0.4336956  
H   -7.3198332   -1.5806260   -1.5308294  
H   -9.9743798    1.7945788    1.2472847  
H   -5.5994267    3.0586858   -1.0793740  
C    0.0000000    0.0000000    0.0000000  
C    1.0541688   -0.0001723   -0.8560392  
C    0.5103136   -0.0000455   -2.1935956  
C   -0.9576373    0.0002461   -2.0455730  
N   -1.2018460   -0.0001389   -0.6915968  
C   -1.8348314    0.0008319   -3.0810607  
C   -1.2972851    0.0009739   -4.4314603  
O   -2.0050676    0.0014268   -5.4301316  
C    0.2542619    0.0004184   -4.6117572  
O    0.7184666    0.0002257   -5.7439122  
C    1.0974551    0.0000873   -3.4189129  
H    2.0940752   -0.0005484   -0.5817983  
H    2.1707276   -0.0000912   -3.5523673  
H   -2.1128194    0.0014915   -0.2706789  
C    1.0672568    0.0000697    2.3021913  
C    0.0000000    0.0000000    1.4700000  
C   -1.1601224    0.0000736    2.3478473  
C   -0.5938729    0.0000769    3.7138435  
N    0.7113367    0.0001554    3.6934124  
C   -1.4286986    0.0001879    4.8835240  
C   -2.7683114    0.0006799    4.6970523  
O   -3.6653903    0.0008304    5.6976972  
C   -3.3702025    0.0010610    3.3310774  
O   -4.5974910    0.0013779    3.2362962  
C   -2.4926826    0.0008943    2.1470656  
H   -0.9878360   -0.0000190    5.8697035  
H   -4.5324246    0.0012261    5.2533954  
H   -2.9677772    0.0012974    1.1752040  
H    2.1134392    0.0000545    2.0405121  
