58

C    3.2798085    0.0005857   -1.4499648  
C    2.5571144    0.0005565   -2.5996556  
C    1.1637435    0.0001548   -2.2210363  
C    1.1336962   -0.0000199   -0.7459473  
N    2.4483513   -0.0001429   -0.3402720  
C    0.0000000    0.0000000    0.0000000  
C   -1.2757367   -0.0000186   -0.6964415  
O   -2.3524593   -0.0000638   -0.1142316  
C   -1.2676494   -0.0000872   -2.2584081  
O   -2.3355762   -0.0004099   -2.8557297  
C    0.0181558    0.0001761   -2.9516297  
H    0.0150791    0.0003319   -4.0331632  
H    4.3498548    0.0008609   -1.3200024  
H    2.7563625    0.0012823    0.6148061  
C    4.1687668   -0.6842814   -4.4361451  
C    3.1006056    0.0006262   -3.9654951  
C    2.5984210    0.7451004   -5.1100775  
C    3.5069654    0.3817818   -6.2187396  
N    4.4294532   -0.4558756   -5.8297194  
C    3.3444614    0.9174871   -7.5422569  
C    2.3206216    1.7767747   -7.7489244  
O    2.0512367    2.3523916   -8.9330430  
C    1.3864580    2.1626710   -6.6504787  
O    0.4766648    2.9500148   -6.9104517  
C    1.5741206    1.5996090   -5.3015277  
H    1.2688867    2.9084717   -8.7661407  
H    0.8760107    1.9041376   -4.5333249  
H    4.8175337   -1.3556519   -3.8963890  
C    4.2683082    0.5327706   -8.6190119  
C    5.3250292   -0.3098624   -8.5490926  
C    5.8812727   -0.3262410   -9.8932745  
C    5.0132858    0.5873086  -10.6669734  
N    4.0660605    1.0939282   -9.9252940  
C    5.2347601    0.8470431  -12.0628860  
C    6.2762521    0.2228293  -12.6586953  
O    6.5994457    0.3726426  -13.9545129  
C    7.1705137   -0.7045289  -11.9047298  
O    8.0993160   -1.2381268  -12.5112117  
C    6.9225619   -0.9546306  -10.4736837  
H    5.6829102   -0.8531387   -7.6912768  
H    4.5845595    1.5191141  -12.6036902  
H    7.3811476   -0.1946075  -14.0822706  
H    7.5931428   -1.6328822   -9.9632665  
C    0.8175213    0.6860729    2.3021913  
C    0.0000000    0.0000000    1.4700000  
C   -0.8887526   -0.7456559    2.3478473  
C   -0.4549825   -0.3816753    3.7138435  
N    0.5448156    0.4573574    3.6934124  
C   -1.0945674   -0.9182058    4.8835240  
C   -2.1210866   -1.7789155    4.6970523  
O   -2.8083856   -2.3554314    5.6976972  
C   -2.5824069   -2.1655116    3.3310774  
O   -3.5227682   -2.9541547    3.2362962  
C   -1.9100805   -1.6015804    2.1470656  
H   -0.7567140   -0.6349833    5.8697035  
H   -3.4728268   -2.9124471    5.2533954  
H   -2.2742832   -1.9066565    1.1752040  
H    1.6189533    1.3585343    2.0405121  
