58

C   -3.1299754   -0.0296106   -1.7028246  
C   -2.5366575   -0.0245566   -0.4864660  
C   -1.1089365   -0.0109590   -0.7656178  
C   -1.0177426   -0.0095486   -2.2415129  
N   -2.1992638   -0.0203692   -2.7963813  
C    0.2459060    0.0026951   -2.9257115  
C    1.3674653    0.0134477   -2.1698527  
O    2.6128061    0.0254922   -2.6748496  
C    1.3082971    0.0127169   -0.6783233  
O    2.3692174    0.0227736   -0.0541694  
C    0.0000000    0.0000000    0.0000000  
H   -3.0094581   -0.0293612    0.4807532  
H    0.2829448    0.0032387   -4.0053121  
H    3.1965919    0.0310846   -1.8949037  
C   -5.6037233   -0.0534220   -1.1379114  
C   -4.5677438   -0.0430319   -2.0086694  
C   -5.1849904   -0.0478623   -3.3260464  
C   -6.6388395   -0.0618491   -3.0563946  
N   -6.8903946   -0.0650840   -1.7754971  
C   -7.6091958   -0.0701786   -4.1163123  
C   -7.1481224   -0.0643920   -5.3878119  
O   -7.9401985   -0.0709719   -6.4734512  
C   -5.6868827   -0.0499253   -5.6923299  
O   -5.3388559   -0.0454520   -6.8730405  
C   -4.7113911   -0.0416350   -4.5876707  
H   -7.3252633   -0.0641947   -7.2290709  
H   -3.6620029   -0.0310847   -4.8501649  
H   -5.5654307   -0.0538535   -0.0601796  
C   -9.8412764    2.0468029   -1.0302624  
C  -11.1079329    1.6271993   -1.2562997  
C  -11.0057173    0.7183853   -2.3877185  
C   -9.5665616    0.7063060   -2.7272345  
N   -8.8789598    1.4830709   -1.9348778  
C   -9.0465859   -0.0843217   -3.8087237  
C   -9.9243646   -0.8293274   -4.5185165  
O   -9.5782514   -1.6138692   -5.5532820  
C  -11.3826861   -0.8386189   -4.2001281  
O  -12.1237737   -1.5403661   -4.8882861  
C  -11.8915163   -0.0190690   -3.0859670  
H  -12.0012929    1.9005616   -0.7212703  
H  -10.4148941   -2.0139476   -5.8518085  
H  -12.9543584   -0.0534856   -2.8874403  
H   -9.4936952    2.7317587   -0.2732972  
C    2.3971438    2.0127888    3.1728260  
C    1.9431056    1.6308205    1.9564670  
C    0.8496017    0.7127664    2.2356185  
C    0.7794028    0.6545384    3.7115134  
N    1.6840587    1.4146091    4.2663826  
C   -0.1885723   -0.1578550    4.3957118  
C   -1.0476298   -0.8789867    3.6398520  
O   -2.0015663   -1.6796266    4.1448486  
C   -1.0022026   -0.8410666    2.1483229  
O   -1.8147390   -1.5232959    1.5241687  
C    0.0000000    0.0000000    1.4700000  
H    2.3054237    1.9346118    0.9892483  
H   -0.2170646   -0.1815267    5.4753125  
H   -2.4487139   -2.0549881    3.3649027  
H    3.2048689    2.6911772    3.3971983  
