58

C   -3.2797478    0.0199363   -1.4499650  
C   -2.5570681    0.0154435   -2.5996556  
C   -1.1637211    0.0071269   -2.2210364  
C   -1.1336742    0.0071136   -0.7459472  
N   -2.4483025    0.0154623   -0.3402722  
C    0.0000000    0.0000000    0.0000000  
C    1.2757131   -0.0079637   -0.6964415  
O    2.3524139   -0.0146555   -0.1142315  
C    1.2676256   -0.0078443   -2.2584080  
O    2.3355333   -0.0142037   -2.8557292  
C   -0.0181569   -0.0000622   -2.9516296  
H   -2.9546809    0.0178804   -3.5989107  
H   -0.0150803   -0.0002374   -4.0331629  
H   -2.7563171    0.0159643    0.6148058  
C   -5.6663735    0.0350315   -2.2647008  
C   -4.7389981    0.0286914   -1.2727286  
C   -5.4603989    0.0324922   -0.0219679  
C   -6.8943561    0.0416026   -0.3690601  
N   -6.9513767    0.0431275   -1.7437006  
C   -7.9047206    0.0469938    0.5369418  
C   -7.5566266    0.0438226    1.9480959  
O   -8.3941417    0.0482444    2.8407603  
C   -6.0442631    0.0344482    2.3385759  
O   -5.7390175    0.0320143    3.5235147  
C   -5.0460949    0.0289710    1.2720481  
H   -4.0011214    0.0222835    1.5508128  
H   -5.5191784    0.0346875   -3.3325127  
H   -7.7963294    0.0472268   -2.2850742  
C   -9.8906683   -0.6446887   -0.8550322  
C   -9.3260969    0.0558747    0.1620935  
C  -10.3854109    0.8041155    0.7967787  
C  -11.6222814    0.4796960    0.0607804  
N  -11.2541219   -0.4030686   -0.9281963  
C  -12.8466411    0.9865296    0.3536418  
C  -12.9532954    1.9135844    1.4679713  
O  -14.0116274    2.4243171    1.8105872  
C  -11.6562390    2.2715403    2.2612673  
O  -11.7336122    3.0511457    3.2012085  
C  -10.3941231    1.6609965    1.8512055  
H  -13.7414315    0.7354384   -0.1988190  
H   -9.5006983    1.9139005    2.4057830  
H   -9.4253574   -1.3169890   -1.5574479  
H  -11.8798904   -0.8107411   -1.5984683  
C    2.3971438    2.0127888    3.1728260  
C    1.9431056    1.6308205    1.9564670  
C    0.8496017    0.7127664    2.2356185  
C    0.7794028    0.6545384    3.7115134  
N    1.6840587    1.4146091    4.2663826  
C   -0.1885723   -0.1578550    4.3957118  
C   -1.0476298   -0.8789867    3.6398520  
O   -2.0015663   -1.6796266    4.1448486  
C   -1.0022026   -0.8410666    2.1483229  
O   -1.8147390   -1.5232959    1.5241687  
C    0.0000000    0.0000000    1.4700000  
H    2.3054237    1.9346118    0.9892483  
H   -0.2170646   -0.1815267    5.4753125  
H   -2.4487139   -2.0549881    3.3649027  
H    3.2048689    2.6911772    3.3971983  
