58

C    1.0965514    0.0001360   -0.8010308  
C    0.0000000    0.0000000    0.0000000  
C   -1.1546565    0.0001472   -0.8669509  
C   -0.6372020    0.0003523   -2.2486278  
N    0.7342866    0.0007341   -2.1395013  
C   -1.4147747    0.0001359   -3.3608714  
C   -2.8576056   -0.0001043   -3.1854457  
O   -3.6427786   -0.0002487   -4.1244898  
C   -3.4275844   -0.0000723   -1.7311657  
O   -4.6406831    0.0000333   -1.5710050  
C   -2.4891869   -0.0001088   -0.6116737  
H   -2.8919120   -0.0002918    0.3920871  
H    2.1388271    0.0000665   -0.5261656  
H    1.3735865   -0.0006094   -2.9130264  
C    1.9957403   -2.1407944   -5.0258951  
C    1.9855614   -1.7332329   -6.3163869  
C    0.8551735   -0.8225471   -6.4132069  
C    0.2799725   -0.7963187   -5.0512087  
N    0.9444043   -1.5670707   -4.2336137  
C   -0.8712836    0.0001718   -4.7267109  
C   -1.4226099    0.7372654   -5.7177040  
O   -2.4987615    1.5259564   -5.5567515  
C   -0.8649849    0.7322396   -7.1023299  
O   -1.4179272    1.4273765   -7.9545391  
C    0.3165509   -0.0930913   -7.4101073  
H    2.6616892   -2.0156322   -7.1051694  
H   -2.6523141    1.9181970   -6.4352279  
H    0.6899748   -0.0690831   -8.4250997  
C    3.9823947   -3.7168479   -4.9343480  
C    2.9316266   -3.0707050   -4.3776027  
C    2.9243270   -3.4957890   -2.9862903  
C    4.0703751   -4.4234449   -2.8739850  
N    4.6944598   -4.5569195   -4.0127091  
C    4.4076660   -5.0696134   -1.6355237  
C    3.6354041   -4.8009559   -0.5581335  
O    3.8347164   -5.3331780    0.6596737  
C    2.4722032   -3.8690195   -0.6394883  
O    1.8130353   -3.6711027    0.3810737  
C    2.1465929   -3.2186183   -1.9212377  
H    5.2505767   -5.7430912   -1.5822440  
H    3.1289034   -4.9545218    1.2142905  
H    1.2962070   -2.5502062   -1.9385267  
H    4.3264053   -3.6687171   -5.9552854  
C    0.0000000    0.0000000    1.4700000  
C    1.0662921    0.0000102    2.3034270  
C    0.4961870   -0.0000064    3.6418889  
C   -0.9663858    0.0000850    3.4240247  
N   -1.2632773    0.0000084    2.1528658  
C   -1.8985362    0.0000517    4.5177257  
C   -1.3925775   -0.0004564    5.7720543  
O   -2.1456383   -0.0005410    6.8851312  
C    0.0786232   -0.0009323    6.0245000  
O    0.4683759   -0.0012588    7.1921102  
C    1.0143166   -0.0008442    4.8859032  
H    2.1107198   -0.0000632    2.0421868  
H   -2.9622183    0.0003270    4.3293377  
H   -1.5042274   -0.0009692    7.6184419  
H    2.0724152   -0.0013148    5.1109744  
