60

C    3.3003532    0.0005276   -1.4739013  
C    2.5232795    0.0003498   -2.6090769  
C    1.1623181   -0.0001318   -2.1820113  
C    1.1711882    0.0000584   -0.7636154  
N    2.4852297   -0.0014919   -0.3662379  
C    0.0000000    0.0000000    0.0000000  
C   -1.2020392    0.0000521   -0.6806476  
O   -2.3759254    0.0003495    0.0157757  
C   -1.2314672   -0.0005110   -2.0955505  
O   -2.5054408   -0.0008034   -2.6250169  
C   -0.0764539   -0.0007270   -2.8495200  
H    2.8919929   -0.0005617   -3.6205325  
H    2.8036267    0.0088180    0.5858641  
H   -3.0835649    0.0000350   -0.6418804  
H   -2.4360080   -0.0011523   -3.5845910  
H   -0.1304124   -0.0013418   -3.9319091  
C    6.5323569    0.0028964   -4.4466921  
C    7.6043815    0.0022109   -3.6131227  
C    7.0889152    0.0013270   -2.2643717  
C    5.6181639    0.0015261   -2.3813380  
N    5.3453953    0.0028890   -3.7298502  
C    4.7630494    0.0004755   -1.3275437  
C    5.3290144   -0.0007200    0.0111936  
O    4.6424957   -0.0016578    1.0245992  
C    6.8840253   -0.0006991    0.1586604  
O    7.3720531   -0.0013932    1.2807519  
C    7.7018209    0.0002119   -1.0517370  
H    8.6382605    0.0024953   -3.9092793  
H    8.7776739    0.0000148   -0.9409948  
H    4.4257297    0.0017848   -4.1314226  
C    9.5947181    0.0031715   -7.6849610  
C    9.0272199    0.0032637   -6.4563338  
C    7.5938526    0.0042113   -6.7052480  
C    7.4714781    0.0047130   -8.1788853  
N    8.6410585    0.0040264   -8.7586026  
C    6.1935922    0.0056375   -8.8362246  
C    5.0882063    0.0056537   -8.0568292  
O    3.8324131    0.0064728   -8.5353924  
C    5.1788886    0.0047840   -6.5668836  
O    4.1313489    0.0049750   -5.9204465  
C    6.5012905    0.0038875   -5.9163632  
H    9.5203793    0.0026618   -5.4993237  
H    6.1337424    0.0061944   -9.9148008  
H    3.2652137    0.0062250   -7.7432831  
H   10.6445539    0.0025621   -7.9315754  
C    2.5528530    2.1414826    2.8079335  
C    2.0663498    1.7338582    4.0032312  
C    0.9804344    0.8229586    3.6752840  
C    0.9495562    0.7966882    2.1971295  
N    1.8690446    1.5676019    1.6831036  
C    0.0000000    0.0000000    1.4700000  
C   -0.8785127   -0.7372425    2.1869543  
O   -1.8187535   -1.5261249    1.6395491  
C   -0.8723269   -0.7321790    3.6796354  
O   -1.7010379   -1.4274584    4.2670412  
C    0.1115397    0.0933559    4.4024240  
H    2.4028853    2.0163452    4.9860947  
H   -2.2861435   -1.9184361    2.3990168  
H    0.0832434    0.0693689    5.4835595  
H    3.3664920    2.8238276    2.6198634  
