58

C    4.6171595   -2.0114327   -1.7322441  
C    3.3328188   -1.6298291   -1.9231036  
C    3.3780282   -0.7112573   -3.0503486  
C    4.8069993   -0.6523618   -3.4260566  
N    5.5382126   -1.4125189   -2.6569807  
C    5.2745460    0.1606802   -4.5148402  
C    4.3562413    0.8817939   -5.1975148  
O    4.6514325    1.6829993   -6.2352877  
C    2.9068167    0.8432089   -4.8427748  
O    2.1270277    1.5254609   -5.5073661  
C    2.4521483    0.0014840   -3.7217481  
H    2.4622560   -1.9341723   -1.3676120  
H    6.3245850    0.1848317   -4.7673176  
H    3.7953909    2.0581837   -6.5102098  
C    4.4594001   -3.6028446    0.2379448  
C    5.1457116   -2.9364199   -0.7193614  
C    6.5326180   -3.3337163   -0.5318872  
C    6.5008895   -4.2689849    0.6130363  
N    5.2882782   -4.4307303    1.0684516  
C    7.6923370   -4.8934446    1.1185939  
C    8.8622459   -4.5973436    0.5078807  
O   10.0503954   -5.1071441    0.8745465  
C    8.9268430   -3.6576162   -0.6500923  
O   10.0260216   -3.4340976   -1.1571096  
C    7.6908254   -3.0298055   -1.1501305  
H    7.6398535   -5.5727878    1.9568353  
H   10.6912250   -4.7119278    0.2562469  
H    7.7800402   -2.3550442   -1.9909449  
H    3.3992492   -3.5780754    0.4340060  
C    0.0000000    0.0000000    0.0000000  
C    1.0662923   -0.0000101   -0.8334270  
C    0.4961873    0.0000065   -2.1718887  
C   -0.9663854   -0.0000848   -1.9540250  
N   -1.2632773   -0.0000083   -0.6828660  
C   -1.8985359   -0.0000514   -3.0477261  
C   -1.3925770    0.0004566   -4.3020547  
O   -2.1456378    0.0005414   -5.4151314  
C    0.0786240    0.0009326   -4.5545000  
O    0.4683767    0.0012591   -5.7221100  
C    1.0143171    0.0008444   -3.4159031  
H    2.1107200    0.0000633   -0.5721865  
H   -2.9622181   -0.0003268   -2.8593381  
H   -1.5042265    0.0009697   -6.1484419  
C    1.0672568    0.0000697    2.3021913  
C    0.0000000    0.0000000    1.4700000  
C   -1.1601224    0.0000736    2.3478473  
C   -0.5938729    0.0000769    3.7138435  
N    0.7113367    0.0001554    3.6934124  
C   -1.4286986    0.0001879    4.8835240  
C   -2.7683114    0.0006799    4.6970523  
O   -3.6653903    0.0008304    5.6976972  
C   -3.3702025    0.0010610    3.3310774  
O   -4.5974910    0.0013779    3.2362962  
C   -2.4926826    0.0008943    2.1470656  
H   -0.9878360   -0.0000190    5.8697035  
H   -4.5324246    0.0012261    5.2533954  
H   -2.9677772    0.0012974    1.1752040  
H    2.1134392    0.0000545    2.0405121  
