62

C    3.3041273    0.0001176   -1.5420427  
C    2.5845372   -0.0004779   -0.3695849  
C    1.2040006   -0.0000007   -0.7283585  
C    1.1422374    0.0006037   -2.1454371  
N    2.4348641    0.0026108   -2.6077464  
C   -0.0655184    0.0008796   -2.8497917  
C   -1.2321767    0.0002321   -2.1101399  
O   -2.4392811    0.0001142   -2.7472521  
C   -1.1911212   -0.0000007   -0.6955257  
O   -2.4371525   -0.0002322   -0.1032865  
C    0.0000000    0.0000000    0.0000000  
H    3.0031534   -0.0000661    0.6222587  
H   -0.1193542    0.0014840   -3.9297469  
H   -3.1132987   -0.0000651   -2.0551789  
H   -2.3200283   -0.0004071    0.8516414  
H    4.3686625    0.0004071   -1.7024291  
C    5.6718698   -2.1292828   -4.7374656  
C    5.4024582   -1.6450690   -5.9966009  
C    4.2795483   -0.7737663   -5.8761622  
C    3.9039369   -0.7655395   -4.5083999  
N    4.7686528   -1.6005165   -3.8453030  
C    2.8310666   -0.0116221   -4.0232749  
C    2.1246916    0.7480616   -4.9354657  
O    1.0681527    1.5033226   -4.5155603  
C    2.4839121    0.7526865   -6.3043179  
O    1.6833250    1.5594237   -7.0863533  
C    3.5420403    0.0089614   -6.7836551  
H    4.7540933   -1.7863153   -2.8587695  
H    0.7213551    1.9477939   -5.3000611  
H    1.9931415    1.5056035   -7.9955952  
H    3.7934487    0.0324028   -7.8375638  
H    6.4359577   -2.8111063   -4.4054340  
C    7.1268330   -5.4236587   -7.4950076  
C    6.4962684   -4.4765866   -6.7537127  
C    6.5938423   -3.2354847   -7.4851363  
C    7.3382532   -3.5393187   -8.7222004  
N    7.6326012   -4.8821547   -8.6670617  
C    7.6388866   -2.6282820   -9.6820631  
C    7.2001873   -1.2569267   -9.4834126  
O    7.4218935   -0.3632048  -10.2898908  
C    6.4105449   -0.9125572   -8.1804622  
O    6.0363224    0.2387053   -8.0020985  
C    6.1466407   -1.9803299   -7.2191774  
H    6.0175870   -4.6298712   -5.8029328  
H    8.1858811   -2.8719664  -10.5822443  
H    7.2647870   -6.4715903   -7.2835898  
H    8.1354317   -5.3909143   -9.3708892  
C    2.3971438    2.0127888    3.1728260  
C    1.9431056    1.6308205    1.9564670  
C    0.8496017    0.7127664    2.2356185  
C    0.7794028    0.6545384    3.7115134  
N    1.6840587    1.4146091    4.2663826  
C   -0.1885723   -0.1578550    4.3957118  
C   -1.0476298   -0.8789867    3.6398520  
O   -2.0015663   -1.6796266    4.1448486  
C   -1.0022026   -0.8410666    2.1483229  
O   -1.8147390   -1.5232959    1.5241687  
C    0.0000000    0.0000000    1.4700000  
H    2.3054237    1.9346118    0.9892483  
H   -0.2170646   -0.1815267    5.4753125  
H   -2.4487139   -2.0549881    3.3649027  
H    3.2048689    2.6911772    3.3971983  
