62

C    3.3003540    0.0005278   -1.4738998  
C    2.5232805    0.0003501   -2.6090759  
C    1.1623190   -0.0001315   -2.1820106  
C    1.1711880    0.0000584   -0.7636147  
N    2.4852300   -0.0014918   -0.3662366  
C    0.0000000    0.0000000    0.0000000  
C   -1.2020387    0.0000521   -0.6806476  
O   -2.3759253    0.0003495    0.0157752  
C   -1.2314666   -0.0005110   -2.0955505  
O   -2.5054395   -0.0008035   -2.6250174  
C   -0.0764524   -0.0007269   -2.8495195  
H    2.8919942   -0.0005615   -3.6205312  
H    2.8036265    0.0088181    0.5858650  
H   -3.0835639    0.0000348   -0.6418810  
H   -2.4360058   -0.0011523   -3.5845915  
C    0.6778483   -0.7280270   -5.1604563  
C    0.3572077   -0.5121156   -6.4622425  
C   -0.7500370    0.4145353   -6.4749821  
C   -1.0503185    0.7230184   -5.0637911  
N   -0.1496428   -0.0015607   -4.3176960  
C   -2.0334675    1.5633983   -4.6528347  
C   -2.8505407    2.2068487   -5.6681665  
O   -3.7605432    2.9801058   -5.3993364  
C   -2.5503738    1.8945201   -7.1688848  
O   -3.2318486    2.4301022   -8.0325996  
C   -1.4639138    0.9716712   -7.4879563  
H    0.8409985   -0.9519512   -7.3161187  
H   -2.2371063    1.7761245   -3.6125519  
H   -1.2623918    0.7608739   -8.5294349  
H    1.4488967   -1.3568980   -4.7458544  
C    4.7630502    0.0004759   -1.3275418  
C    5.6984991    0.0014508   -2.3055565  
C    6.9735489    0.0008553   -1.6050227  
C    6.6111488   -0.0004093   -0.1714090  
N    5.3167467   -0.0007178   -0.0025536  
C    7.6066074   -0.0013505    0.8650018  
C    8.9050791   -0.0014312    0.4864421  
O    9.9376484   -0.0022573    1.3465822  
C    9.3027476   -0.0005442   -0.9523141  
O   10.5033612   -0.0005486   -1.2238793  
C    8.2629691    0.0004566   -1.9967202  
H    5.5425438    0.0023604   -3.3708044  
H    7.3132519   -0.0020603    1.9046420  
H   10.7311765   -0.0021134    0.7813691  
H    8.5922696    0.0009646   -3.0271525  
C    0.0000000    0.0000000    1.4700000  
C    1.0521667    0.0011902    2.3562342  
C    0.4917218    0.0011957    3.6679131  
C   -0.9187428   -0.0003148    3.5178682  
N   -1.1833171    0.0009411    2.1707914  
C   -1.7951701   -0.0010350    4.6072090  
C   -1.2375837   -0.0005224    5.8710424  
O   -2.0474215   -0.0015360    6.9697579  
C    0.1673580    0.0013566    6.0411963  
O    0.5673524    0.0020687    7.3615553  
C    1.0325770    0.0023412    4.9669890  
H    2.0953057    0.0030649    2.0900562  
H   -2.0989778   -0.0102372    1.7591824  
H   -2.8710934   -0.0020419    4.4995513  
H   -1.4634884   -0.0006497    7.7393593  
H    1.5290710    0.0033153    7.3880045  
H    2.1042148    0.0039609    5.1284455  
