60

C    0.0000000    0.0000000    0.0000000  
C    1.0541691   -0.0001722   -0.8560385  
C    0.5103148   -0.0000454   -2.1935953  
C   -0.9576360    0.0002459   -2.0455733  
N   -1.2018453   -0.0001391   -0.6915972  
C   -1.8348299    0.0008316   -3.0810614  
C   -1.2972830    0.0009736   -4.4314610  
O   -2.0050651    0.0014265   -5.4301325  
C    0.2542642    0.0004184   -4.6117570  
O    0.7184692    0.0002257   -5.7439117  
C    1.0974567    0.0000874   -3.4189124  
H    2.0940754   -0.0005483   -0.5817975  
H   -2.1128192    0.0014911   -0.2706798  
C    3.4829134   -0.6854437   -2.8909313  
C    2.5562225   -0.0001552   -3.6002994  
C    3.3177146    0.7443541   -4.5914285  
C    4.7267869    0.3806372   -4.3291127  
N    4.8298583   -0.4572650   -3.3334794  
C    5.8086210    0.9162538   -5.1087503  
C    5.4969309    1.7758371   -6.1053949  
O    6.4051351    2.3514131   -6.9115696  
C    4.0844808    2.1621383   -6.3950779  
O    3.8744096    2.9497371   -7.3174551  
C    2.9924636    1.5991605   -5.5811501  
H    6.8289464    0.6332495   -4.8948439  
H    5.8822561    2.9077530   -7.5167430  
H    1.9830966    1.9039863   -5.8229961  
H    3.3221085   -1.3569585   -2.0625695  
C   -3.2941060    0.0012872   -2.9038252  
C   -3.9928916    0.0012410   -1.7448265  
C   -5.3903261    0.0018074   -2.1493958  
C   -5.3503920    0.0022629   -3.6275664  
N   -4.1243024    0.0018800   -4.0755544  
C   -6.5485025    0.0028436   -4.4210509  
C   -7.7326781    0.0025750   -3.7675500  
O   -8.9284309    0.0030575   -4.3809148  
C   -7.8059015    0.0017431   -2.2766448  
O   -8.9180015    0.0016635   -1.7489582  
C   -6.5627957    0.0012023   -1.4850568  
H   -3.6076320    0.0007784   -0.7395152  
H   -6.4897356    0.0033745   -5.4996865  
H   -9.5790581    0.0026673   -3.6557688  
H   -6.6586513    0.0004892   -0.4075407  
C    3.3003543   -0.0005276    2.9438989  
C    2.5232812   -0.0003497    4.0790748  
C    1.1623199    0.0001319    3.6520102  
C    1.1711883   -0.0000583    2.2336141  
N    2.4852299    0.0014920    1.8362361  
C    0.0000000    0.0000000    1.4700000  
C   -1.2020384   -0.0000520    2.1506477  
O   -2.3759250   -0.0003494    1.4542253  
C   -1.2314658    0.0005113    3.5655508  
O   -2.5054393    0.0008037    4.0950179  
C   -0.0764518    0.0007272    4.3195194  
H    2.8919952    0.0005619    5.0905303  
H    2.8036267   -0.0088181    0.8841339  
H   -3.0835639   -0.0000348    2.1118817  
H   -2.4360050    0.0011527    5.0545920  
H   -0.1304098    0.0013421    5.4019087  
H    4.3715549   -0.0004895    2.8367138  
