58

C   -3.1301088   -0.0064112   -1.7028250  
C   -2.5367704   -0.0057549   -0.4864661  
C   -1.1089869   -0.0027396   -0.7656182  
C   -1.0177852   -0.0020053   -2.2415130  
N   -2.1993550   -0.0040684   -2.7963815  
C    0.2459195    0.0008722   -2.9257120  
C    1.3675274    0.0033117   -2.1698526  
O    2.6129236    0.0061257   -2.6748494  
C    1.3083550    0.0030197   -0.6783234  
O    2.3693209    0.0052127   -0.0541695  
C    0.0000000    0.0000000    0.0000000  
H   -3.0095934   -0.0070550    0.4807527  
H    0.2829606    0.0011412   -4.0053124  
H    3.1967352    0.0073912   -1.8949040  
C   -6.8847322   -0.0174151    0.6986590  
C   -5.5715455   -0.0147318    0.3713779  
C   -5.5475302   -0.0128682   -1.0832425  
C   -6.9721503   -0.0149492   -1.4795207  
N   -7.7607084   -0.0175371   -0.4392515  
C   -7.3784551   -0.0139130   -2.8579261  
C   -6.4057813   -0.0105444   -3.7977285  
O   -6.6406155   -0.0092269   -5.1209411  
C   -4.9592054   -0.0080059   -3.4295260  
O   -4.1279720   -0.0051047   -4.3374155  
C   -4.5679378   -0.0091758   -2.0086698  
H   -4.7238674   -0.0140055    1.0350923  
H   -8.4267225   -0.0156905   -3.1187765  
H   -5.7562741   -0.0067510   -5.5297043  
C   -4.9839440   -0.0194416    4.6196919  
C   -6.0501875   -0.0218731    5.4531769  
C   -7.2113749   -0.0225846    4.5767386  
C   -6.6467863   -0.0201815    3.2100570  
N   -5.3415539   -0.0184131    3.2289044  
C   -7.4830318   -0.0201234    2.0413917  
C   -8.8224150   -0.0227532    2.2294882  
O   -9.7207078   -0.0230213    1.2299334  
C   -9.4226443   -0.0255919    3.5961907  
O  -10.6498150   -0.0277786    3.6924612  
C   -8.5436872   -0.0255498    4.7791362  
H   -6.0488792   -0.0231301    6.5297791  
H  -10.5872000   -0.0251784    1.6752862  
H   -9.0175997   -0.0277685    5.7515727  
H   -3.9374455   -0.0182324    4.8801009  
C    2.5528530    2.1414826    2.8079335  
C    2.0663498    1.7338582    4.0032312  
C    0.9804344    0.8229586    3.6752840  
C    0.9495562    0.7966882    2.1971295  
N    1.8690446    1.5676019    1.6831036  
C    0.0000000    0.0000000    1.4700000  
C   -0.8785127   -0.7372425    2.1869543  
O   -1.8187535   -1.5261249    1.6395491  
C   -0.8723269   -0.7321790    3.6796354  
O   -1.7010379   -1.4274584    4.2670412  
C    0.1115397    0.0933559    4.4024240  
H    2.4028853    2.0163452    4.9860947  
H   -2.2861435   -1.9184361    2.3990168  
H    0.0832434    0.0693689    5.4835595  
H    3.3664920    2.8238276    2.6198634  
