62

C    1.9074101   -2.1157065   -5.2171229  
C    1.7366746   -1.6153233   -6.4871361  
C    0.6103620   -0.7412452   -6.4423316  
C    0.1310739   -0.7480686   -5.1073554  
N    0.9400186   -1.5942805   -4.3903116  
C   -0.9736307    0.0040462   -4.6965764  
C   -1.6058314    0.7773675   -5.6507639  
O   -2.6892511    1.5315492   -5.3037404  
C   -1.1427651    0.7971174   -6.9879240  
O   -1.8787377    1.6162795   -7.8189836  
C   -0.0531734    0.0551806   -7.3939360  
H    2.3479761   -1.8521275   -7.3410847  
H    0.8493703   -1.7919001   -3.4101534  
H   -2.9736295    1.9867684   -6.1069649  
H   -1.5003174    1.5722378   -8.7024217  
H    2.6418342   -2.8044012   -4.8359684  
C    1.1188640    0.0008221   -0.8003812  
C    0.0000000    0.0000000    0.0000000  
C   -1.1323863    0.0008899   -0.8673529  
C   -0.6382668    0.0019679   -2.1969279  
N    0.7324010    0.0038481   -2.1202242  
C   -1.4770922    0.0027316   -3.3154806  
C   -2.8395480    0.0020942   -3.0876856  
O   -3.7039211    0.0024421   -4.1440339  
C   -3.3517872    0.0013929   -1.7684323  
O   -4.7300499    0.0012365   -1.7073114  
C   -2.5248544    0.0009122   -0.6644814  
H    1.3576308   -0.0056168   -2.9057049  
H   -4.5940044    0.0021827   -3.7685121  
H   -4.9934605    0.0007257   -0.7819900  
H   -2.9462578    0.0005602    0.3339670  
H    2.1619894    0.0009355   -0.5342074  
C    1.4667595   -2.9225065  -10.3414135  
C    0.9910738   -2.3779274   -9.1974133  
C    0.8257567   -0.9636409   -9.4956815  
C    1.2606823   -0.8260609  -10.9022716  
N    1.6374727   -1.9710227  -11.4033516  
C    1.2478760    0.4398531  -11.5822601  
C    0.8196641    1.5191902  -10.8887173  
O    0.7552819    2.7612712  -11.3977666  
C    0.3739820    1.4125610   -9.4680989  
O   -0.0031845    2.4365094   -8.8984537  
C    0.3964706    0.1029013   -8.7926654  
H    0.7785263   -2.8746269   -8.2661840  
H    1.5714215    0.5113238  -12.6104231  
H    0.4141699    3.3105335  -10.6689955  
H    1.7204176   -3.9534023  -10.5308478  
C    2.5528530    2.1414826    2.8079335  
C    2.0663498    1.7338582    4.0032312  
C    0.9804344    0.8229586    3.6752840  
C    0.9495562    0.7966882    2.1971295  
N    1.8690446    1.5676019    1.6831036  
C    0.0000000    0.0000000    1.4700000  
C   -0.8785127   -0.7372425    2.1869543  
O   -1.8187535   -1.5261249    1.6395491  
C   -0.8723269   -0.7321790    3.6796354  
O   -1.7010379   -1.4274584    4.2670412  
C    0.1115397    0.0933559    4.4024240  
H    2.4028853    2.0163452    4.9860947  
H   -2.2861435   -1.9184361    2.3990168  
H    0.0832434    0.0693689    5.4835595  
H    3.3664920    2.8238276    2.6198634  
