60

C    3.2798085    0.0005856   -1.4499646  
C    2.5571146    0.0005565   -2.5996553  
C    1.1637436    0.0001548   -2.2210360  
C    1.1336964   -0.0000200   -0.7459468  
N    2.4483512   -0.0001429   -0.3402719  
C    0.0000000    0.0000000    0.0000000  
C   -1.2757371   -0.0000187   -0.6964415  
O   -2.3524597   -0.0000640   -0.1142312  
C   -1.2676493   -0.0000873   -2.2584081  
O   -2.3355761   -0.0004101   -2.8557295  
C    0.0181561    0.0001759   -2.9516296  
H    2.9547354    0.0006074   -3.5989104  
H    2.7563628    0.0012823    0.6148064  
C    4.7390846    0.0009612   -1.2727278  
C    5.7159792    0.0017141   -2.2159942  
C    6.9782062    0.0017425   -1.5148385  
C    6.6542741    0.0009094   -0.0754434  
N    5.2807307    0.0008646    0.0037357  
C    7.5764448    0.0002870    0.9201990  
C    8.9818048    0.0006748    0.5493907  
O    9.8878546    0.0002342    1.3724189  
C    9.3478552    0.0018086   -0.9690991  
O   10.5277196    0.0024502   -1.2934141  
C    8.2653761    0.0021244   -1.9499610  
H    5.5691192    0.0023771   -3.2813791  
H    7.3176380   -0.0004498    1.9699266  
H    8.5272595    0.0027054   -2.9993132  
H    4.7530487   -0.0011861    0.8573135  
C    0.8291949   -0.6854809   -5.2562366  
C    0.0139740    0.0003878   -4.4216236  
C   -0.8773489    0.7460787   -5.2968311  
C   -0.4474293    0.3823398   -6.6641086  
N    0.5525089   -0.4565929   -6.6466432  
C   -1.0903943    0.9189730   -7.8318869  
C   -2.1164672    1.7795502   -7.6423719  
O   -2.8066693    2.3561393   -8.6409740  
C   -2.5739393    2.1659016   -6.2750338  
O   -3.5141080    2.9544342   -6.1774641  
C   -1.8981893    1.6018691   -5.0930214  
H   -0.7553189    0.6359275   -8.8190643  
H   -3.4699009    2.9130227   -8.1947034  
H   -2.2596568    1.9067676   -4.1200833  
H    1.6314372   -1.3578974   -4.9969352  
C    0.8576279    0.7185626    2.2703808  
C    0.0000000    0.0000000    1.4700000  
C   -0.8668858   -0.7285659    2.3373528  
C   -0.4876752   -0.4117774    3.6669281  
N    0.5635254    0.4678311    3.5902241  
C   -1.1297612   -0.9515493    4.7854808  
C   -2.1738724   -1.8268314    4.5576857  
O   -2.8357962   -2.3827064    5.6140350  
C   -2.5667212   -2.1555554    3.2384331  
O   -3.6226318   -3.0413663    3.1773122  
C   -1.9335634   -1.6236449    2.1344818  
H    1.0363952    0.8769718    4.3757045  
H   -0.8454472   -0.7142436    5.8013813  
H   -3.5178062   -2.9546422    5.2385129  
H   -3.8247440   -3.2102924    2.2519915  
H   -2.2566033   -1.8942483    1.1360343  
H    1.6567807    1.3889844    2.0042067  
