58

C   -1.0965489    0.0022444   -0.8010316  
C    0.0000000    0.0000000    0.0000000  
C    1.1546538   -0.0026532   -0.8669508  
C    0.6372003   -0.0017350   -2.2486280  
N   -0.7342859    0.0008601   -2.1395018  
C    1.4147721   -0.0032061   -3.3608712  
C    2.8576001   -0.0060978   -3.1854449  
O    3.6427720   -0.0076576   -4.1244888  
C    3.4275768   -0.0073672   -1.7311654  
O    4.6406725   -0.0101061   -1.5710036  
C    2.4891815   -0.0052939   -0.6116730  
H    2.8919055   -0.0059852    0.3920872  
H   -2.1388220    0.0045762   -0.5261662  
H   -1.3735808    0.0035913   -2.9130273  
C    0.8712826   -0.0020623   -4.7267106  
C   -0.4275879    0.0005450   -5.1068522  
C   -0.3927372    0.0005281   -6.5612544  
C    1.0467481   -0.0022225   -6.8995719  
N    1.7925756   -0.0038308   -5.8282514  
C    1.5084831   -0.0031080   -8.2604121  
C    0.5746238   -0.0017155   -9.2387988  
O    0.8627955   -0.0023100  -10.5514290  
C   -0.8856642    0.0006934   -8.9294227  
O   -1.6794896    0.0019877   -9.8701987  
C   -1.3340921    0.0016052   -7.5255575  
H   -1.3014231    0.0021767   -4.4779752  
H   -0.0042864   -0.0009955  -10.9956357  
H   -2.4004290    0.0032431   -7.3434791  
C    3.9271988   -0.6932272   -7.9247450  
C    2.9481723   -0.0055778   -8.5573784  
C    3.6296347    0.7387970   -9.6052406  
C    5.0544790    0.3724267   -9.4563242  
N    5.2350285   -0.4667896   -8.4729079  
C    6.0717400    0.9071315  -10.3190849  
C    5.6831933    1.7683783  -11.2868756  
O    6.5253326    2.3433629  -12.1622245  
C    4.2528421    2.1573701  -11.4627817  
O    3.9713785    2.9463775  -12.3647051  
C    3.2281134    1.5952815  -10.5650560  
H    7.1053585    0.6221784  -10.1873879  
H    5.9569046    2.9012701  -12.7232786  
H    2.2032311    1.9020699  -10.7254539  
H    3.8316821   -1.3654237   -7.0868892  
C    0.8175213    0.6860729    2.3021913  
C    0.0000000    0.0000000    1.4700000  
C   -0.8887526   -0.7456559    2.3478473  
C   -0.4549825   -0.3816753    3.7138435  
N    0.5448156    0.4573574    3.6934124  
C   -1.0945674   -0.9182058    4.8835240  
C   -2.1210866   -1.7789155    4.6970523  
O   -2.8083856   -2.3554314    5.6976972  
C   -2.5824069   -2.1655116    3.3310774  
O   -3.5227682   -2.9541547    3.2362962  
C   -1.9100805   -1.6015804    2.1470656  
H   -0.7567140   -0.6349833    5.8697035  
H   -3.4728268   -2.9124471    5.2533954  
H   -2.2742832   -1.9066565    1.1752040  
H    1.6189533    1.3585343    2.0405121  
