58

C   -3.2573665   -0.0002836   -1.5109386  
C   -2.5379465   -0.0002775   -0.3591966  
C   -1.1435037   -0.0002352   -0.7338501  
C   -1.1092601   -0.0001878   -2.2088478  
N   -2.4227552   -0.0006191   -2.6182611  
C    0.0265540    0.0002570   -2.9515662  
C    1.3003046    0.0004937   -2.2514972  
O    2.3786792    0.0008335   -2.8306420  
C    1.2877729    0.0001963   -0.6895602  
O    2.3539955    0.0000853   -0.0892027  
C    0.0000000    0.0000000    0.0000000  
H   -2.9384088   -0.0004824    0.6389232  
H    0.0296304    0.0004136   -4.0327228  
H   -2.7280484    0.0008586   -3.5742115  
C   -6.6174605   -0.0028031    1.3537068  
C   -5.3857490   -0.0023010    0.7819015  
C   -5.5854749   -0.0013085   -0.6481138  
C   -7.0449748   -0.0012439   -0.8641003  
N   -7.6133362   -0.0025734    0.3888377  
C   -7.6418659   -0.0000270   -2.0828801  
C   -6.7899758    0.0010821   -3.2605116  
O   -7.2316297    0.0021555   -4.4021077  
C   -5.2415211    0.0007827   -3.0553444  
O   -4.5141873    0.0014019   -4.0393394  
C   -4.7161327   -0.0002898   -1.6923267  
H   -4.4446709   -0.0027752    1.3024643  
H   -8.7143810    0.0001273   -2.2193395  
H   -8.5996523   -0.0013082    0.5738412  
C   -4.3596889   -0.0036677    5.1964803  
C   -4.6370720   -0.0036434    3.8718526  
C   -6.0897444   -0.0043355    3.7928380  
C   -6.5396171   -0.0048323    5.2014538  
N   -5.5299151   -0.0043632    6.0287938  
C   -7.9324038   -0.0055341    5.5553346  
C   -8.8347494   -0.0053421    4.5478098  
O  -10.1658980   -0.0059404    4.7324294  
C   -8.4121022   -0.0044713    3.1161918  
O   -9.2879060   -0.0044661    2.2512131  
C   -6.9774636   -0.0038056    2.7789426  
H   -3.9417733   -0.0031192    3.0498824  
H   -8.2327123   -0.0060927    6.5929884  
H  -10.5409238   -0.0055811    3.8332585  
H   -3.3919455   -0.0032504    5.6723443  
C    2.3971438    2.0127888    3.1728260  
C    1.9431056    1.6308205    1.9564670  
C    0.8496017    0.7127664    2.2356185  
C    0.7794028    0.6545384    3.7115134  
N    1.6840587    1.4146091    4.2663826  
C   -0.1885723   -0.1578550    4.3957118  
C   -1.0476298   -0.8789867    3.6398520  
O   -2.0015663   -1.6796266    4.1448486  
C   -1.0022026   -0.8410666    2.1483229  
O   -1.8147390   -1.5232959    1.5241687  
C    0.0000000    0.0000000    1.4700000  
H    2.3054237    1.9346118    0.9892483  
H   -0.2170646   -0.1815267    5.4753125  
H   -2.4487139   -2.0549881    3.3649027  
H    3.2048689    2.6911772    3.3971983  
