58

C    3.2573667   -0.0002917   -1.5109387  
C    2.5379466   -0.0001708   -0.3591965  
C    1.1435039    0.0000333   -0.7338496  
C    1.1092602   -0.0000079   -2.2088478  
N    2.4227556    0.0001913   -2.6182614  
C   -0.0265539   -0.0002519   -2.9515658  
C   -1.3003042   -0.0002636   -2.2514974  
O   -2.3786792   -0.0004127   -2.8306423  
C   -1.2877729    0.0000313   -0.6895599  
O   -2.3539955    0.0003308   -0.0892027  
C    0.0000000    0.0000000    0.0000000  
H    2.9384091   -0.0000368    0.6389234  
H   -0.0296299   -0.0004080   -4.0327229  
H    4.3270391   -0.0004762   -1.6439451  
C    5.7040760   -2.1117448   -4.6322123  
C    5.5266106   -1.6490474   -5.8965271  
C    4.3947065   -0.7532596   -5.8619888  
C    3.9239241   -0.7318311   -4.4638842  
N    4.7594826   -1.5762332   -3.7698261  
C    2.8699633   -0.0020522   -4.0185829  
C    2.1511670    0.8167852   -4.9805456  
O    1.1885412    1.5096475   -4.6779003  
C    2.6322106    0.8091512   -6.4665954  
O    2.0346721    1.4943476   -7.2855669  
C    3.7812694   -0.0180907   -6.8260217  
H    6.1207052   -1.9060837   -6.7553617  
H    6.4453131   -2.7990531   -4.2579595  
H    4.6944954   -1.7716423   -2.7876661  
C    4.2255542   -0.0174839   -8.2272752  
C    5.2541722   -0.6946941   -8.7994694  
C    5.2612565   -0.3445520  -10.2002502  
C    4.1444588    0.5989471  -10.3986514  
N    3.5566267    0.7550270   -9.1645598  
C    3.8170468    1.1635272  -11.5885061  
C    4.6179122    0.8187544  -12.7513819  
O    4.4030359    1.2743499  -13.8669821  
C    5.8053643   -0.1786542  -12.5644608  
O    6.4864924   -0.4766425  -13.5363286  
C    6.0605379   -0.7212541  -11.2324233  
H    5.9306377   -1.3633619   -8.2975811  
H    2.9939007    1.8534392  -11.7124469  
H    6.8847157   -1.4110440  -11.1114069  
H    2.7650046    1.3415137   -8.9737304  
C    2.5528530    2.1414826    2.8079335  
C    2.0663498    1.7338582    4.0032312  
C    0.9804344    0.8229586    3.6752840  
C    0.9495562    0.7966882    2.1971295  
N    1.8690446    1.5676019    1.6831036  
C    0.0000000    0.0000000    1.4700000  
C   -0.8785127   -0.7372425    2.1869543  
O   -1.8187535   -1.5261249    1.6395491  
C   -0.8723269   -0.7321790    3.6796354  
O   -1.7010379   -1.4274584    4.2670412  
C    0.1115397    0.0933559    4.4024240  
H    2.4028853    2.0163452    4.9860947  
H   -2.2861435   -1.9184361    2.3990168  
H    0.0832434    0.0693689    5.4835595  
H    3.3664920    2.8238276    2.6198634  
