60

C    0.0000000    0.0000000    0.0000000  
C    1.0521666   -0.0011901   -0.8862345  
C    0.4917216   -0.0011955   -2.1979134  
C   -0.9187431    0.0003149   -2.0478682  
N   -1.1833167   -0.0009411   -0.7007910  
C   -1.7951706    0.0010353   -3.1372088  
C   -1.2375843    0.0005228   -4.4010420  
O   -2.0474221    0.0015365   -5.4997576  
C    0.1673574   -0.0013564   -4.5711963  
O    0.5673516   -0.0020683   -5.8915555  
C    1.0325767   -0.0023410   -3.4969894  
H    2.0953060   -0.0030649   -0.6200564  
H   -2.0989775    0.0102373   -0.2891820  
H   -1.4634896    0.0006502   -6.2693588  
H    1.5290702   -0.0033149   -5.9180051  
H    2.1042146   -0.0039607   -3.6584460  
C   -3.2578658    0.0024043   -2.9908500  
C   -3.9809874    0.0031290   -1.8468773  
C   -5.3695594    0.0043917   -2.2808874  
C   -5.2983973    0.0043646   -3.7578844  
N   -4.0631146    0.0031214   -4.1798618  
C   -6.4794717    0.0054036   -4.5765101  
C   -7.6771923    0.0060343   -3.9481800  
O   -8.8597161    0.0070297   -4.5866766  
C   -7.7819057    0.0057086   -2.4591548  
O   -8.9049096    0.0064469   -1.9550871  
C   -6.5558062    0.0046825   -1.6414736  
H   -3.6170581    0.0027521   -0.8336490  
H   -6.3979234    0.0055647   -5.6536635  
H   -9.5255218    0.0072474   -3.8754417  
C   -4.3771379    2.1101762    1.5371486  
C   -5.0537293    1.6456279    2.6190422  
C   -6.0738934    0.7510053    2.1253298  
C   -5.9351656    0.7322774    0.6565908  
N   -4.8893107    1.5769715    0.3640706  
C   -6.7169761    0.0042449   -0.1803356  
C   -7.7651548   -0.8154282    0.4044659  
O   -8.5215585   -1.5068619   -0.2649172  
C   -7.9302910   -0.8106455    1.9576924  
O   -8.8094940   -1.4965676    2.4614514  
C   -7.0266481    0.0148941    2.7550415  
H   -4.8603616    1.9007065    3.6457637  
H   -7.1474706    0.0124762    3.8298066  
H   -3.5475908    2.7973569    1.4981059  
H   -4.5490543    1.7740172   -0.5592094  
C    3.3321173   -0.0004715    2.8079335  
C    2.6974184   -0.0000116    4.0032312  
C    1.2800439    0.0002118    3.6752840  
C    1.2395035   -0.0000644    2.1971295  
N    2.4394063   -0.0005460    1.6831036  
C    0.0000000    0.0000000    1.4700000  
C   -1.1468701   -0.0000635    2.1869543  
O   -2.3742202   -0.0000073    1.6395491  
C   -1.1388768   -0.0001607    3.6796354  
O   -2.2206231   -0.0000905    4.2670412  
C    0.1454524   -0.0001816    4.4024240  
H    3.1367986    0.0000651    4.9860947  
H   -2.9844344   -0.0001026    2.3990168  
H    0.1083576   -0.0003682    5.4835595  
H    4.3940039   -0.0007619    2.6198634  
