58

C   -0.3197117    3.2416399   -1.5109369  
C   -0.2491568    2.5256872   -0.3591949  
C   -0.1123706    1.1379700   -0.7338497  
C   -0.1089652    1.1038965   -2.2088471  
N   -0.2382007    2.4110191   -2.6182602  
C    0.0028598   -0.0263991   -2.9515658  
C    0.1280038   -1.2939875   -2.2514982  
O    0.2340916   -2.3671312   -2.8306431  
C    0.1264791   -1.2815460   -0.6895611  
O    0.2309266   -2.3426409   -0.0892039  
C    0.0000000    0.0000000    0.0000000  
H   -0.2886315    2.9241989    0.6389249  
H    0.0033170   -0.0294444   -4.0327228  
H   -0.4246126    4.3061561   -1.6439430  
C    1.4474893    5.8433750   -4.9077631  
C    1.1449373    5.0067813   -3.8878842  
C    0.3271180    3.9640161   -4.4881439  
C    0.2339613    4.3387673   -5.9155425  
N    0.8888131    5.4395264   -6.1675100  
C   -0.5021048    3.5481290   -6.8632685  
C   -1.1168287    2.4335629   -6.4058944  
O   -1.8374458    1.6031135   -7.1786208  
C   -1.0410890    2.0285866   -4.9711753  
O   -1.6252477    1.0018588   -4.6250407  
C   -0.2799016    2.8562843   -4.0185813  
H    1.4403333    5.0872931   -2.8557336  
H   -0.5535857    3.8457932   -7.9004071  
H   -2.1464570    0.9058952   -6.5723601  
C    2.2546350    7.0711224   -4.8624715  
C    2.8781205    7.6470754   -3.8024624  
C    3.5333458    8.8359442   -4.2945049  
C    3.2383419    8.9059217   -5.7384115  
N    2.4597032    7.8070543   -6.0196624  
C    3.6788517    9.8866759   -6.5665288  
C    4.4983873   10.9437687   -5.9978022  
O    4.9434293   11.8713771   -6.6609623  
C    4.8234870   10.8895894   -4.4709819  
O    5.5127988   11.7738913   -3.9809604  
C    4.2914217    9.7820277   -3.6810040  
H    2.8790865    7.2807860   -2.7913022  
H    3.4509117    9.9194212   -7.6228811  
H    4.5209344    9.7519549   -2.6245269  
H    2.0947591    7.5764242   -6.9255727  
C    2.3971438    2.0127888    3.1728260  
C    1.9431056    1.6308205    1.9564670  
C    0.8496017    0.7127664    2.2356185  
C    0.7794028    0.6545384    3.7115134  
N    1.6840587    1.4146091    4.2663826  
C   -0.1885723   -0.1578550    4.3957118  
C   -1.0476298   -0.8789867    3.6398520  
O   -2.0015663   -1.6796266    4.1448486  
C   -1.0022026   -0.8410666    2.1483229  
O   -1.8147390   -1.5232959    1.5241687  
C    0.0000000    0.0000000    1.4700000  
H    2.3054237    1.9346118    0.9892483  
H   -0.2170646   -0.1815267    5.4753125  
H   -2.4487139   -2.0549881    3.3649027  
H    3.2048689    2.6911772    3.3971983  
