58

C   -3.2573668   -0.0016218   -1.5109375  
C   -2.5379468   -0.0013202   -0.3591956  
C   -1.1435038   -0.0007050   -0.7338497  
C   -1.1092609   -0.0006434   -2.2088472  
N   -2.4227561   -0.0016144   -2.6182605  
C    0.0265523    0.0002680   -2.9515662  
C    1.3003029    0.0010281   -2.2514981  
O    2.3786772    0.0018109   -2.8306424  
C    1.2877717    0.0007255   -0.6895608  
O    2.3539959    0.0010525   -0.0892037  
C    0.0000000    0.0000000    0.0000000  
H   -2.9384082   -0.0016896    0.6389242  
H    0.0296279    0.0004260   -4.0327230  
H   -2.7280504   -0.0002621   -3.5742112  
C   -6.5597219   -0.0030331    1.3835039  
C   -7.6114508   -0.0035607    0.5244693  
C   -7.0637929   -0.0031632   -0.8115345  
C   -5.5962694   -0.0023843   -0.6593366  
N   -5.3559133   -0.0019432    0.6953288  
C   -4.7161329   -0.0022274   -1.6923248  
C   -5.2498356   -0.0026424   -3.0442482  
O   -4.5392148   -0.0024809   -4.0409022  
C   -6.8008633   -0.0032161   -3.2289581  
O   -7.2618459   -0.0032623   -4.3624288  
C   -7.6474464   -0.0036171   -2.0385170  
H   -8.7203347   -0.0042189   -2.1750239  
H   -6.5627881   -0.0031321    2.4614093  
H   -4.4461405   -0.0029395    1.1188362  
C  -10.0777963    2.0081755    3.6444850  
C   -9.0151502    1.6266453    2.8982960  
C   -9.5607468    0.7084020    1.9105442  
C  -11.0065999    0.6495967    2.2149041  
N  -11.3156291    1.4095193    3.2302901  
C  -11.9125222   -0.1631336    1.4507965  
C  -11.3975152   -0.8840359    0.4288359  
O  -12.1264947   -1.6849422   -0.3668899  
C   -9.9427746   -0.8455343    0.0965614  
O   -9.5434952   -1.5275817   -0.8471586  
C   -9.0339154   -0.0041305    0.8952726  
H   -7.9879349    1.9308383    3.0049277  
H  -12.9643891   -0.1872259    1.6955510  
H  -11.4844135   -2.0600346   -0.9963268  
H  -10.0914344    2.6865367    4.4827055  
C    2.3971438    2.0127888    3.1728260  
C    1.9431056    1.6308205    1.9564670  
C    0.8496017    0.7127664    2.2356185  
C    0.7794028    0.6545384    3.7115134  
N    1.6840587    1.4146091    4.2663826  
C   -0.1885723   -0.1578550    4.3957118  
C   -1.0476298   -0.8789867    3.6398520  
O   -2.0015663   -1.6796266    4.1448486  
C   -1.0022026   -0.8410666    2.1483229  
O   -1.8147390   -1.5232959    1.5241687  
C    0.0000000    0.0000000    1.4700000  
H    2.3054237    1.9346118    0.9892483  
H   -0.2170646   -0.1815267    5.4753125  
H   -2.4487139   -2.0549881    3.3649027  
H    3.2048689    2.6911772    3.3971983  
