58

C    2.0267553   -0.0000384   -8.1984929  
C    3.0930021    0.0010852   -7.3650080  
C    4.2541882    0.0009500   -8.2414487  
C    3.6895959   -0.0004610   -9.6081296  
N    2.3843622   -0.0009647   -9.5892799  
C    4.5258390   -0.0009548  -10.7767974  
C    5.8652240    0.0003100  -10.5887021  
O    6.7635159    0.0000272  -11.5882575  
C    6.4654582    0.0021218   -9.2219989  
O    7.6926310    0.0030825   -9.1257309  
C    5.5865035    0.0025524   -8.0390522  
H    3.0916965    0.0019948   -6.2884058  
H    4.0861727   -0.0021974  -11.7635093  
H    7.6300104    0.0011966  -11.1429065  
H    6.0604184    0.0039948   -7.0666161  
C   -0.2963294   -0.0005341   -4.3948471  
C    0.7407570   -0.0008425   -5.2643479  
C    0.1250904   -0.0009651   -6.5824732  
C   -1.3291515   -0.0008023   -6.3145850  
N   -1.5822797   -0.0004687   -5.0339928  
C   -2.2982577   -0.0008134   -7.3756785  
C   -1.8356081   -0.0005906   -8.6466189  
O   -2.6263942   -0.0005804   -9.7332175  
C   -0.3739289   -0.0003760   -8.9493653  
O   -0.0244437   -0.0003029  -10.1296538  
C    0.6002573   -0.0004128   -7.8435231  
H    1.7935284   -0.0008807   -5.0390753  
H   -3.3548545   -0.0008989   -7.1509265  
H   -2.0105061   -0.0003704  -10.4880924  
C    3.1301143   -0.0010313   -1.7028257  
C    2.5367765   -0.0002767   -0.4864669  
C    1.1089900    0.0001027   -0.7656184  
C    1.0177864   -0.0004150   -2.2415133  
N    2.1993571   -0.0011613   -2.7963824  
C   -0.2459220   -0.0002879   -2.9257116  
C   -1.3675327   -0.0000606   -2.1698519  
O   -2.6129319    0.0000866   -2.6748482  
C   -1.3083588    0.0000910   -0.6783229  
O   -2.3693264    0.0004206   -0.0541685  
C    0.0000000    0.0000000    0.0000000  
H    3.0096014   -0.0001008    0.4807517  
H   -3.1967445    0.0002093   -1.8949025  
H    4.1849272   -0.0015113   -1.9271980  
C    2.5528530    2.1414826    2.8079335  
C    2.0663498    1.7338582    4.0032312  
C    0.9804344    0.8229586    3.6752840  
C    0.9495562    0.7966882    2.1971295  
N    1.8690446    1.5676019    1.6831036  
C    0.0000000    0.0000000    1.4700000  
C   -0.8785127   -0.7372425    2.1869543  
O   -1.8187535   -1.5261249    1.6395491  
C   -0.8723269   -0.7321790    3.6796354  
O   -1.7010379   -1.4274584    4.2670412  
C    0.1115397    0.0933559    4.4024240  
H    2.4028853    2.0163452    4.9860947  
H   -2.2861435   -1.9184361    2.3990168  
H    0.0832434    0.0693689    5.4835595  
H    3.3664920    2.8238276    2.6198634  
