62

C    3.3041278    0.0001176   -1.5420426  
C    2.5845376   -0.0004780   -0.3695850  
C    1.2040010   -0.0000010   -0.7283582  
C    1.1422380    0.0006034   -2.1454369  
N    2.4348649    0.0026106   -2.6077462  
C   -0.0655171    0.0008790   -2.8497919  
C   -1.2321763    0.0002319   -2.1101404  
O   -2.4392806    0.0001139   -2.7472527  
C   -1.1911205   -0.0000009   -0.6955268  
O   -2.4371523   -0.0002323   -0.1032870  
C    0.0000000    0.0000000    0.0000000  
H    3.0031538   -0.0000658    0.6222586  
H   -0.1193539    0.0014835   -3.9297472  
H   -3.1132980   -0.0000655   -2.0551794  
H   -2.3200280   -0.0004072    0.8516406  
H    4.3686630    0.0004070   -1.7024285  
C    5.6718709   -2.1292830   -4.7374648  
C    5.4024595   -1.6450693   -5.9966001  
C    4.2795497   -0.7737667   -5.8761620  
C    3.9039380   -0.7655399   -4.5083998  
N    4.7686536   -1.6005167   -3.8453024  
C    2.8310675   -0.0116224   -4.0232746  
C    2.1246927    0.7480610   -4.9354655  
O    1.0681536    1.5033222   -4.5155604  
C    2.4839134    0.7526858   -6.3043176  
O    1.6833263    1.5594230   -7.0863532  
C    3.5420417    0.0089611   -6.7836551  
H    5.9474672   -1.8906002   -6.8919633  
H    4.7540942   -1.7863155   -2.8587691  
H    0.7213554    1.9477935   -5.3000613  
H    1.9931430    1.5056026   -7.9955950  
H    3.7934499    0.0324026   -7.8375628  
C    6.7152132   -3.0602951   -4.2840842  
C    7.6719238   -3.6653053   -5.0258701  
C    8.4266510   -4.4717594   -4.0790235  
C    7.7711877   -4.2278507   -2.7761570  
N    6.7672504   -3.4013442   -2.8901139  
C    8.2281942   -4.8530970   -1.5656616  
C    9.2914249   -5.6845259   -1.6528331  
O    9.8234852   -6.3350451   -0.6041304  
C    9.9741513   -5.9512576   -2.9531793  
O   10.9361482   -6.7192141   -2.9582118  
C    9.4865272   -5.2977915   -4.1808311  
H    7.8441483   -3.5754998   -6.0848081  
H    7.7303729   -4.6565848   -0.6273296  
H   10.5633584   -6.8462342   -0.9788649  
H   10.0083514   -5.5172823   -5.1026513  
C    0.0000000    0.0000000    1.4700000  
C    1.0662921    0.0000102    2.3034270  
C    0.4961870   -0.0000064    3.6418889  
C   -0.9663858    0.0000850    3.4240247  
N   -1.2632773    0.0000084    2.1528658  
C   -1.8985362    0.0000517    4.5177257  
C   -1.3925775   -0.0004564    5.7720543  
O   -2.1456383   -0.0005410    6.8851312  
C    0.0786232   -0.0009323    6.0245000  
O    0.4683759   -0.0012588    7.1921102  
C    1.0143166   -0.0008442    4.8859032  
H    2.1107198   -0.0000632    2.0421868  
H   -2.9622183    0.0003270    4.3293377  
H   -1.5042274   -0.0009692    7.6184419  
H    2.0724152   -0.0013148    5.1109744  
