58

C   -3.2798084   -0.0018605   -1.4499647  
C   -2.5571148   -0.0015504   -2.5996554  
C   -1.1637434   -0.0006070   -2.2210361  
C   -1.1336963   -0.0004206   -0.7459471  
N   -2.4483510   -0.0008089   -0.3402723  
C    0.0000000    0.0000000    0.0000000  
C    1.2757367    0.0005147   -0.6964425  
O    2.3524597    0.0009787   -0.1142323  
C    1.2676491    0.0005804   -2.2584088  
O    2.3355763    0.0013184   -2.8557306  
C   -0.0181567   -0.0001827   -2.9516299  
H   -2.9547354   -0.0017559   -3.5989102  
H   -0.0150793   -0.0003372   -4.0331635  
H   -2.7563618   -0.0023540    0.6148064  
C   -4.7390841   -0.0028037   -1.2727278  
C   -5.6949928   -0.0037645   -2.2307553  
C   -6.9549534   -0.0043842   -1.5034314  
C   -6.5623368   -0.0037653   -0.0777962  
N   -5.2646563   -0.0027573    0.0636666  
C   -7.5356703   -0.0040700    0.9794209  
C   -8.8418522   -0.0045639    0.6283871  
O   -9.8560134   -0.0048997    1.5101570  
C   -9.2698379   -0.0048238   -0.8016441  
O  -10.4759222   -0.0053984   -1.0477756  
C   -8.2523633   -0.0045465   -1.8677914  
H   -5.5615844   -0.0039309   -3.2990613  
H   -7.2204094   -0.0038095    2.0126295  
H  -10.6613089   -0.0051921    0.9618401  
C   -8.7293354   -0.0046641   -3.2582579  
C   -8.0099617   -0.0047109   -4.4100290  
C   -8.9583897   -0.0047911   -5.4987528  
C  -10.2988895   -0.0047579   -4.8824313  
N  -10.0905591   -0.0050796   -3.5224725  
C  -11.4646088   -0.0044162   -5.5772713  
C  -11.3943114   -0.0042835   -7.0290260  
O  -12.3878400   -0.0040406   -7.7440102  
C   -9.9852108   -0.0045678   -7.7029999  
O   -9.9134730   -0.0047658   -8.9245218  
C   -8.8005952   -0.0046485   -6.8482850  
H   -6.9373354   -0.0048739   -4.4880451  
H  -12.4375183   -0.0042680   -5.1057228  
H   -7.8286933   -0.0046402   -7.3227647  
H  -10.8156699   -0.0035830   -2.8287441  
C    2.3971438    2.0127888    3.1728260  
C    1.9431056    1.6308205    1.9564670  
C    0.8496017    0.7127664    2.2356185  
C    0.7794028    0.6545384    3.7115134  
N    1.6840587    1.4146091    4.2663826  
C   -0.1885723   -0.1578550    4.3957118  
C   -1.0476298   -0.8789867    3.6398520  
O   -2.0015663   -1.6796266    4.1448486  
C   -1.0022026   -0.8410666    2.1483229  
O   -1.8147390   -1.5232959    1.5241687  
C    0.0000000    0.0000000    1.4700000  
H    2.3054237    1.9346118    0.9892483  
H   -0.2170646   -0.1815267    5.4753125  
H   -2.4487139   -2.0549881    3.3649027  
H    3.2048689    2.6911772    3.3971983  
