64

C    3.3003558    0.0005277   -1.4738965  
C    2.5232833    0.0003499   -2.6090730  
C    1.1623222   -0.0001318   -2.1820092  
C    1.1711891    0.0000584   -0.7636132  
N    2.4852306   -0.0014919   -0.3662342  
C    0.0000000    0.0000000    0.0000000  
C   -1.2020379    0.0000521   -0.6806485  
O   -2.3759245    0.0003495    0.0157732  
C   -1.2314636   -0.0005111   -2.0955515  
O   -2.5054372   -0.0008035   -2.6250194  
C   -0.0764493   -0.0007270   -2.8495195  
H    2.8919983   -0.0005617   -3.6205280  
H    2.8036262    0.0088181    0.5858683  
H   -3.0835632    0.0000348   -0.6418837  
H   -2.4360019   -0.0011525   -3.5845935  
H   -0.1304067   -0.0013419   -3.9319088  
C    6.5582239    0.0029729   -4.4647435  
C    7.6103908    0.0023861   -3.5785091  
C    7.0499451    0.0016139   -2.2668308  
C    5.6394797    0.0014822   -2.4168767  
N    5.3749078    0.0042717   -3.7639519  
C    4.7630518    0.0004756   -1.3275370  
C    5.3206374   -0.0007212   -0.0637039  
O    4.5107978   -0.0020884    1.0350105  
C    6.7255798   -0.0002355    0.1064516  
O    7.1255739   -0.0011496    1.4268105  
C    7.5908002    0.0010306   -0.9677543  
H    8.6535308    0.0036057   -3.8446851  
H    4.4592377   -0.0057078   -4.1755712  
H    5.0947313   -0.0024569    1.8046121  
H    8.0872931   -0.0007698    1.4532610  
H    6.5582248    0.0040135   -5.5412935  
C    9.9631860    0.7213634   -1.4770615  
C    9.0443948    0.0017445   -0.7487495  
C    9.7733509   -0.7270751    0.2371737  
C   11.1443948   -0.4093457    0.0605002  
N   11.2246328    0.4710439   -0.9897824  
C   12.1551259   -0.9490743    0.8616887  
C   11.7748411   -1.8252798    1.8595989  
O   12.7211172   -2.3811571    2.6711252  
C   10.4119799   -2.1549504    2.0512879  
O   10.1947571   -3.0416129    3.0856899  
C    9.4143612   -1.6230830    1.2610977  
H   12.0715515    0.8809340   -1.3400663  
H   13.2019050   -0.7110539    0.7320650  
H   12.2485199   -2.9538063    3.2891784  
H    9.2497529   -3.2111455    3.1475717  
H    8.3790909   -1.8944226    1.4315920  
H    9.8186423    1.3922780   -2.3064830  
C    2.3971438    2.0127888    3.1728260  
C    1.9431056    1.6308205    1.9564670  
C    0.8496017    0.7127664    2.2356185  
C    0.7794028    0.6545384    3.7115134  
N    1.6840587    1.4146091    4.2663826  
C   -0.1885723   -0.1578550    4.3957118  
C   -1.0476298   -0.8789867    3.6398520  
O   -2.0015663   -1.6796266    4.1448486  
C   -1.0022026   -0.8410666    2.1483229  
O   -1.8147390   -1.5232959    1.5241687  
C    0.0000000    0.0000000    1.4700000  
H    2.3054237    1.9346118    0.9892483  
H   -0.2170646   -0.1815267    5.4753125  
H   -2.4487139   -2.0549881    3.3649027  
H    3.2048689    2.6911772    3.3971983  
