62

C    3.3041280    0.0001177   -1.5420415  
C    2.5845373   -0.0004780   -0.3695841  
C    1.2040010   -0.0000008   -0.7283584  
C    1.1422390    0.0006037   -2.1454369  
N    2.4348650    0.0026109   -2.6077455  
C   -0.0655165    0.0008799   -2.8497918  
C   -1.2321762    0.0002325   -2.1101403  
O   -2.4392806    0.0001149   -2.7472532  
C   -1.1911194   -0.0000007   -0.6955272  
O   -2.4371520   -0.0002319   -0.1032873  
C    0.0000000    0.0000000    0.0000000  
H    3.0031532   -0.0000662    0.6222595  
H    2.7054644   -0.0071098   -3.5745250  
H   -0.1193533    0.0014845   -3.9297474  
H   -3.1132978   -0.0000646   -2.0551798  
H   -2.3200290   -0.0004070    0.8516399  
C    6.7370857   -0.0008256    1.2348688  
C    5.4910170   -0.0006934    0.6950653  
C    5.6537436    0.0002332   -0.7396312  
C    7.1071786    0.0006036   -0.9932397  
N    7.7077097    0.0003270    0.2446023  
C    7.6723934    0.0010656   -2.2270292  
C    6.7903730    0.0014338   -3.3822673  
O    7.2023965    0.0019211   -4.5348893  
C    5.2477335    0.0013035   -3.1371764  
O    4.4952294    0.0019171   -4.1020585  
C    4.7577228    0.0005127   -1.7610441  
H    4.5636975   -0.0010060    1.2397596  
H    7.0279692   -0.0014514    2.2727885  
H    8.6984744   -0.0010837    0.4040690  
C   10.0467001   -0.7175054   -1.7242262  
C    9.1253596    0.0012503   -2.4501662  
C    9.8510208    0.7302221   -3.4384048  
C   11.2227741    0.4134708   -3.2655231  
N   11.3065882   -0.4665074   -2.2151751  
C   12.2308620    0.9536032   -4.0697650  
C   11.8471532    1.8292142   -5.0668862  
O   12.7907460    2.3854486   -5.8812884  
C   10.4835317    2.1579070   -5.2548109  
O   10.2627742    3.0440718   -6.2888911  
C    9.4885215    1.6256410   -4.4616072  
H   12.1547750   -0.8757113   -1.8671623  
H   13.2781638    0.7163277   -3.9430379  
H   12.3160086    2.9575709   -6.4981889  
H    9.3174845    3.2129508   -6.3481428  
H    8.4525880    1.8962295   -4.6292485  
H    9.9049651   -1.3882344   -0.8941701  
C    0.0000000    0.0000000    1.4700000  
C    1.0662921    0.0000102    2.3034270  
C    0.4961870   -0.0000064    3.6418889  
C   -0.9663858    0.0000850    3.4240247  
N   -1.2632773    0.0000084    2.1528658  
C   -1.8985362    0.0000517    4.5177257  
C   -1.3925775   -0.0004564    5.7720543  
O   -2.1456383   -0.0005410    6.8851312  
C    0.0786232   -0.0009323    6.0245000  
O    0.4683759   -0.0012588    7.1921102  
C    1.0143166   -0.0008442    4.8859032  
H    2.1107198   -0.0000632    2.0421868  
H   -2.9622183    0.0003270    4.3293377  
H   -1.5042274   -0.0009692    7.6184419  
H    2.0724152   -0.0013148    5.1109744  
