60

C    1.1188649    0.0008221   -0.8003804  
C    0.0000000    0.0000000    0.0000000  
C   -1.1323857    0.0008896   -0.8673533  
C   -0.6382653    0.0019679   -2.1969282  
N    0.7324024    0.0038481   -2.1202234  
C   -1.4770903    0.0027316   -3.3154811  
C   -2.8395464    0.0020941   -3.0876863  
O   -3.7039188    0.0024421   -4.1440360  
C   -3.3517863    0.0013927   -1.7684336  
O   -4.7300487    0.0012365   -1.7073135  
C   -2.5248538    0.0009121   -0.6644827  
H    1.3576323   -0.0056167   -2.9057037  
H   -4.5940020    0.0021826   -3.7685144  
H   -4.9934599    0.0007260   -0.7819922  
H   -2.9462576    0.0005599    0.3339650  
H    2.1619893    0.0009354   -0.5342059  
C    1.8906719   -2.0861103   -5.2626200  
C    0.9779278   -1.6251677   -4.3690289  
C    0.1016446   -0.7294209   -5.0863858  
C    0.5821206   -0.7061488   -6.4811591  
N    1.6688588   -1.5489159   -6.5215724  
C    0.0179729    0.0235399   -7.4766474  
C   -1.1395617    0.8406737   -7.1527018  
O   -1.7182887    1.5334119   -7.9794364  
C   -1.6653046    0.8314581   -5.6818808  
O   -2.6389745    1.5156840   -5.3971660  
C   -0.9736282    0.0040461   -4.6965765  
H    0.9247018   -1.8830608   -3.3263057  
H    0.3859497    0.0263615   -8.4932573  
H    2.7068325   -2.7728804   -5.1073197  
C    3.4488225   -5.2731293   -8.0200064  
C    4.0331005   -4.8032844   -9.1522341  
C    3.7461079   -3.3897580   -9.2186783  
C    2.9409882   -3.0723273   -8.0237680  
N    2.7959187   -4.2568454   -7.3391064  
C    2.4693254   -1.8364986   -7.7205088  
C    2.7748572   -0.7463064   -8.6319179  
O    2.3955915    0.4027048   -8.4469017  
C    3.6258129   -1.0596693   -9.9037214  
O    3.8891194   -0.1499250  -10.6785090  
C    4.0777883   -2.4313602  -10.1228910  
H    4.6002401   -5.3810205   -9.8601785  
H    4.6666739   -2.6399573  -11.0057414  
H    3.4400922   -6.2763519   -7.6258515  
H    2.2948290   -4.3658333   -6.4765068  
C    0.0000000    0.0000000    1.4700000  
C    1.0662921    0.0000102    2.3034270  
C    0.4961870   -0.0000064    3.6418889  
C   -0.9663858    0.0000850    3.4240247  
N   -1.2632773    0.0000084    2.1528658  
C   -1.8985362    0.0000517    4.5177257  
C   -1.3925775   -0.0004564    5.7720543  
O   -2.1456383   -0.0005410    6.8851312  
C    0.0786232   -0.0009323    6.0245000  
O    0.4683759   -0.0012588    7.1921102  
C    1.0143166   -0.0008442    4.8859032  
H    2.1107198   -0.0000632    2.0421868  
H   -2.9622183    0.0003270    4.3293377  
H   -1.5042274   -0.0009692    7.6184419  
H    2.0724152   -0.0013148    5.1109744  
