58

C    1.0965513    0.0001358   -0.8010310  
C    0.0000000    0.0000000    0.0000000  
C   -1.1546563    0.0001469   -0.8669512  
C   -0.6372020    0.0003521   -2.2486282  
N    0.7342866    0.0007338   -2.1395017  
C   -1.4147750    0.0001355   -3.3608713  
C   -2.8576059   -0.0001044   -3.1854453  
O   -3.6427793   -0.0002490   -4.1244894  
C   -3.4275845   -0.0000723   -1.7311659  
O   -4.6406830    0.0000334   -1.5710047  
C   -2.4891869   -0.0001090   -0.6116734  
H   -2.8919118   -0.0002917    0.3920869  
H    2.1388271    0.0000662   -0.5261653  
H    1.3735862   -0.0006098   -2.9130269  
C    2.0080263   -2.0907790   -5.2072029  
C    1.0696909   -1.6289494   -4.3409949  
C    0.2147971   -0.7337514   -5.0843741  
C    0.7357125   -0.7117677   -6.4645748  
N    1.8230594   -1.5546811   -6.4725590  
C    0.2009044    0.0170931   -7.4767240  
C   -0.9654735    0.8346326   -7.1873687  
O   -1.5197773    1.5266947   -8.0312279  
C   -1.5338515    0.8267778   -5.7324834  
O   -2.5153166    1.5113556   -5.4768664  
C   -0.8712840    0.0001712   -4.7267108  
H    0.9860720   -1.8859103   -3.3000378  
H    0.5983469    0.0189740   -8.4821825  
H    2.8192276   -2.7774939   -5.0275791  
C    2.6580843   -1.8434109   -7.6474076  
C    3.7352064   -2.6591898   -7.7241610  
C    4.1727439   -2.5734321   -9.1089738  
C    3.2208644   -1.6362975   -9.7432357  
N    2.3307440   -1.2050051   -8.8913773  
C    3.3143970   -1.2810496  -11.1325296  
C    4.3136738   -1.8364394  -11.8552469  
O    4.5196390   -1.5944774  -13.1610316  
C    5.2903121   -2.7853481  -11.2437642  
O    6.1744285   -3.2527808  -11.9614450  
C    5.1732503   -3.1339868   -9.8166441  
H    4.1781808   -3.2465253   -6.9381033  
H    2.6049918   -0.5937805  -11.5699259  
H    5.2995967   -2.1304267  -13.3924982  
H    5.9004479   -3.8248966   -9.4116046  
C    0.8175213    0.6860729    2.3021913  
C    0.0000000    0.0000000    1.4700000  
C   -0.8887526   -0.7456559    2.3478473  
C   -0.4549825   -0.3816753    3.7138435  
N    0.5448156    0.4573574    3.6934124  
C   -1.0945674   -0.9182058    4.8835240  
C   -2.1210866   -1.7789155    4.6970523  
O   -2.8083856   -2.3554314    5.6976972  
C   -2.5824069   -2.1655116    3.3310774  
O   -3.5227682   -2.9541547    3.2362962  
C   -1.9100805   -1.6015804    2.1470656  
H   -0.7567140   -0.6349833    5.8697035  
H   -3.4728268   -2.9124471    5.2533954  
H   -2.2742832   -1.9066565    1.1752040  
H    1.6189533    1.3585343    2.0405121  
