62

C    1.1188641    0.0008220   -0.8003808  
C    0.0000000    0.0000000    0.0000000  
C   -1.1323866    0.0008906   -0.8673522  
C   -0.6382666    0.0019686   -2.1969277  
N    0.7324014    0.0038484   -2.1202240  
C   -1.4770914    0.0027331   -3.3154805  
C   -2.8395481    0.0020961   -3.0876854  
O   -3.7039204    0.0024448   -4.1440347  
C   -3.3517874    0.0013946   -1.7684327  
O   -4.7300495    0.0012386   -1.7073120  
C   -2.5248549    0.0009135   -0.6644811  
H   -1.1067577    0.0037001   -4.3313811  
H   -4.5940041    0.0021855   -3.7685124  
H   -4.9934602    0.0007280   -0.7819907  
H   -2.9462581    0.0005613    0.3339664  
H    2.1619892    0.0009349   -0.5342070  
C    4.4769653   -2.1470646   -2.7027291  
C    4.8409674   -1.7539562   -3.9455273  
C    3.7877256   -0.8472137   -4.3756423  
C    2.8430643   -0.8072144   -3.2387173  
N    3.2418487   -1.5671443   -2.2551183  
C    1.6478429   -0.0100098   -3.2703000  
C    1.4074689    0.7146095   -4.3867597  
O    0.3314538    1.5023762   -4.5530620  
C    2.3418713    0.6955153   -5.5506701  
O    2.0597581    1.3797252   -6.5342807  
C    3.5612144   -0.1302661   -5.4939936  
H    5.7161623   -2.0434626   -4.5016712  
H    0.4389875    1.8844071   -5.4428040  
H    4.2123683   -0.1166603   -6.3577324  
C    8.2974098   -4.4314990   -3.1213211  
C    7.2170910   -3.6102017   -3.3468166  
C    6.3989168   -3.6686140   -2.1798632  
C    7.0363025   -4.5487906   -1.2682958  
N    8.1853147   -4.9957249   -1.8721488  
C    6.5085294   -4.8442454   -0.0077604  
C    5.3157419   -4.2399266    0.3389883  
O    4.7562713   -4.4930592    1.5579756  
C    4.6644967   -3.3590808   -0.5570073  
O    3.4854918   -2.8377928   -0.0655305  
C    5.1844436   -3.0673590   -1.8008239  
H    7.0399088   -3.0400821   -4.2426751  
H    8.8496669   -5.6261377   -1.4608127  
H    6.9893527   -5.5143222    0.6915306  
H    3.9396416   -3.9783263    1.5957915  
H    3.1100374   -2.2539568   -0.7316935  
H    9.1383111   -4.6605711   -3.7532783  
C    0.8175213    0.6860729    2.3021913  
C    0.0000000    0.0000000    1.4700000  
C   -0.8887526   -0.7456559    2.3478473  
C   -0.4549825   -0.3816753    3.7138435  
N    0.5448156    0.4573574    3.6934124  
C   -1.0945674   -0.9182058    4.8835240  
C   -2.1210866   -1.7789155    4.6970523  
O   -2.8083856   -2.3554314    5.6976972  
C   -2.5824069   -2.1655116    3.3310774  
O   -3.5227682   -2.9541547    3.2362962  
C   -1.9100805   -1.6015804    2.1470656  
H   -0.7567140   -0.6349833    5.8697035  
H   -3.4728268   -2.9124471    5.2533954  
H   -2.2742832   -1.9066565    1.1752040  
H    1.6189533    1.3585343    2.0405121  
