46
1A 10B 32A 41B 11 15 42 44 3 4 3 4 2 0 2 0 nosym
C    0.2913987   -0.7084427   -5.1223474  
C    0.5739114   -0.4576449   -6.4451305  
C   -0.4187661    0.4510450   -6.9178608  
C   -1.2874029    0.7215800   -5.8296476  
N   -0.8287665    0.0000939   -4.7555305  
C   -2.3853878    1.5808478   -5.9339392  
C   -2.6104142    2.1781250   -7.1590112  
O   -3.6682603    3.0262404   -7.3160913  
C   -1.7551623    1.9204596   -8.2567226  
O   -2.1120438    2.5905254   -9.4086738  
C   -0.6719446    1.0726728   -8.1546323  
H    1.3938856   -0.8787885   -7.0012543  
H   -3.0512890    1.7910783   -5.1083604  
H   -3.6426880    3.3276317   -8.2335737  
H   -1.4840920    2.3615487  -10.1006640  
H   -0.0346438    0.8945055   -9.0128760  
H    0.7994703   -1.3377927   -4.4118966  
C    1.0672569   -0.0000698   -0.8321910  
C    0.0000000    0.0000000    0.0000000  
C   -1.1601223   -0.0000736   -0.8778472  
C   -0.5938729   -0.0000768   -2.2438435  
N    0.7113367   -0.0001553   -2.2234123  
C   -1.4286985   -0.0001877   -3.4135239  
C   -2.7683113   -0.0006798   -3.2270524  
O   -3.6653902   -0.0008302   -4.2276970  
C   -3.3702024   -0.0010610   -1.8610774  
O   -4.5974910   -0.0013779   -1.7662963  
C   -2.4926825   -0.0008943   -0.6770658  
H   -4.5324245   -0.0012258   -3.7833954  
H   -2.9677772   -0.0012974    0.2947961  
H    2.1134391   -0.0000547   -0.5705119  
C    0.8681109    0.7263879    2.2709268  
C    0.6127770    0.5096195    3.5869401  
C   -0.4920590   -0.4175482    3.6542670  
C   -0.8620974   -0.7254003    2.2596025  
N    0.0000000    0.0000000    1.4700000  
C   -1.8641242   -1.5660088    1.8976294  
C   -2.6293522   -2.2103885    2.9520183  
O   -3.5512764   -2.9839180    2.7283916  
C   -2.2549728   -1.8987399    4.4361073  
O   -2.8923672   -2.4351063    5.3323774  
C   -1.1543735   -0.9755647    4.7012123  
H    1.1382914    0.9492124    4.4159191  
H   -2.1192137   -1.7782617    0.8686553  
H   -0.9013378   -0.7652422    5.7314848  
H    1.6172880    1.3558399    1.8188057  
