46
0A 1A 10B 22B 31A 32A 41B 16 11 15 29 45 42 44 2 3 4 7 2 3 4 3 1 3 0 nosym
C    6.6962559   -0.0006583    0.9128046  
C    7.6449136   -0.0016134   -0.0834457  
C    6.9440359   -0.0023814   -1.3257701  
C    5.5585247   -0.0015569   -1.0219874  
N    5.4432391   -0.0024703    0.3459768  
C    4.5679461   -0.0016854   -2.0086701  
C    4.9836054   -0.0023571   -3.3260176  
O    4.0581868   -0.0021607   -4.3293194  
C    6.3614227   -0.0035604   -3.6491825  
O    6.6142424   -0.0045344   -5.0054362  
C    7.3392016   -0.0037075   -2.6763132  
H    8.7109485   -0.0028461    0.0667591  
H    4.5782209    0.0083750    0.8554935  
H    4.5542211   -0.0030158   -5.1583030  
H    7.5672639   -0.0052862   -5.1371682  
H    8.3866773   -0.0048230   -2.9542897  
H    6.8142877   -0.0002736    1.9828636  
C    3.1301149   -0.0010311   -1.7028252  
C    2.5367768   -0.0002767   -0.4864665  
C    1.1089904    0.0001028   -0.7656183  
C    1.0177872   -0.0004148   -2.2415132  
N    2.1993578   -0.0011611   -2.7963820  
C   -0.2459209   -0.0002877   -2.9257118  
C   -1.3675319   -0.0000605   -2.1698524  
O   -2.6129313    0.0000867   -2.6748490  
C   -1.3083584    0.0000910   -0.6783232  
O   -2.3693261    0.0004206   -0.0541692  
C    0.0000000    0.0000000    0.0000000  
H    3.0096017   -0.0001007    0.4807525  
H   -0.2829630   -0.0004687   -4.0053125  
H   -3.1967441    0.0002094   -1.8949034  
C    2.5528530    2.1414826    2.8079335  
C    2.0663498    1.7338582    4.0032312  
C    0.9804344    0.8229586    3.6752840  
C    0.9495562    0.7966882    2.1971295  
N    1.8690446    1.5676019    1.6831036  
C    0.0000000    0.0000000    1.4700000  
C   -0.8785127   -0.7372425    2.1869543  
O   -1.8187535   -1.5261249    1.6395491  
C   -0.8723269   -0.7321790    3.6796354  
O   -1.7010379   -1.4274584    4.2670412  
C    0.1115397    0.0933559    4.4024240  
H    2.4028853    2.0163452    4.9860947  
H   -2.2861435   -1.9184361    2.3990168  
H    0.0832434    0.0693689    5.4835595  
H    3.3664920    2.8238276    2.6198634  
