46
0A 4A 5B 35A 36B 16 12 13 45 42 2 1 7 1 7 3 0 2 0 nosym
C    2.0511541   -2.1229631   -5.2235189  
C    1.1050321   -1.6610332   -4.3381145  
C    0.2551466   -0.7735135   -5.0624098  
C    0.7354627   -0.7333262   -6.3964292  
N    1.8278202   -1.5624306   -6.4593485  
C    0.1362303    0.0430169   -7.3929232  
C   -0.9681770    0.7922083   -7.0363081  
O   -1.5920421    1.5678298   -7.9702338  
C   -1.4621018    0.7656123   -5.7103567  
O   -2.5682658    1.5661318   -5.5130919  
C   -0.8712826    0.0001710   -4.7267111  
H    1.0365885   -1.9297480   -3.2978739  
H    2.3720975   -1.7437442   -7.2832828  
H    0.4975476    0.0781024   -8.4114617  
H   -2.3278633    2.0008052   -7.5181668  
H   -2.8380458    1.4907091   -4.5926934  
H    2.8684779   -2.8068172   -5.0709272  
C    1.0965514    0.0001359   -0.8010305  
C    0.0000000    0.0000000    0.0000000  
C   -1.1546563    0.0001470   -0.8669513  
C   -0.6372014    0.0003519   -2.2486282  
N    0.7342871    0.0007337   -2.1395014  
C   -1.4147739    0.0001352   -3.3608717  
C   -2.8576049   -0.0001048   -3.1854462  
O   -3.6427779   -0.0002494   -4.1244907  
C   -3.4275840   -0.0000725   -1.7311666  
O   -4.6406831    0.0000333   -1.5710060  
C   -2.4891867   -0.0001091   -0.6116744  
H   -2.8919122   -0.0002918    0.3920866  
H    2.1388272    0.0000663   -0.5261648  
H    1.3735872   -0.0006099   -2.9130262  
C    0.8400945    0.7047457    2.2710304  
C    0.0000000    0.0000000    1.4700000  
C   -0.8844236   -0.7423113    2.3369512  
C   -0.4878984   -0.4098547    3.7186280  
N    0.5629682    0.4714286    3.6095011  
C   -1.0836927   -0.9095027    4.8308716  
C   -2.1891196   -1.8367527    4.6554461  
O   -2.7906899   -2.3413415    5.5944904  
C   -2.6257283   -2.2031529    3.2011665  
O   -3.5549479   -2.9829990    3.0410059  
C   -1.9068976   -1.5999348    2.0816745  
H   -0.7774656   -0.6525820    5.8354244  
H   -2.2155208   -1.8586617    1.0779135  
H    1.6384792    1.3747609    1.9961646  
H    1.0518368    0.8833920    4.3830260  
