48
5B 10B 22B 31A 32A 41B 13 16 29 47 42 46 7 4 7 2 3 4 2 1 3 0 nosym
C    2.5562217   -0.0001550   -3.6003003  
C    3.5655131   -0.0006160   -2.6655287  
C    4.7980131   -0.0013041   -3.3835423  
C    4.4750732   -0.0009423   -4.7647139  
N    3.1056445   -0.0021962   -4.8610459  
C    5.4479446   -0.0011310   -5.7688610  
C    6.7709219   -0.0013881   -5.3714832  
O    7.7613126   -0.0012295   -6.3107063  
C    7.1131349   -0.0021263   -3.9982730  
O    8.4727598   -0.0027234   -3.7642577  
C    6.1538991   -0.0022139   -3.0071160  
H    3.4300850   -0.0015789   -1.5975158  
H    2.5841959    0.0082882   -5.7189282  
H    5.2083487   -0.0010015   -6.8232780  
H    8.5970861   -0.0017569   -5.8261986  
H    8.6176770   -0.0031742   -2.8131517  
H    6.4463537   -0.0029686   -1.9635895  
C    0.0000000    0.0000000    0.0000000  
C    1.0541688   -0.0001721   -0.8560392  
C    0.5103141   -0.0000453   -2.1935956  
C   -0.9576367    0.0002460   -2.0455735  
N   -1.2018459   -0.0001391   -0.6915971  
C   -1.8348307    0.0008318   -3.0810613  
C   -1.2972842    0.0009738   -4.4314606  
O   -2.0050665    0.0014267   -5.4301324  
C    0.2542628    0.0004186   -4.6117571  
O    0.7184677    0.0002259   -5.7439121  
C    1.0974556    0.0000875   -3.4189129  
H    2.0940752   -0.0005483   -0.5817982  
H   -2.9081051    0.0011669   -2.9507066  
H   -2.1128195    0.0014912   -0.2706794  
C    3.3003543   -0.0005276    2.9438989  
C    2.5232812   -0.0003497    4.0790748  
C    1.1623199    0.0001319    3.6520102  
C    1.1711883   -0.0000583    2.2336141  
N    2.4852299    0.0014920    1.8362361  
C    0.0000000    0.0000000    1.4700000  
C   -1.2020384   -0.0000520    2.1506477  
O   -2.3759250   -0.0003494    1.4542253  
C   -1.2314658    0.0005113    3.5655508  
O   -2.5054393    0.0008037    4.0950179  
C   -0.0764518    0.0007272    4.3195194  
H    2.8919952    0.0005619    5.0905303  
H    2.8036267   -0.0088181    0.8841339  
H   -3.0835639   -0.0000348    2.1118817  
H   -2.4360050    0.0011527    5.0545920  
H   -0.1304098    0.0013421    5.4019087  
H    4.3715549   -0.0004895    2.8367138  
