48
4A 5B 17A 31A 32A 41B 11 12 30 47 42 46 1 7 2 2 3 4 2 1 3 0 nosym
C    0.9257301   -0.7167803   -5.2310367  
C    0.0950452    0.0004352   -4.4015596  
C   -0.8020936    0.7279284   -5.2385158  
C   -0.4682541    0.4119037   -6.5803821  
N    0.5861910   -0.4662359   -6.5399635  
C   -1.1490748    0.9509634   -7.6761409  
C   -2.1859873    1.8247342   -7.4124830  
O   -2.8845233    2.3798580   -8.4453911  
C   -2.5338276    2.1526767   -6.0804633  
O   -3.5882621    3.0369881   -5.9829751  
C   -1.8624417    1.6214686   -4.9989898  
H    1.0324211   -0.8745743   -7.3412873  
H   -0.8994312    0.7142335   -8.7012447  
H   -3.5540566    2.9507673   -8.0465776  
H   -3.7587624    3.2054698   -5.0512309  
H   -2.1514330    1.8914441   -3.9899927  
H    1.7344794   -1.3861210   -4.9925702  
C    3.3321174    0.0004718   -1.3379334  
C    2.6974185    0.0000117   -2.5332310  
C    1.2800440   -0.0002117   -2.2052839  
C    1.2395036    0.0000644   -0.7271297  
N    2.4394063    0.0005460   -0.2131035  
C    0.0000000    0.0000000    0.0000000  
C   -1.1468700    0.0000635   -0.7169545  
O   -2.3742202    0.0000073   -0.1695490  
C   -1.1388767    0.0001607   -2.2096357  
O   -2.2206230    0.0000904   -2.7970414  
C    0.1454526    0.0001816   -2.9324241  
H    3.1367988   -0.0000648   -3.5160946  
H   -2.9844344    0.0001025   -0.9290171  
H    4.3940040    0.0007621   -1.1498634  
C    2.5285572    2.1210227    2.9438989  
C    1.9331703    1.6216660    4.0790748  
C    0.8903039    0.7472258    3.6520102  
C    0.8972198    0.7527806    2.2336141  
N    1.9028376    1.5986179    1.8362361  
C    0.0000000    0.0000000    1.4700000  
C   -0.9207814   -0.7726952    2.1506477  
O   -1.8198395   -1.5274828    1.4542253  
C   -0.9436862   -0.7911793    3.5655508  
O   -1.9197945   -1.6098497    4.0950179  
C   -0.0590329   -0.0485852    4.3195194  
H    2.2150357    1.8593692    5.0905303  
H    2.1533708    1.7953814    0.8841339  
H   -2.3621246   -1.9821033    2.1118817  
H   -1.8668290   -1.5649508    5.0545920  
H   -0.1007624   -0.0827977    5.4019087  
H    3.3491200    2.8096064    2.8367138  
