46
1A 10B 27B 35A 36B 11 15 29 45 42 3 4 4 1 7 2 1 2 0 nosym
C    5.6607615   -0.0163854   -2.2932975  
C    6.9286110   -0.0269756   -1.7595245  
C    6.7830846   -0.0173778   -0.3406060  
C    5.3917867   -0.0011659   -0.0650081  
N    4.7390840    0.0009613   -1.2727298  
C    4.8785139    0.0113254    1.2354472  
C    5.7862816    0.0070721    2.2766570  
O    5.3393695    0.0184377    3.5662899  
C    7.1782830   -0.0086633    2.0218986  
O    7.9523718   -0.0106007    3.1638814  
C    7.6853520   -0.0207191    0.7392210  
H    7.8455654   -0.0389093   -2.3234801  
H    3.8192327    0.0238501    1.4521683  
H    6.1255027    0.0133028    4.1277459  
H    8.8784938   -0.0215791    2.9035304  
H    8.7565277   -0.0324763    0.5751398  
H    5.3410106   -0.0183876   -3.3212636  
C    3.2798077    0.0005856   -1.4499661  
C    2.5571132    0.0005565   -2.5996564  
C    1.1637425    0.0001547   -2.2210366  
C    1.1336959   -0.0000200   -0.7459475  
N    2.4483509   -0.0001429   -0.3402730  
C    0.0000000    0.0000000    0.0000000  
C   -1.2757370   -0.0000187   -0.6964411  
O   -2.3524597   -0.0000640   -0.1142306  
C   -1.2676502   -0.0000874   -2.2584078  
O   -2.3355774   -0.0004102   -2.8557287  
C    0.0181551    0.0001758   -2.9516297  
H    2.9547342    0.0006074   -3.5989118  
H    0.0150776    0.0003317   -4.0331632  
H    2.7563626    0.0012823    0.6148051  
C    0.8400945    0.7047457    2.2710304  
C    0.0000000    0.0000000    1.4700000  
C   -0.8844236   -0.7423113    2.3369512  
C   -0.4878984   -0.4098547    3.7186280  
N    0.5629682    0.4714286    3.6095011  
C   -1.0836927   -0.9095027    4.8308716  
C   -2.1891196   -1.8367527    4.6554461  
O   -2.7906899   -2.3413415    5.5944904  
C   -2.6257283   -2.2031529    3.2011665  
O   -3.5549479   -2.9829990    3.0410059  
C   -1.9068976   -1.5999348    2.0816745  
H   -0.7774656   -0.6525820    5.8354244  
H   -2.2155208   -1.8586617    1.0779135  
H    1.6384792    1.3747609    1.9961646  
H    1.0518368    0.8833920    4.3830260  
