46
0A 1A 10B 36B 41B 16 11 15 43 45 2 3 4 7 4 3 0 2 0 nosym
C    4.5572027   -2.1238598   -2.7954707  
C    4.8218136   -1.6261101   -4.0503386  
C    3.7465395   -0.7512512   -4.3865036  
C    2.8482641   -0.7549060   -3.2887724  
N    3.3696291   -1.6000638   -2.3408775  
C    1.6707639   -0.0012345   -3.2725973  
C    1.3951972    0.7704142   -4.3847118  
O    0.2590868    1.5260024   -4.4215026  
C    2.2789328    0.7870006   -5.4899514  
O    1.8644423    1.6048187   -6.5208316  
C    3.4406090    0.0435268   -5.5067082  
H    5.6832610   -1.8651264   -4.6501501  
H    2.9560527   -1.7955157   -1.4471584  
H    0.2603883    1.9796628   -5.2744126  
H    2.5165411    1.5586429   -7.2266920  
H    4.0980144    0.0762840   -6.3676511  
H    5.1209110   -2.8121791   -2.1893294  
C    1.0965515    0.0001358   -0.8010305  
C    0.0000000    0.0000000    0.0000000  
C   -1.1546564    0.0001470   -0.8669509  
C   -0.6372017    0.0003518   -2.2486278  
N    0.7342868    0.0007337   -2.1395011  
C   -1.4147742    0.0001351   -3.3608713  
C   -2.8576052   -0.0001048   -3.1854458  
O   -3.6427782   -0.0002494   -4.1244899  
C   -3.4275841   -0.0000725   -1.7311663  
O   -4.6406831    0.0000333   -1.5710053  
C   -2.4891868   -0.0001090   -0.6116741  
H   -1.0150454    0.0001614   -4.3654241  
H   -2.8919123   -0.0002920    0.3920869  
H    2.1388270    0.0000662   -0.5261648  
C    0.0000000    0.0000000    1.4700000  
C    1.0662921    0.0000102    2.3034270  
C    0.4961870   -0.0000064    3.6418889  
C   -0.9663858    0.0000850    3.4240247  
N   -1.2632773    0.0000084    2.1528658  
C   -1.8985362    0.0000517    4.5177257  
C   -1.3925775   -0.0004564    5.7720543  
O   -2.1456383   -0.0005410    6.8851312  
C    0.0786232   -0.0009323    6.0245000  
O    0.4683759   -0.0012588    7.1921102  
C    1.0143166   -0.0008442    4.8859032  
H    2.1107198   -0.0000632    2.0421868  
H   -2.9622183    0.0003270    4.3293377  
H   -1.5042274   -0.0009692    7.6184419  
H    2.0724152   -0.0013148    5.1109744  
