48
1A 10B 22B 35A 36B 11 15 29 42 43 3 4 7 1 7 2 1 2 0 nosym
C    3.4087107   -0.7064436   -3.0324169  
C    4.6439233   -0.4554586   -3.5835284  
C    4.4407876    0.4527125   -4.6645285  
C    3.0496391    0.7227526   -4.7254374  
N    2.4521485    0.0014830   -3.7217479  
C    2.4867670    1.5814353   -5.6744518  
C    3.3439027    2.1786250   -6.5782552  
O    2.8473368    3.0261782   -7.5259303  
C    4.7348369    1.9214475   -6.5337629  
O    5.4551847    2.5913536   -7.5010632  
C    5.2907837    1.0742382   -5.5979825  
H    5.5765057   -0.8761479   -3.2484096  
H    1.4272946    1.7912867   -5.7262423  
H    3.6036632    3.3276080   -8.0459072  
H    6.3843611    2.3627320   -7.4012286  
H    6.3597906    0.8964356   -5.5885594  
H    3.1341698   -1.3355408   -2.2030662  
C    0.0000000    0.0000000    0.0000000  
C    1.0662923   -0.0000105   -0.8334269  
C    0.4961874    0.0000060   -2.1718887  
C   -0.9663853   -0.0000854   -1.9540249  
N   -1.2632772   -0.0000086   -0.6828660  
C   -1.8985357   -0.0000523   -3.0477261  
C   -1.3925768    0.0004559   -4.3020546  
O   -2.1456376    0.0005405   -5.4151317  
C    0.0786242    0.0009317   -4.5545000  
O    0.4683768    0.0012580   -5.7221103  
C    1.0143173    0.0008436   -3.4159030  
H    2.1107200    0.0000630   -0.5721863  
H   -2.9622180   -0.0003275   -2.8593382  
H   -1.5042263    0.0009682   -6.1484421  
C    1.1188642   -0.0008217    2.2703808  
C    0.0000000    0.0000000    1.4700000  
C   -1.1323862   -0.0008904    2.3373528  
C   -0.6382662   -0.0019682    3.6669281  
N    0.7324016   -0.0038477    3.5902241  
C   -1.4770914   -0.0027325    4.7854808  
C   -2.8395474   -0.0020958    4.5576857  
O   -3.7039201   -0.0024443    5.6140350  
C   -3.3517868   -0.0013946    3.2384331  
O   -4.7300496   -0.0012389    3.1773122  
C   -2.5248543   -0.0009135    2.1344818  
H    1.3576314    0.0056174    4.3757045  
H   -1.1067570   -0.0036993    5.8013813  
H   -4.5940033   -0.0021850    5.2385129  
H   -4.9934601   -0.0007286    2.2519915  
H   -2.9462578   -0.0005617    1.1360343  
H    2.1619896   -0.0009344    2.0042067  
