46
1A 10B 22B 32A 41B 11 15 29 42 44 3 4 7 3 4 2 1 2 0 nosym
C    5.6407085    0.0170452   -0.6743879  
C    6.9070325    0.0276884   -1.2117679  
C    6.7574706    0.0178707   -2.6302653  
C    5.3653958    0.0014762   -2.9019006  
N    4.7161325   -0.0005435   -1.6923264  
C    4.8484260   -0.0112557   -4.2008885  
C    5.7532268   -0.0070596   -5.2446778  
O    5.3026480   -0.0186573   -6.5330320  
C    7.1459454    0.0088555   -4.9938833  
O    7.9167823    0.0107074   -6.1380647  
C    7.6566618    0.0211486   -3.7126559  
H    7.8255871    0.0397977   -0.6504257  
H    3.7885337   -0.0239203   -4.4145928  
H    6.0871804   -0.0135228   -7.0967235  
H    8.8436393    0.0218184   -5.8803514  
H    8.7282989    0.0330394   -3.5516249  
H    5.3238838    0.0191630    0.3544834  
C    3.2573665   -0.0002920   -1.5109385  
C    2.5379463   -0.0001709   -0.3591964  
C    1.1435038    0.0000331   -0.7338500  
C    1.1092599   -0.0000083   -2.2088477  
N    2.4227553    0.0001909   -2.6182613  
C   -0.0265539   -0.0002524   -2.9515660  
C   -1.3003040   -0.0002640   -2.2514977  
O   -2.3786790   -0.0004133   -2.8306421  
C   -1.2877727    0.0000311   -0.6895603  
O   -2.3539959    0.0003306   -0.0892030  
C    0.0000000    0.0000000    0.0000000  
H    2.9384091   -0.0000367    0.6389234  
H   -0.0296303   -0.0004086   -4.0327229  
H    2.7280482   -0.0013407   -3.5742119  
C    0.8681109    0.7263879    2.2709268  
C    0.6127770    0.5096195    3.5869401  
C   -0.4920590   -0.4175482    3.6542670  
C   -0.8620974   -0.7254003    2.2596025  
N    0.0000000    0.0000000    1.4700000  
C   -1.8641242   -1.5660088    1.8976294  
C   -2.6293522   -2.2103885    2.9520183  
O   -3.5512764   -2.9839180    2.7283916  
C   -2.2549728   -1.8987399    4.4361073  
O   -2.8923672   -2.4351063    5.3323774  
C   -1.1543735   -0.9755647    4.7012123  
H    1.1382914    0.9492124    4.4159191  
H   -2.1192137   -1.7782617    0.8686553  
H   -0.9013378   -0.7652422    5.7314848  
H    1.6172880    1.3558399    1.8188057  
