50
37A 38B 10A 17B 26B 44 45 15 27 31 1 7 4 3 4 2 1 2 0 nosym
C    3.3003548    0.0005276   -1.4738982  
C    2.5232817    0.0003497   -2.6090743  
C    1.1623206   -0.0001319   -2.1820098  
C    1.1711888    0.0000583   -0.7636138  
N    2.4852302   -0.0014919   -0.3662355  
C    0.0000000    0.0000000    0.0000000  
C   -1.2020381    0.0000520   -0.6806479  
O   -2.3759246    0.0003495    0.0157742  
C   -1.2314650   -0.0005112   -2.0955510  
O   -2.5054382   -0.0008036   -2.6250182  
C   -0.0764510   -0.0007271   -2.8495193  
H    2.8919962   -0.0005619   -3.6205297  
H    2.8036267    0.0088181    0.5858667  
H   -3.0835639    0.0000348   -0.6418822  
H   -2.4360046   -0.0011526   -3.5845924  
H   -0.1304090   -0.0013420   -3.9319086  
C    5.6629513   -0.0164394   -2.3673673  
C    6.9417947   -0.0276366   -1.8605136  
C    6.8262887   -0.0188866   -0.4388308  
C    5.4411292   -0.0025425   -0.1338825  
N    4.7630507    0.0004755   -1.3275395  
C    4.9554562    0.0092547    1.1771365  
C    5.8850230    0.0041582    2.1989273  
O    5.4654668    0.0148219    3.4977240  
C    7.2713262   -0.0117225    1.9147995  
O    8.0693755   -0.0145364    3.0401677  
C    7.7511731   -0.0230937    0.6216855  
H    7.8466237   -0.0394205   -2.4437275  
H    3.9009938    0.0218757    1.4162027  
H    6.2632887    0.0091676    4.0424379  
H    8.9897853   -0.0255551    2.7602963  
H    8.8186394   -0.0349826    0.4349968  
H    5.3215475   -0.0177347   -3.3883478  
C    0.8576279    0.7185626    2.2703808  
C    0.0000000    0.0000000    1.4700000  
C   -0.8668858   -0.7285659    2.3373528  
C   -0.4876752   -0.4117774    3.6669281  
N    0.5635254    0.4678311    3.5902241  
C   -1.1297612   -0.9515493    4.7854808  
C   -2.1738724   -1.8268314    4.5576857  
O   -2.8357962   -2.3827064    5.6140350  
C   -2.5667212   -2.1555554    3.2384331  
O   -3.6226318   -3.0413663    3.1773122  
C   -1.9335634   -1.6236449    2.1344818  
H    1.0363952    0.8769718    4.3757045  
H   -0.8454472   -0.7142436    5.8013813  
H   -3.5178062   -2.9546422    5.2385129  
H   -3.8247440   -3.2102924    2.2519915  
H   -2.2566033   -1.8942483    1.1360343  
H    1.6567807    1.3889844    2.0042067  
