46
4A 5B 22B 31A 32A 41B 11 12 29 44 42 43 1 7 7 2 3 4 2 1 3 0 nosym
C    5.6484569    0.0004439   -0.6807742  
C    4.7161325   -0.0005435   -1.6923264  
C    5.4371285   -0.0001079   -2.9230842  
C    6.8175139    0.0008760   -2.5968008  
N    6.9105274    0.0031396   -1.2271437  
C    7.8240133    0.0012220   -3.5672375  
C    7.4298416    0.0002555   -4.8911732  
O    8.3714601    0.0001894   -5.8792860  
C    6.0574641   -0.0003586   -5.2367110  
O    5.8267421   -0.0008767   -6.5968984  
C    5.0639870   -0.0004269   -4.2798782  
H    7.7671524   -0.0062908   -0.7036122  
H    8.8778471    0.0021151   -3.3250885  
H    7.8889790   -0.0002465   -6.7162301  
H    4.8759897   -0.0013000   -6.7441179  
H    4.0211715   -0.0007219   -4.5748592  
H    5.5130313    0.0008845    0.3872233  
C    3.2573665   -0.0002920   -1.5109385  
C    2.5379463   -0.0001709   -0.3591964  
C    1.1435038    0.0000331   -0.7338500  
C    1.1092599   -0.0000083   -2.2088477  
N    2.4227553    0.0001909   -2.6182613  
C   -0.0265539   -0.0002524   -2.9515660  
C   -1.3003040   -0.0002640   -2.2514977  
O   -2.3786790   -0.0004133   -2.8306421  
C   -1.2877727    0.0000311   -0.6895603  
O   -2.3539959    0.0003306   -0.0892030  
C    0.0000000    0.0000000    0.0000000  
H    2.9384091   -0.0000367    0.6389234  
H   -0.0296303   -0.0004086   -4.0327229  
H    2.7280482   -0.0013407   -3.5742119  
C    2.5128556    2.1077716    2.9199648  
C    1.9592212    1.6432552    4.0696553  
C    0.8915788    0.7479214    3.6910360  
C    0.8684491    0.7287414    2.2159470  
N    1.8754542    1.5738793    1.8102719  
C    0.0000000    0.0000000    1.4700000  
C   -0.9772830   -0.8200135    2.1664417  
O   -1.8021297   -1.5120829    1.5842315  
C   -0.9711318   -0.8147624    3.7284083  
O   -1.7894187   -1.5009653    4.3257297  
C    0.0140216    0.0115358    4.4216297  
H    2.2638494    1.8988021    5.0689105  
H    0.0117648    0.0094386    5.5031631  
H    3.3327358    2.7953732    2.7900019  
H    2.1123206    1.7707734    0.8551938  
