46
5B 10B 36B 41B 13 16 43 45 7 4 7 4 2 0 2 0 nosym
C    1.6707636   -0.0012341   -3.2725974  
C    3.0463717   -0.0034573   -3.2854247  
C    3.4499895   -0.0053007   -4.6535216  
C    2.2671965   -0.0037951   -5.4364166  
N    1.2050902   -0.0032861   -4.5666193  
C    2.2856090   -0.0046612   -6.8344328  
C    3.5205408   -0.0067845   -7.4533969  
O    3.5962533   -0.0073600   -8.8162173  
C    4.7118869   -0.0086863   -6.6895200  
O    5.8613542   -0.0111078   -7.4524493  
C    4.6944760   -0.0081065   -5.3103091  
H    3.6808661   -0.0048235   -2.4157075  
H    0.2370749    0.0083097   -4.8326886  
H    1.3876878   -0.0036671   -7.4368771  
H    4.5366385   -0.0091915   -9.0374360  
H    6.6195103   -0.0122495   -6.8601641  
H    5.6233663   -0.0097861   -4.7520631  
C    1.0965514    0.0001359   -0.8010306  
C    0.0000000    0.0000000    0.0000000  
C   -1.1546565    0.0001470   -0.8669508  
C   -0.6372019    0.0003521   -2.2486278  
N    0.7342867    0.0007339   -2.1395012  
C   -1.4147744    0.0001355   -3.3608713  
C   -2.8576053   -0.0001045   -3.1854455  
O   -3.6427786   -0.0002490   -4.1244897  
C   -3.4275841   -0.0000724   -1.7311660  
O   -4.6406832    0.0000334   -1.5710050  
C   -2.4891868   -0.0001090   -0.6116739  
H   -1.0150456    0.0001619   -4.3654240  
H   -2.8919122   -0.0002919    0.3920871  
H    2.1388269    0.0000663   -0.5261650  
C    0.0000000    0.0000000    1.4700000  
C    1.0662921    0.0000102    2.3034270  
C    0.4961870   -0.0000064    3.6418889  
C   -0.9663858    0.0000850    3.4240247  
N   -1.2632773    0.0000084    2.1528658  
C   -1.8985362    0.0000517    4.5177257  
C   -1.3925775   -0.0004564    5.7720543  
O   -2.1456383   -0.0005410    6.8851312  
C    0.0786232   -0.0009323    6.0245000  
O    0.4683759   -0.0012588    7.1921102  
C    1.0143166   -0.0008442    4.8859032  
H    2.1107198   -0.0000632    2.0421868  
H   -2.9622183    0.0003270    4.3293377  
H   -1.5042274   -0.0009692    7.6184419  
H    2.0724152   -0.0013148    5.1109744  
