46
4A 5B 35A 36B 11 12 45 42 1 7 1 7 2 0 2 0 nosym
C    2.9051163   -0.7124842   -3.3209617  
C    1.7334694    0.0049281   -3.2500363  
C    1.6171230    0.7339644   -4.4705154  
C    2.7567449    0.4186351   -5.2539407  
N    3.5189984   -0.4605940   -4.5255565  
C    2.9738869    0.9592194   -6.5249274  
C    2.0231179    1.8338284   -7.0140852  
O    2.1853257    2.3904467   -8.2497545  
C    0.8795483    2.1610972   -6.2472993  
O    0.0258560    3.0463923   -6.8724439  
C    0.6648189    1.6283848   -4.9932519  
H    4.3842810   -0.8687648   -4.8299639  
H    3.8404560    0.7230261   -7.1269851  
H    1.4198483    2.9617214   -8.3945063  
H   -0.7195808    3.2143297   -6.2878716  
H   -0.2205133    1.8978757   -4.4293022  
H    3.3521847   -1.3828198   -2.6070018  
C    1.1319246    0.0015678   -0.8009269  
C    0.7969914    0.0034958   -2.1169402  
C   -0.6453340    0.0035696   -2.1842669  
C   -1.1266833    0.0015410   -0.7896025  
N    0.0000000    0.0000000    0.0000000  
C   -2.4346130    0.0013912   -0.4276293  
C   -3.4350112    0.0031335   -1.4820181  
O   -4.6384613    0.0030876   -1.2583913  
C   -2.9478960    0.0050441   -2.9661073  
O   -3.7809383    0.0062138   -3.8623774  
C   -1.5113825    0.0053055   -3.2312121  
H   -2.7664565    0.0000174    0.6013448  
H   -1.1823532    0.0068381   -4.2614847  
H    2.1104315    0.0009436   -0.3488059  
C    0.8400945    0.7047457    2.2710304  
C    0.0000000    0.0000000    1.4700000  
C   -0.8844236   -0.7423113    2.3369512  
C   -0.4878984   -0.4098547    3.7186280  
N    0.5629682    0.4714286    3.6095011  
C   -1.0836927   -0.9095027    4.8308716  
C   -2.1891196   -1.8367527    4.6554461  
O   -2.7906899   -2.3413415    5.5944904  
C   -2.6257283   -2.2031529    3.2011665  
O   -3.5549479   -2.9829990    3.0410059  
C   -1.9068976   -1.5999348    2.0816745  
H   -0.7774656   -0.6525820    5.8354244  
H   -2.2155208   -1.8586617    1.0779135  
H    1.6384792    1.3747609    1.9961646  
H    1.0518368    0.8833920    4.3830260  
