48
0A 1A 10B 31A 32A 41B 16 11 15 47 42 46 2 3 4 2 3 4 3 0 3 0 nosym
C    5.7263111   -2.1250318   -4.6502146  
C    5.5046683   -1.6274764   -5.9134566  
C    4.3816203   -0.7525056   -5.8252013  
C    3.9566978   -0.7558948   -4.4719255  
N    4.7934588   -1.6010090   -3.7861918  
C    2.8699635   -0.0020528   -4.0185828  
C    2.2001692    0.7694967   -4.9482412  
O    1.1321258    1.5252427   -4.5594673  
C    2.6088027    0.7858186   -6.3030731  
O    1.8403276    1.6035674   -7.1056164  
C    3.6806352    0.0421765   -6.7510653  
H    6.0807973   -1.8666906   -6.7908654  
H    4.7423957   -1.7962902   -2.8027086  
H    0.8157799    1.9787966   -5.3516030  
H    2.1826911    1.5572102   -8.0035268  
H    3.9701834    0.0747322   -7.7948955  
H    6.4751266   -2.8133559   -4.2974511  
C    3.2573667   -0.0002919   -1.5109386  
C    2.5379468   -0.0001709   -0.3591965  
C    1.1435041    0.0000331   -0.7338500  
C    1.1092604   -0.0000084   -2.2088475  
N    2.4227558    0.0001908   -2.6182613  
C   -0.0265536   -0.0002526   -2.9515663  
C   -1.3003039   -0.0002641   -2.2514979  
O   -2.3786786   -0.0004135   -2.8306422  
C   -1.2877726    0.0000311   -0.6895607  
O   -2.3539957    0.0003306   -0.0892033  
C    0.0000000    0.0000000    0.0000000  
H    2.9384090   -0.0000368    0.6389236  
H   -0.0296296   -0.0004089   -4.0327231  
H    4.3270391   -0.0004765   -1.6439450  
C    2.5285572    2.1210227    2.9438989  
C    1.9331703    1.6216660    4.0790748  
C    0.8903039    0.7472258    3.6520102  
C    0.8972198    0.7527806    2.2336141  
N    1.9028376    1.5986179    1.8362361  
C    0.0000000    0.0000000    1.4700000  
C   -0.9207814   -0.7726952    2.1506477  
O   -1.8198395   -1.5274828    1.4542253  
C   -0.9436862   -0.7911793    3.5655508  
O   -1.9197945   -1.6098497    4.0950179  
C   -0.0590329   -0.0485852    4.3195194  
H    2.2150357    1.8593692    5.0905303  
H    2.1533708    1.7953814    0.8841339  
H   -2.3621246   -1.9821033    2.1118817  
H   -1.8668290   -1.5649508    5.0545920  
H   -0.1007624   -0.0827977    5.4019087  
H    3.3491200    2.8096064    2.8367138  
