50
1A 10B 37A 38B 11 15 44 45 3 4 1 7 2 0 2 0 nosym
C   -0.1918148   -0.6567178   -5.1170602  
C   -0.1066393   -0.3930679   -6.4645401  
C   -1.1576379    0.5190792   -6.7775725  
C   -1.8568325    0.7783805   -5.5710001  
N   -1.2456336    0.0471730   -4.5828764  
C   -2.9578767    1.6374984   -5.5046085  
C   -3.3602328    2.2461725   -6.6775547  
O   -4.4293353    3.0946810   -6.6693807  
C   -2.6756686    1.9998174   -7.8914320  
O   -3.1976748    2.6804491   -8.9719843  
C   -1.5895503    1.1521861   -7.9577214  
H    0.6225461   -0.8080801   -7.1391116  
H   -3.4951522    1.8391988   -4.5881735  
H   -4.5387352    3.4048095   -7.5777399  
H   -2.6783140    2.4586943   -9.7508898  
H   -1.0853512    0.9828290   -8.9019563  
H    0.4148823   -1.2922853   -4.4950222  
C    1.1243408    0.0099924   -0.7919005  
C    0.7474073    0.0234547   -2.1148544  
C   -0.6787385    0.0234491   -2.1414699  
C   -1.1201747    0.0098593   -0.7935545  
N    0.0000000    0.0000000    0.0000000  
C   -2.4730817    0.0063708   -0.4408237  
C   -3.3971961    0.0170979   -1.4675053  
O   -4.7313517    0.0146259   -1.1793464  
C   -2.9763655    0.0303507   -2.8186320  
O   -4.0166483    0.0395117   -3.7247617  
C   -1.6418568    0.0335262   -3.1673479  
H    1.4178711    0.0310976   -2.9571212  
H   -2.8160166   -0.0041112    0.5845970  
H   -5.1938825    0.0230867   -2.0274377  
H   -3.6464683    0.0482297   -4.6127338  
H    2.1062465    0.0052822   -0.3505410  
C    0.8576279    0.7185626    2.2703808  
C    0.0000000    0.0000000    1.4700000  
C   -0.8668858   -0.7285659    2.3373528  
C   -0.4876752   -0.4117774    3.6669281  
N    0.5635254    0.4678311    3.5902241  
C   -1.1297612   -0.9515493    4.7854808  
C   -2.1738724   -1.8268314    4.5576857  
O   -2.8357962   -2.3827064    5.6140350  
C   -2.5667212   -2.1555554    3.2384331  
O   -3.6226318   -3.0413663    3.1773122  
C   -1.9335634   -1.6236449    2.1344818  
H    1.0363952    0.8769718    4.3757045  
H   -0.8454472   -0.7142436    5.8013813  
H   -3.5178062   -2.9546422    5.2385129  
H   -3.8247440   -3.2102924    2.2519915  
H   -2.2566033   -1.8942483    1.1360343  
H    1.6567807    1.3889844    2.0042067  
