46
0A 1A 10B 22B 36B 16 11 15 29 42 2 3 4 7 7 3 1 1 0 nosym
C    4.3307339   -2.1193154   -1.2711418  
C    5.3837983   -1.6206410   -2.0024735  
C    4.8313684   -0.7469983   -2.9854129  
C    3.4246650   -0.7523137   -2.8035251  
N    3.1543582   -1.5972489   -1.7558436  
C    2.5562217   -0.0001540   -3.6003003  
C    3.1180970    0.7716628   -4.5986852  
O    2.3161051    1.5258166   -5.4055771  
C    4.5193622    0.7898947   -4.7960196  
O    4.9243875    1.6076656   -5.8306928  
C    5.3766838    0.0479127   -4.0105334  
H    6.4222899   -1.8582764   -1.8473674  
H    2.2404344   -1.7936469   -1.3895761  
H    2.9018489    1.9798778   -6.0252525  
H    5.8831614    1.5626528   -5.8964989  
H    6.4456538    0.0819122   -4.1855320  
H    4.3255773   -2.8071981   -0.4430423  
C    0.0000000    0.0000000    0.0000000  
C    1.0541688   -0.0001718   -0.8560391  
C    0.5103141   -0.0000448   -2.1935955  
C   -0.9576367    0.0002462   -2.0455732  
N   -1.2018459   -0.0001391   -0.6915971  
C   -1.8348307    0.0008319   -3.0810611  
C   -1.2972843    0.0009743   -4.4314607  
O   -2.0050666    0.0014272   -5.4301322  
C    0.2542627    0.0004194   -4.6117573  
O    0.7184676    0.0002268   -5.7439121  
C    1.0974555    0.0000882   -3.4189128  
H    2.0940752   -0.0005478   -0.5817980  
H   -2.9081051    0.0011669   -2.9507063  
H   -2.1128195    0.0014909   -0.2706793  
C    1.0672568    0.0000697    2.3021913  
C    0.0000000    0.0000000    1.4700000  
C   -1.1601224    0.0000736    2.3478473  
C   -0.5938729    0.0000769    3.7138435  
N    0.7113367    0.0001554    3.6934124  
C   -1.4286986    0.0001879    4.8835240  
C   -2.7683114    0.0006799    4.6970523  
O   -3.6653903    0.0008304    5.6976972  
C   -3.3702025    0.0010610    3.3310774  
O   -4.5974910    0.0013779    3.2362962  
C   -2.4926826    0.0008943    2.1470656  
H   -0.9878360   -0.0000190    5.8697035  
H   -4.5324246    0.0012261    5.2533954  
H   -2.9677772    0.0012974    1.1752040  
H    2.1134392    0.0000545    2.0405121  
