46
0A 4A 5B 27B 31A 32A 41B 16 12 13 30 44 42 43 2 1 7 4 2 3 4 3 1 3 0 nosym
C   -4.4234274    2.1222537   -0.0293809  
C   -3.3650429    1.6606156   -0.7771641  
C   -3.9025165    0.7730544   -1.7559171  
C   -5.3060543    0.7325421   -1.5550037  
N   -5.5885349    1.5615012   -0.4978143  
C   -6.1607759   -0.0439274   -2.3432515  
C   -5.5882382   -0.7929133   -3.3529040  
O   -6.3767045   -1.5686461   -4.1526375  
C   -4.1898491   -0.7659926   -3.5687767  
O   -3.7730105   -1.5663382   -4.6123452  
C   -3.3460097   -0.0004262   -2.7913647  
H   -2.3324822    1.9295467   -0.6340279  
H   -6.5054755    1.7425840   -0.1311943  
H   -7.2312988   -0.0792605   -2.1951503  
H   -5.7852137   -2.0014414   -4.7819952  
H   -2.8171049   -1.4906988   -4.6906196  
H   -4.4392464    2.8060391    0.8019711  
C    0.0000000    0.0000000    0.0000000  
C    1.0662919   -0.0000103   -0.8334272  
C    0.4961868    0.0000066   -2.1718889  
C   -0.9663860   -0.0000849   -1.9540248  
N   -1.2632775   -0.0000084   -0.6828659  
C   -1.8985364   -0.0000515   -3.0477258  
C   -1.3925778    0.0004567   -4.3020543  
O   -2.1456385    0.0005412   -5.4151314  
C    0.0786229    0.0009326   -4.5544999  
O    0.4683756    0.0012594   -5.7221104  
C    1.0143162    0.0008443   -3.4159034  
H    2.1107195    0.0000631   -0.5721869  
H   -1.5042277    0.0009692   -6.1484420  
H    2.0724151    0.0013151   -3.6409746  
C    3.2798086   -0.0005857    2.9199648  
C    2.5571146   -0.0005566    4.0696553  
C    1.1637436   -0.0001548    3.6910360  
C    1.1336965    0.0000200    2.2159470  
N    2.4483514    0.0001428    1.8102719  
C    0.0000000    0.0000000    1.4700000  
C   -1.2757367    0.0000186    2.1664417  
O   -2.3524596    0.0000640    1.5842315  
C   -1.2676493    0.0000873    3.7284083  
O   -2.3355761    0.0004100    4.3257297  
C    0.0181563   -0.0001760    4.4216297  
H    2.9547357   -0.0006076    5.0689105  
H    0.0150794   -0.0003319    5.5031631  
H    4.3498549   -0.0008612    2.7900019  
H    2.7563627   -0.0012824    0.8551938  
