50
37A 38B 10B 21B 26B 44 45 15 29 32 1 7 4 7 4 2 1 2 0 nosym
C    3.3003548    0.0005276   -1.4738982  
C    2.5232817    0.0003497   -2.6090743  
C    1.1623206   -0.0001319   -2.1820098  
C    1.1711888    0.0000583   -0.7636138  
N    2.4852302   -0.0014919   -0.3662355  
C    0.0000000    0.0000000    0.0000000  
C   -1.2020381    0.0000520   -0.6806479  
O   -2.3759246    0.0003495    0.0157742  
C   -1.2314650   -0.0005112   -2.0955510  
O   -2.5054382   -0.0008036   -2.6250182  
C   -0.0764510   -0.0007271   -2.8495193  
H    2.8919962   -0.0005619   -3.6205297  
H    2.8036267    0.0088181    0.5858667  
H   -3.0835639    0.0000348   -0.6418822  
H   -2.4360046   -0.0011526   -3.5845924  
H   -0.1304090   -0.0013420   -3.9319086  
C    4.7630507    0.0004755   -1.3275395  
C    5.7496390    0.0026153   -2.2862399  
C    6.9990004    0.0020518   -1.5979844  
C    6.7092701   -0.0007683   -0.2094692  
N    5.3425445    0.0002886   -0.0803284  
C    7.7059377   -0.0023442    0.7710611  
C    9.0190063   -0.0013565    0.3420779  
O   10.0316324   -0.0031640    1.2572826  
C    9.3281965    0.0018263   -1.0389394  
O   10.6818191    0.0028646   -1.3054858  
C    8.3454711    0.0036556   -2.0068100  
H    5.5886421    0.0054719   -3.3506952  
H    4.8418150   -0.0117288    0.7897905  
H    7.4916923   -0.0043504    1.8309183  
H   10.8555487   -0.0017606    0.7528766  
H   10.8038891    0.0050068   -2.2597908  
H    8.6128211    0.0062686   -3.0570460  
C    0.8576279    0.7185626    2.2703808  
C    0.0000000    0.0000000    1.4700000  
C   -0.8668858   -0.7285659    2.3373528  
C   -0.4876752   -0.4117774    3.6669281  
N    0.5635254    0.4678311    3.5902241  
C   -1.1297612   -0.9515493    4.7854808  
C   -2.1738724   -1.8268314    4.5576857  
O   -2.8357962   -2.3827064    5.6140350  
C   -2.5667212   -2.1555554    3.2384331  
O   -3.6226318   -3.0413663    3.1773122  
C   -1.9335634   -1.6236449    2.1344818  
H    1.0363952    0.8769718    4.3757045  
H   -0.8454472   -0.7142436    5.8013813  
H   -3.5178062   -2.9546422    5.2385129  
H   -3.8247440   -3.2102924    2.2519915  
H   -2.2566033   -1.8942483    1.1360343  
H    1.6567807    1.3889844    2.0042067  
