46
0A 1A 10B 27B 35A 36B 16 11 15 30 45 42 2 3 4 4 1 7 3 1 2 0 nosym
C    6.8064686    0.0000399   -4.0743113  
C    7.7887306    0.0006876   -3.1111769  
C    7.1308655    0.0013415   -1.8455493  
C    5.7357521    0.0007675   -2.1016434  
N    5.5736258    0.0019333   -3.4648494  
C    4.7795901    0.0008674   -1.0815733  
C    5.2401778    0.0012525    0.2207465  
O    4.3497074    0.0010154    1.2551913  
C    6.6282665    0.0022030    0.4964750  
O    6.9274446    0.0029069    1.8432618  
C    7.5721095    0.0023781   -0.5093510  
H    8.8489886    0.0017937   -3.2978482  
H    4.6916431   -0.0087004   -3.9444062  
H    4.8738766    0.0016565    2.0666782  
H    7.8844234    0.0034997    1.9422367  
H    8.6285023    0.0032958   -0.2674563  
H    6.8877383   -0.0001770   -5.1477883  
C    3.3321168    0.0004716   -1.3379341  
C    2.6974177    0.0000118   -2.5332316  
C    1.2800432   -0.0002116   -2.2052842  
C    1.2395033    0.0000644   -0.7271298  
N    2.4394059    0.0005460   -0.2131041  
C    0.0000000    0.0000000    0.0000000  
C   -1.1468704    0.0000635   -0.7169542  
O   -2.3742206    0.0000074   -0.1695488  
C   -1.1388774    0.0001608   -2.2096352  
O   -2.2206238    0.0000906   -2.7970409  
C    0.1454514    0.0001818   -2.9324241  
H    3.1367978   -0.0000649   -3.5160956  
H   -2.9844350    0.0001027   -0.9290164  
H    0.1083567    0.0003684   -4.0135594  
C    0.8400945    0.7047457    2.2710304  
C    0.0000000    0.0000000    1.4700000  
C   -0.8844236   -0.7423113    2.3369512  
C   -0.4878984   -0.4098547    3.7186280  
N    0.5629682    0.4714286    3.6095011  
C   -1.0836927   -0.9095027    4.8308716  
C   -2.1891196   -1.8367527    4.6554461  
O   -2.7906899   -2.3413415    5.5944904  
C   -2.6257283   -2.2031529    3.2011665  
O   -3.5549479   -2.9829990    3.0410059  
C   -1.9068976   -1.5999348    2.0816745  
H   -0.7774656   -0.6525820    5.8354244  
H   -2.2155208   -1.8586617    1.0779135  
H    1.6384792    1.3747609    1.9961646  
H    1.0518368    0.8833920    4.3830260  
