48
1A 10B 27B 35A 36B 11 15 29 42 43 3 4 4 1 7 2 1 2 0 nosym
C   -3.9747611    0.7101856   -1.9417825  
C   -5.3221354    0.4600631   -2.0621548  
C   -5.4813673   -0.4485679   -3.1501045  
C   -4.1854348   -0.7197647   -3.6589637  
N   -3.2941076    0.0012878   -2.9038237  
C   -3.9615344   -1.5791666   -4.7388187  
C   -5.0659635   -2.1758990   -5.3152941  
O   -4.9043396   -3.0241169   -6.3723739  
C   -6.3670286   -1.9175698   -4.8220266  
O   -7.3627229   -2.5871479   -5.5029093  
C   -6.5886805   -1.0696504   -3.7569305  
H   -6.0952349    0.8816080   -1.4427920  
H   -2.9763329   -1.7899000   -5.1314647  
H   -5.7886692   -3.3250681   -6.6186545  
H   -8.2090766   -2.3577378   -5.1071051  
H   -7.5966695   -0.8909694   -3.4012489  
H   -3.4455417    1.3392830   -1.2467128  
C    0.0000000    0.0000000    0.0000000  
C    1.0541688   -0.0001723   -0.8560392  
C    0.5103136   -0.0000455   -2.1935956  
C   -0.9576373    0.0002461   -2.0455730  
N   -1.2018460   -0.0001389   -0.6915968  
C   -1.8348314    0.0008319   -3.0810607  
C   -1.2972851    0.0009739   -4.4314603  
O   -2.0050676    0.0014268   -5.4301316  
C    0.2542619    0.0004184   -4.6117572  
O    0.7184666    0.0002257   -5.7439122  
C    1.0974551    0.0000873   -3.4189129  
H    2.0940752   -0.0005484   -0.5817983  
H    2.1707276   -0.0000912   -3.5523673  
H   -2.1128194    0.0014915   -0.2706789  
C    1.1188642   -0.0008217    2.2703808  
C    0.0000000    0.0000000    1.4700000  
C   -1.1323862   -0.0008904    2.3373528  
C   -0.6382662   -0.0019682    3.6669281  
N    0.7324016   -0.0038477    3.5902241  
C   -1.4770914   -0.0027325    4.7854808  
C   -2.8395474   -0.0020958    4.5576857  
O   -3.7039201   -0.0024443    5.6140350  
C   -3.3517868   -0.0013946    3.2384331  
O   -4.7300496   -0.0012389    3.1773122  
C   -2.5248543   -0.0009135    2.1344818  
H    1.3576314    0.0056174    4.3757045  
H   -1.1067570   -0.0036993    5.8013813  
H   -4.5940033   -0.0021850    5.2385129  
H   -4.9934601   -0.0007286    2.2519915  
H   -2.9462578   -0.0005617    1.1360343  
H    2.1619896   -0.0009344    2.0042067  
