48
0A 1A 10B 22B 33A 34A 43B 16 11 15 30 47 44 46 2 3 4 7 2 3 4 3 1 3 0 nosym
C    4.3172329   -2.1275107   -1.4345757  
C    5.3517656   -1.6298993   -2.1925942  
C    4.7753756   -0.7549190   -3.1604702  
C    3.3738328   -0.7583605   -2.9423147  
N    3.1294743   -1.6035137   -1.8884538  
C    2.4861704   -0.0045250   -3.7159919  
C    3.0231693    0.7670716   -4.7281422  
O    2.2016776    1.5228139   -5.5136483  
C    4.4188951    0.7834462   -4.9615918  
O    4.7982245    1.6012379   -6.0059423  
C    5.2951623    0.0398105   -4.1989071  
H    6.3935781   -1.8690833   -2.0644885  
H    2.2250366   -1.7988359   -1.4988095  
H    2.7718664    1.9764050   -6.1480017  
H    5.7549141    1.5549147   -6.0965130  
H    6.3593034    0.0724071   -4.4014377  
H    4.3324880   -2.8158588   -0.6069876  
C    0.0000000    0.0000000    0.0000000  
C    1.0521669   -0.0011846   -0.8862340  
C    0.4917221   -0.0011929   -2.1979129  
C   -0.9187427    0.0003105   -2.0478683  
N   -1.1833170   -0.0009470   -0.7007914  
C   -1.7951698    0.0010264   -3.1372090  
C   -1.2375835    0.0005167   -4.4010424  
O   -2.0474208    0.0015263   -5.4997579  
C    0.1673584   -0.0013551   -4.5711963  
O    0.5673529   -0.0020652   -5.8915551  
C    1.0325773   -0.0023355   -3.4969889  
H    2.0953059   -0.0030541   -0.6200561  
H   -2.0989778    0.0102266   -0.2891826  
H   -2.8710930    0.0020277   -3.0295514  
H   -1.4634881    0.0006434   -6.2693595  
H    1.5290714   -0.0033067   -5.9180046  
C    3.3321173   -0.0004715    2.8079335  
C    2.6974184   -0.0000116    4.0032312  
C    1.2800439    0.0002118    3.6752840  
C    1.2395035   -0.0000644    2.1971295  
N    2.4394063   -0.0005460    1.6831036  
C    0.0000000    0.0000000    1.4700000  
C   -1.1468701   -0.0000635    2.1869543  
O   -2.3742202   -0.0000073    1.6395491  
C   -1.1388768   -0.0001607    3.6796354  
O   -2.2206231   -0.0000905    4.2670412  
C    0.1454524   -0.0001816    4.4024240  
H    3.1367986    0.0000651    4.9860947  
H   -2.9844344   -0.0001026    2.3990168  
H    0.1083576   -0.0003682    5.4835595  
H    4.3940039   -0.0007619    2.6198634  
