46
4A 5B 17A 36B 11 12 29 42 1 7 2 7 2 1 1 0 nosym
C    0.8250154   -0.7186619   -5.2242751  
C   -0.0307352   -0.0004646   -4.4215603  
C   -0.9004936    0.7274898   -5.2865476  
C   -0.5248891    0.4107217   -6.6171509  
N    0.5270189   -0.4682862   -6.5433121  
C   -1.1704575    0.9499720   -7.7339499  
C   -2.2144074    1.8247015   -7.5033098  
O   -2.8796454    2.3800526   -8.5578515  
C   -2.6036860    2.1533957   -6.1829924  
O   -3.6599148    3.0386230   -6.1189942  
C   -1.9670919    1.6219999   -5.0807708  
H    0.9978815   -0.8772750   -7.3300763  
H   -0.8889013    0.7126787   -8.7506213  
H   -3.5609048    2.9516599   -8.1804728  
H   -3.8594888    3.2075696   -5.1931265  
H   -2.2874418    1.8925663   -4.0814470  
H    1.6252982   -1.3885969   -4.9602796  
C    3.2573670   -0.0002920   -1.5109380  
C    2.5379468   -0.0001709   -0.3591961  
C    1.1435043    0.0000332   -0.7338500  
C    1.1092609   -0.0000082   -2.2088477  
N    2.4227562    0.0001909   -2.6182613  
C   -0.0265532   -0.0002522   -2.9515663  
C   -1.3003035   -0.0002639   -2.2514981  
O   -2.3786784   -0.0004131   -2.8306429  
C   -1.2877725    0.0000312   -0.6895608  
O   -2.3539958    0.0003307   -0.0892036  
C    0.0000000    0.0000000    0.0000000  
H    2.9384091   -0.0000369    0.6389239  
H    4.3270394   -0.0004765   -1.6439446  
H    2.7280494   -0.0013406   -3.5742113  
C    0.8175213    0.6860729    2.3021913  
C    0.0000000    0.0000000    1.4700000  
C   -0.8887526   -0.7456559    2.3478473  
C   -0.4549825   -0.3816753    3.7138435  
N    0.5448156    0.4573574    3.6934124  
C   -1.0945674   -0.9182058    4.8835240  
C   -2.1210866   -1.7789155    4.6970523  
O   -2.8083856   -2.3554314    5.6976972  
C   -2.5824069   -2.1655116    3.3310774  
O   -3.5227682   -2.9541547    3.2362962  
C   -1.9100805   -1.6015804    2.1470656  
H   -0.7567140   -0.6349833    5.8697035  
H   -3.4728268   -2.9124471    5.2533954  
H   -2.2742832   -1.9066565    1.1752040  
H    1.6189533    1.3585343    2.0405121  
