46
0A 1A 10B 31A 35A 36B 16 11 15 44 45 43 2 3 4 2 1 7 3 0 3 0 nosym
C    5.7263111   -2.1250318   -4.6502146  
C    5.5046683   -1.6274764   -5.9134566  
C    4.3816203   -0.7525056   -5.8252013  
C    3.9566978   -0.7558948   -4.4719255  
N    4.7934588   -1.6010090   -3.7861918  
C    2.8699635   -0.0020528   -4.0185828  
C    2.2001692    0.7694967   -4.9482412  
O    1.1321258    1.5252427   -4.5594673  
C    2.6088027    0.7858186   -6.3030731  
O    1.8403276    1.6035674   -7.1056164  
C    3.6806352    0.0421765   -6.7510653  
H    6.0807973   -1.8666906   -6.7908654  
H    4.7423957   -1.7962902   -2.8027086  
H    0.8157799    1.9787966   -5.3516030  
H    2.1826911    1.5572102   -8.0035268  
H    3.9701834    0.0747322   -7.7948955  
H    6.4751266   -2.8133559   -4.2974511  
C    3.2573667   -0.0002919   -1.5109386  
C    2.5379468   -0.0001709   -0.3591965  
C    1.1435041    0.0000331   -0.7338500  
C    1.1092604   -0.0000084   -2.2088475  
N    2.4227558    0.0001908   -2.6182613  
C   -0.0265536   -0.0002526   -2.9515663  
C   -1.3003039   -0.0002641   -2.2514979  
O   -2.3786786   -0.0004135   -2.8306422  
C   -1.2877726    0.0000311   -0.6895607  
O   -2.3539957    0.0003306   -0.0892033  
C    0.0000000    0.0000000    0.0000000  
H    2.9384090   -0.0000368    0.6389236  
H   -0.0296296   -0.0004089   -4.0327231  
H    4.3270391   -0.0004765   -1.6439450  
C    2.4951002    2.0940188    2.9809380  
C    1.9440701    1.6314916    1.8291961  
C    0.8759964    0.7350050    2.2038498  
C    0.8497377    0.7130254    3.6788474  
N    1.8560616    1.5571714    4.0882609  
C   -0.0205033   -0.0168748    4.4215661  
C   -0.9962600   -0.8356168    3.7214979  
O   -1.8224391   -1.5286685    4.3006425  
C   -0.9864710   -0.8277881    2.1595606  
O   -1.8030528   -1.5133726    1.5592035  
C    0.0000000    0.0000000    1.4700000  
H    2.2509283    1.8888011    0.8310761  
H   -0.0229599   -0.0187323    5.5027230  
H    3.3143982    2.7817323    3.1139444  
H    2.0889452    1.7545833    5.0442112  
