46
0A 4A 5B 27B 32A 41B 16 12 13 29 42 44 2 1 7 4 3 4 3 1 2 0 nosym
C    6.6682522    0.0022276   -4.3668309  
C    5.4175873    0.0023081   -3.7938519  
C    5.6072942    0.0015089   -2.3801297  
C    7.0065885    0.0012481   -2.1479616  
N    7.6213763   -0.0002536   -3.3754187  
C    7.5601869    0.0007902   -0.8640936  
C    6.6852682    0.0008990    0.2048753  
O    7.1721933    0.0008180    1.4799903  
C    5.2859246    0.0007830   -0.0064392  
O    4.5477717    0.0004895    1.1590965  
C    4.7390840    0.0009613   -1.2727298  
H    4.4834519    0.0017680   -4.3290000  
H    8.6137258    0.0097952   -3.5274775  
H    8.6257728    0.0004456   -0.6804407  
H    6.4039032    0.0006187    2.0656480  
H    3.6139327    0.0004556    0.9276922  
H    6.9558185    0.0022981   -5.4042627  
C    3.2798077    0.0005856   -1.4499661  
C    2.5571132    0.0005565   -2.5996564  
C    1.1637425    0.0001547   -2.2210366  
C    1.1336959   -0.0000200   -0.7459475  
N    2.4483509   -0.0001429   -0.3402730  
C    0.0000000    0.0000000    0.0000000  
C   -1.2757370   -0.0000187   -0.6964411  
O   -2.3524597   -0.0000640   -0.1142306  
C   -1.2676502   -0.0000874   -2.2584078  
O   -2.3355774   -0.0004102   -2.8557287  
C    0.0181551    0.0001758   -2.9516297  
H    2.9547342    0.0006074   -3.5989118  
H    0.0150776    0.0003317   -4.0331632  
H    2.7563626    0.0012823    0.6148051  
C    0.8681109    0.7263879    2.2709268  
C    0.6127770    0.5096195    3.5869401  
C   -0.4920590   -0.4175482    3.6542670  
C   -0.8620974   -0.7254003    2.2596025  
N    0.0000000    0.0000000    1.4700000  
C   -1.8641242   -1.5660088    1.8976294  
C   -2.6293522   -2.2103885    2.9520183  
O   -3.5512764   -2.9839180    2.7283916  
C   -2.2549728   -1.8987399    4.4361073  
O   -2.8923672   -2.4351063    5.3323774  
C   -1.1543735   -0.9755647    4.7012123  
H    1.1382914    0.9492124    4.4159191  
H   -2.1192137   -1.7782617    0.8686553  
H   -0.9013378   -0.7652422    5.7314848  
H    1.6172880    1.3558399    1.8188057  
