46
1A 10B 31A 32A 41B 11 15 45 42 44 3 4 2 3 4 2 0 3 0 nosym
C    4.4176665   -0.7085316   -4.2417829  
C    4.7001260   -0.4581803   -5.5646620  
C    3.7072550    0.4501167   -6.0377405  
C    2.8385605    0.7208836   -4.9496310  
N    3.2973504   -0.0000931   -3.8752375  
C    1.7403925    1.5798775   -5.0542519  
C    1.5152389    2.1766372   -6.2795527  
O    0.4572121    3.0244670   -6.4369578  
C    2.3705457    1.9187335   -7.3771653  
O    2.0135222    2.5882814   -8.5293734  
C    3.4539441    1.0712166   -7.2747500  
H    5.5201900   -0.8793625   -6.1206243  
H    1.0744465    1.7902824   -4.2287537  
H    0.4827203    3.3255122   -7.3545556  
H    2.6415226    2.3591734   -9.2212755  
H    4.0912830    0.8928563   -8.1329255  
H    4.9258723   -1.3375011   -3.5310909  
C    3.3321173    0.0004715   -1.3379333  
C    2.6974184    0.0000117   -2.5332310  
C    1.2800439   -0.0002118   -2.2052839  
C    1.2395035    0.0000643   -0.7271293  
N    2.4394063    0.0005460   -0.2131035  
C    0.0000000    0.0000000    0.0000000  
C   -1.1468702    0.0000634   -0.7169541  
O   -2.3742202    0.0000072   -0.1695491  
C   -1.1388767    0.0001606   -2.2096353  
O   -2.2206230    0.0000901   -2.7970412  
C    0.1454525    0.0001815   -2.9324239  
H   -2.9844345    0.0001024   -0.9290167  
H    0.1083577    0.0003682   -4.0135594  
H    4.3940039    0.0007620   -1.1498632  
C    2.5528530    2.1414826    2.8079335  
C    2.0663498    1.7338582    4.0032312  
C    0.9804344    0.8229586    3.6752840  
C    0.9495562    0.7966882    2.1971295  
N    1.8690446    1.5676019    1.6831036  
C    0.0000000    0.0000000    1.4700000  
C   -0.8785127   -0.7372425    2.1869543  
O   -1.8187535   -1.5261249    1.6395491  
C   -0.8723269   -0.7321790    3.6796354  
O   -1.7010379   -1.4274584    4.2670412  
C    0.1115397    0.0933559    4.4024240  
H    2.4028853    2.0163452    4.9860947  
H   -2.2861435   -1.9184361    2.3990168  
H    0.0832434    0.0693689    5.4835595  
H    3.3664920    2.8238276    2.6198634  
