48
4A 5B 27B 33A 34A 43B 11 12 32 46 44 45 1 7 4 2 3 4 2 1 3 0 nosym
C   -3.9681725    0.7212990   -2.0574931  
C   -3.2578655    0.0024282   -2.9908505  
C   -4.2079360   -0.7248753   -3.7673781  
C   -5.4928369   -0.4070346   -3.2575411  
N   -5.3109864    0.4719585   -2.2188310  
C   -6.6702913   -0.9454248   -3.7852967  
C   -6.5484456   -1.8203808   -4.8472677  
O   -7.6659971   -2.3749223   -5.4009621  
C   -5.2751860   -2.1501405   -5.3696526  
O   -5.3203719   -3.0354628   -6.4267738  
C   -4.1131573   -1.6195933   -4.8493304  
H   -6.0450797    0.8815921   -1.6699340  
H   -7.6526021   -0.7073120   -3.4011487  
H   -7.3608081   -2.9468580   -6.1172119  
H   -4.4199386   -3.2051531   -6.7200813  
H   -3.1521009   -1.8909672   -5.2702880  
H   -3.6230945    1.3910577   -1.2885307  
C    0.0000000    0.0000000    0.0000000  
C    1.0521666   -0.0011982   -0.8862343  
C    0.4917215   -0.0011996   -2.1979132  
C   -0.9187429    0.0003215   -2.0478682  
N   -1.1833171   -0.0009323   -0.7007913  
C   -1.7951703    0.0010483   -3.1372089  
C   -1.2375841    0.0005313   -4.4010422  
O   -2.0474218    0.0015510   -5.4997578  
C    0.1673576   -0.0013585   -4.5711963  
O    0.5673520   -0.0020735   -5.8915554  
C    1.0325768   -0.0023493   -3.4969892  
H    2.0953056   -0.0030808   -0.6200564  
H   -2.0989778    0.0102529   -0.2891822  
H   -1.4634888    0.0006601   -6.2693595  
H    1.5290707   -0.0033271   -5.9180047  
H    2.1042146   -0.0039770   -3.6584456  
C    3.2798086   -0.0005857    2.9199648  
C    2.5571146   -0.0005566    4.0696553  
C    1.1637436   -0.0001548    3.6910360  
C    1.1336965    0.0000200    2.2159470  
N    2.4483514    0.0001428    1.8102719  
C    0.0000000    0.0000000    1.4700000  
C   -1.2757367    0.0000186    2.1664417  
O   -2.3524596    0.0000640    1.5842315  
C   -1.2676493    0.0000873    3.7284083  
O   -2.3355761    0.0004100    4.3257297  
C    0.0181563   -0.0001760    4.4216297  
H    2.9547357   -0.0006076    5.0689105  
H    0.0150794   -0.0003319    5.5031631  
H    4.3498549   -0.0008612    2.7900019  
H    2.7563627   -0.0012824    0.8551938  
