46
1A 10B 17A 36B 41B 11 15 30 43 45 3 4 2 7 4 2 1 2 0 nosym
C    0.9407942   -0.7075078   -5.2230669  
C    0.6134859   -0.4569318   -6.5355261  
C   -0.4865817    0.4509911   -6.5242558  
C   -0.7892285    0.7213084   -5.1651162  
N    0.0950452    0.0004352   -4.4015596  
C   -1.8220582    1.5798545   -4.7765924  
C   -2.5626673    2.1766200   -5.7783645  
O   -3.5826122    3.0240229   -5.4548940  
C   -2.2762259    1.9191609   -7.1401587  
O   -3.1032304    2.5886541   -8.0183309  
C   -1.2576378    1.0720860   -7.5241746  
H    1.1062033   -0.8777279   -7.3952665  
H   -2.0578699    1.7899155   -3.7424411  
H   -3.9627899    3.3251531   -6.2903880  
H   -2.8428295    2.3598632   -8.9157994  
H   -1.0618888    0.8940603   -8.5751111  
H    1.7097008   -1.3363238   -4.8079381  
C    3.3321174    0.0004718   -1.3379334  
C    2.6974185    0.0000117   -2.5332310  
C    1.2800440   -0.0002117   -2.2052839  
C    1.2395036    0.0000644   -0.7271297  
N    2.4394063    0.0005460   -0.2131035  
C    0.0000000    0.0000000    0.0000000  
C   -1.1468700    0.0000635   -0.7169545  
O   -2.3742202    0.0000073   -0.1695490  
C   -1.1388767    0.0001607   -2.2096357  
O   -2.2206230    0.0000904   -2.7970414  
C    0.1454526    0.0001816   -2.9324241  
H    3.1367988   -0.0000648   -3.5160946  
H   -2.9844344    0.0001025   -0.9290171  
H    4.3940040    0.0007621   -1.1498634  
C    0.0000000    0.0000000    1.4700000  
C    1.0662921    0.0000102    2.3034270  
C    0.4961870   -0.0000064    3.6418889  
C   -0.9663858    0.0000850    3.4240247  
N   -1.2632773    0.0000084    2.1528658  
C   -1.8985362    0.0000517    4.5177257  
C   -1.3925775   -0.0004564    5.7720543  
O   -2.1456383   -0.0005410    6.8851312  
C    0.0786232   -0.0009323    6.0245000  
O    0.4683759   -0.0012588    7.1921102  
C    1.0143166   -0.0008442    4.8859032  
H    2.1107198   -0.0000632    2.0421868  
H   -2.9622183    0.0003270    4.3293377  
H   -1.5042274   -0.0009692    7.6184419  
H    2.0724152   -0.0013148    5.1109744  
