48
1A 10B 22B 33A 34A 43B 11 15 30 46 44 45 3 4 7 2 3 4 2 1 3 0 nosym
C    3.3982216   -0.7145342   -2.9707414  
C    4.6647820   -0.4659147   -3.4466420  
C    4.5287039    0.4429083   -4.5375697  
C    3.1442606    0.7157658   -4.6817640  
N    2.4861704   -0.0045250   -3.7159919  
C    2.6410753    1.5757960   -5.6625506  
C    3.5520997    2.1714609   -6.5130770  
O    3.1149983    3.0202280   -7.4885515  
C    4.9373397    1.9114705   -6.3852785  
O    5.7157784    2.5801418   -7.3073713  
C    5.4344294    1.0629304   -5.4181135  
H    5.5747281   -0.8885590   -3.0563048  
H    1.5870424    1.7877939   -5.7777582  
H    3.9017681    3.3202503   -7.9620961  
H    6.6368301    2.3496252   -7.1520319  
H    6.5005864    0.8829716   -5.3446134  
H    3.0731455   -1.3432643   -2.1595802  
C    0.0000000    0.0000000    0.0000000  
C    1.0521669   -0.0011846   -0.8862340  
C    0.4917221   -0.0011929   -2.1979129  
C   -0.9187427    0.0003105   -2.0478683  
N   -1.1833170   -0.0009470   -0.7007914  
C   -1.7951698    0.0010264   -3.1372090  
C   -1.2375835    0.0005167   -4.4010424  
O   -2.0474208    0.0015263   -5.4997579  
C    0.1673584   -0.0013551   -4.5711963  
O    0.5673529   -0.0020652   -5.8915551  
C    1.0325773   -0.0023355   -3.4969889  
H    2.0953059   -0.0030541   -0.6200561  
H   -2.0989778    0.0102266   -0.2891826  
H   -2.8710930    0.0020277   -3.0295514  
H   -1.4634881    0.0006434   -6.2693595  
H    1.5290714   -0.0033067   -5.9180046  
C    3.2798086   -0.0005857    2.9199648  
C    2.5571146   -0.0005566    4.0696553  
C    1.1637436   -0.0001548    3.6910360  
C    1.1336965    0.0000200    2.2159470  
N    2.4483514    0.0001428    1.8102719  
C    0.0000000    0.0000000    1.4700000  
C   -1.2757367    0.0000186    2.1664417  
O   -2.3524596    0.0000640    1.5842315  
C   -1.2676493    0.0000873    3.7284083  
O   -2.3355761    0.0004100    4.3257297  
C    0.0181563   -0.0001760    4.4216297  
H    2.9547357   -0.0006076    5.0689105  
H    0.0150794   -0.0003319    5.5031631  
H    4.3498549   -0.0008612    2.7900019  
H    2.7563627   -0.0012824    0.8551938  
