46
5B 10B 22B 35A 36B 13 16 29 45 42 7 4 7 1 7 2 1 2 0 nosym
C    4.7161325   -0.0005435   -1.6923264  
C    5.7254240   -0.0020826   -0.7575559  
C    6.9579233   -0.0022075   -1.4755700  
C    6.6349842   -0.0004069   -2.8567410  
N    5.2655550   -0.0013827   -2.9530733  
C    7.6078556    0.0002912   -3.8608875  
C    8.9308324   -0.0005422   -3.4635106  
O    9.9212226    0.0004353   -4.4027329  
C    9.2730454   -0.0027137   -2.0903018  
O   10.6326707   -0.0037267   -1.8562876  
C    8.3138092   -0.0036767   -1.0991453  
H    5.5899958   -0.0041074    0.3104555  
H    4.7441078    0.0100378   -3.8109451  
H    7.3682586    0.0015183   -4.9153041  
H   10.7569961   -0.0006922   -3.9182263  
H   10.7775869   -0.0051582   -0.9051824  
H    8.6062648   -0.0055250   -0.0556201  
C    3.2573665   -0.0002920   -1.5109385  
C    2.5379463   -0.0001709   -0.3591964  
C    1.1435038    0.0000331   -0.7338500  
C    1.1092599   -0.0000083   -2.2088477  
N    2.4227553    0.0001909   -2.6182613  
C   -0.0265539   -0.0002524   -2.9515660  
C   -1.3003040   -0.0002640   -2.2514977  
O   -2.3786790   -0.0004133   -2.8306421  
C   -1.2877727    0.0000311   -0.6895603  
O   -2.3539959    0.0003306   -0.0892030  
C    0.0000000    0.0000000    0.0000000  
H    2.9384091   -0.0000367    0.6389234  
H   -0.0296303   -0.0004086   -4.0327229  
H    2.7280482   -0.0013407   -3.5742119  
C    0.8400945    0.7047457    2.2710304  
C    0.0000000    0.0000000    1.4700000  
C   -0.8844236   -0.7423113    2.3369512  
C   -0.4878984   -0.4098547    3.7186280  
N    0.5629682    0.4714286    3.6095011  
C   -1.0836927   -0.9095027    4.8308716  
C   -2.1891196   -1.8367527    4.6554461  
O   -2.7906899   -2.3413415    5.5944904  
C   -2.6257283   -2.2031529    3.2011665  
O   -3.5549479   -2.9829990    3.0410059  
C   -1.9068976   -1.5999348    2.0816745  
H   -0.7774656   -0.6525820    5.8354244  
H   -2.2155208   -1.8586617    1.0779135  
H    1.6384792    1.3747609    1.9961646  
H    1.0518368    0.8833920    4.3830260  
