50
4A 5B 17A 33A 34A 43B 11 12 32 49 44 48 1 7 2 2 3 4 2 1 3 0 nosym
C    0.6784431   -0.7158669   -5.1604807  
C   -0.1387079    0.0017019   -4.3179684  
C   -1.0481461    0.7302005   -5.1406544  
C   -0.7354113    0.4143968   -6.4876476  
N    0.3188393   -0.4645849   -6.4638959  
C   -1.4327209    0.9543852   -7.5725256  
C   -2.4647277    1.8288748   -7.2925120  
O   -3.1787630    2.3849187   -8.3142660  
C   -2.7916048    2.1566108   -5.9551424  
O   -3.8437009    3.0417147   -5.8410020  
C   -2.1039442    1.6244865   -4.8843984  
H    0.7522628   -0.8729850   -7.2721866  
H   -1.1991958    0.7178284   -8.6014618  
H   -3.8415778    2.9562099   -7.9049172  
H   -3.9995945    3.2099948   -4.9066665  
H   -2.3770362    1.8943257   -3.8709460  
H    1.4902648   -1.3859282   -4.9348210  
C    3.3041273    0.0001178   -1.5420428  
C    2.5845373   -0.0004780   -0.3695851  
C    1.2040007   -0.0000007   -0.7283589  
C    1.1422374    0.0006038   -2.1454372  
N    2.4348641    0.0026111   -2.6077464  
C   -0.0655179    0.0008799   -2.8497918  
C   -1.2321766    0.0002325   -2.1101402  
O   -2.4392814    0.0001148   -2.7472522  
C   -1.1911209   -0.0000007   -0.6955266  
O   -2.4371528   -0.0002320   -0.1032862  
C    0.0000000    0.0000000    0.0000000  
H    3.0031533   -0.0000660    0.6222584  
H    2.7054631   -0.0071097   -3.5745261  
H   -3.1132988   -0.0000648   -2.0551787  
H   -2.3200282   -0.0004072    0.8516409  
H    4.3686625    0.0004073   -1.7024290  
C    2.5285572    2.1210227    2.9438989  
C    1.9331703    1.6216660    4.0790748  
C    0.8903039    0.7472258    3.6520102  
C    0.8972198    0.7527806    2.2336141  
N    1.9028376    1.5986179    1.8362361  
C    0.0000000    0.0000000    1.4700000  
C   -0.9207814   -0.7726952    2.1506477  
O   -1.8198395   -1.5274828    1.4542253  
C   -0.9436862   -0.7911793    3.5655508  
O   -1.9197945   -1.6098497    4.0950179  
C   -0.0590329   -0.0485852    4.3195194  
H    2.2150357    1.8593692    5.0905303  
H    2.1533708    1.7953814    0.8841339  
H   -2.3621246   -1.9821033    2.1118817  
H   -1.8668290   -1.5649508    5.0545920  
H   -0.1007624   -0.0827977    5.4019087  
H    3.3491200    2.8096064    2.8367138  
