46
0A 1A 10B 31A 36B 16 11 15 45 43 2 3 4 2 7 3 0 2 0 nosym
C    5.9970950   -2.1175912   -4.3993399  
C    5.8630848   -1.6188244   -5.6743850  
C    4.7353250   -0.7455326   -5.6634628  
C    4.2173445   -0.7511475   -4.3430118  
N    5.0056514   -1.5959158   -3.6016915  
C    3.1006056    0.0006265   -3.9654949  
C    2.4959296    0.7723580   -4.9386215  
O    1.4023229    1.5261398   -4.6242154  
C    2.9977496    0.7908845   -6.2617430  
O    2.2857253    1.6085239   -7.1148725  
C    4.0992359    0.0492832   -6.6349477  
H    6.4991783   -1.8561748   -6.5098749  
H    4.8866203   -1.7924534   -2.6243554  
H    1.1411483    1.9802050   -5.4359280  
H    2.6897592    1.5637280   -7.9868552  
H    4.4606111    0.0835020   -7.6560816  
H    6.7205888   -2.8052918   -3.9961249  
C    3.2798083    0.0005856   -1.4499650  
C    2.5571143    0.0005567   -2.5996555  
C    1.1637433    0.0001550   -2.2210361  
C    1.1336964   -0.0000198   -0.7459472  
N    2.4483513   -0.0001427   -0.3402721  
C    0.0000000    0.0000000    0.0000000  
C   -1.2757369   -0.0000185   -0.6964416  
O   -2.3524597   -0.0000637   -0.1142312  
C   -1.2676495   -0.0000871   -2.2584083  
O   -2.3355763   -0.0004098   -2.8557295  
C    0.0181559    0.0001761   -2.9516296  
H    0.0150790    0.0003322   -4.0331631  
H    4.3498547    0.0008612   -1.3200024  
H    2.7563627    0.0012823    0.6148060  
C    2.3971438    2.0127888    3.1728260  
C    1.9431056    1.6308205    1.9564670  
C    0.8496017    0.7127664    2.2356185  
C    0.7794028    0.6545384    3.7115134  
N    1.6840587    1.4146091    4.2663826  
C   -0.1885723   -0.1578550    4.3957118  
C   -1.0476298   -0.8789867    3.6398520  
O   -2.0015663   -1.6796266    4.1448486  
C   -1.0022026   -0.8410666    2.1483229  
O   -1.8147390   -1.5232959    1.5241687  
C    0.0000000    0.0000000    1.4700000  
H    2.3054237    1.9346118    0.9892483  
H   -0.2170646   -0.1815267    5.4753125  
H   -2.4487139   -2.0549881    3.3649027  
H    3.2048689    2.6911772    3.3971983  
