50
1A 10B 34A 43B 11 15 44 48 3 4 3 4 2 0 2 0 nosym
C    0.1177584   -0.7041719   -5.1422752  
C    0.3059610   -0.4523677   -6.4815446  
C   -0.7176658    0.4566408   -6.8821586  
C   -1.5071139    0.7263239   -5.7350014  
N   -0.9736297    0.0040464   -4.6965763  
C   -2.6097128    1.5856292   -5.7606857  
C   -2.9208566    2.1838199   -6.9663120  
O   -3.9871531    3.0320142   -7.0475013  
C   -2.1454321    1.9270133   -8.1219869  
O   -2.5829249    2.5979327   -9.2452902  
C   -1.0577190    1.0791902   -8.0974447  
H    1.0845190   -0.8730618   -7.0946165  
H   -3.2155193    1.7952128   -4.8898961  
H   -4.0265652    3.3340972   -7.9642659  
H   -2.0055192    2.3695006   -9.9801547  
H   -0.4827518    0.9016931   -8.9987691  
H    0.6748209   -1.3340378   -4.4700334  
C    1.1188642    0.0008222   -0.8003808  
C    0.0000000    0.0000000    0.0000000  
C   -1.1323862    0.0008899   -0.8673528  
C   -0.6382663    0.0019679   -2.1969280  
N    0.7324016    0.0038481   -2.1202242  
C   -1.4770914    0.0027318   -3.3154808  
C   -2.8395473    0.0020945   -3.0876857  
O   -3.7039201    0.0024425   -4.1440349  
C   -3.3517868    0.0013931   -1.7684331  
O   -4.7300497    0.0012366   -1.7073121  
C   -2.5248543    0.0009123   -0.6644817  
H    1.3576314   -0.0056167   -2.9057046  
H   -4.5940032    0.0021826   -3.7685128  
H   -4.9934602    0.0007259   -0.7819913  
H   -2.9462577    0.0005603    0.3339659  
H    2.1619895    0.0009355   -0.5342068  
C    0.8676693    0.7151171    2.2619005  
C    0.5875920    0.4624972    3.5848544  
C   -0.5048400   -0.4542819    3.6114698  
C   -0.8517165   -0.7276451    2.2635546  
N    0.0000000    0.0000000    1.4700000  
C   -1.8902865   -1.5946756    1.9108239  
C   -2.5912627   -2.1969500    2.9375057  
O   -3.6148162   -3.0527051    2.6493466  
C   -2.2603868   -1.9365747    4.2886322  
O   -3.0513550   -2.6123276    5.1947621  
C   -1.2361111   -1.0811317    4.6373480  
H    1.1060808    0.8876438    4.4271209  
H   -2.1597133   -1.8070987    0.8854031  
H   -3.9636755   -3.3565188    3.4974381  
H   -2.7621927   -2.3810384    6.0827341  
H   -1.0058879   -0.9010589    5.6809233  
H    1.6167816    1.3499334    1.8205408  
