48
4A 5B 17A 33A 38B 11 12 32 47 45 1 7 2 2 7 2 1 2 0 nosym
C    0.6675608   -0.7200182   -5.1594010  
C   -0.1496417   -0.0015611   -4.3176961  
C   -1.0591320    0.7259468   -5.1412006  
C   -0.7463745    0.4086512   -6.4878379  
N    0.3079391   -0.4702277   -6.4630979  
C   -1.4437227    0.9473695   -7.5733229  
C   -2.4757921    1.8220995   -7.2942917  
O   -3.1898672    2.3769430   -8.3166713  
C   -2.8026928    2.1513154   -5.9572919  
O   -3.8548525    3.0364719   -5.8441468  
C   -2.1149942    1.6204447   -4.8859503  
H    0.7413920   -0.8795052   -7.2709294  
H   -1.2101805    0.7096727   -8.6019915  
H   -3.8527232    2.9486467   -7.9079640  
H   -4.0107583    3.2057913   -4.9100011  
H   -2.3881056    1.8914036   -3.8728019  
H    1.4794305   -1.3897672   -4.9329881  
C    3.3003542    0.0005275   -1.4738988  
C    2.5232813    0.0003498   -2.6090748  
C    1.1623199   -0.0001318   -2.1820103  
C    1.1711883    0.0000584   -0.7636141  
N    2.4852299   -0.0014919   -0.3662361  
C    0.0000000    0.0000000    0.0000000  
C   -1.2020384    0.0000520   -0.6806476  
O   -2.3759249    0.0003494    0.0157744  
C   -1.2314658   -0.0005112   -2.0955509  
O   -2.5054393   -0.0008037   -2.6250179  
C   -0.0764518   -0.0007271   -2.8495194  
H    2.8919952   -0.0005618   -3.6205305  
H    2.8036266    0.0088182    0.5858661  
H   -3.0835640    0.0000347   -0.6418816  
H   -2.4360050   -0.0011526   -3.5845920  
H    4.3715548    0.0004895   -1.3667138  
C    2.3971438    2.0127888    3.1728260  
C    1.9431056    1.6308205    1.9564670  
C    0.8496017    0.7127664    2.2356185  
C    0.7794028    0.6545384    3.7115134  
N    1.6840587    1.4146091    4.2663826  
C   -0.1885723   -0.1578550    4.3957118  
C   -1.0476298   -0.8789867    3.6398520  
O   -2.0015663   -1.6796266    4.1448486  
C   -1.0022026   -0.8410666    2.1483229  
O   -1.8147390   -1.5232959    1.5241687  
C    0.0000000    0.0000000    1.4700000  
H    2.3054237    1.9346118    0.9892483  
H   -0.2170646   -0.1815267    5.4753125  
H   -2.4487139   -2.0549881    3.3649027  
H    3.2048689    2.6911772    3.3971983  
