46
5B 10B 36B 13 16 42 7 4 7 2 0 1 0 nosym
C    3.1006056    0.0006265   -3.9654949  
C    4.4058792    0.0006161   -4.3999234  
C    4.3701029    0.0000669   -5.8258686  
C    3.0041045    0.0000452   -6.2079351  
N    2.2602350   -0.0015608   -5.0541277  
C    2.5925319   -0.0001305   -7.5441227  
C    3.5778764    0.0000198   -8.5122525  
O    3.2316403    0.0002100   -9.8325301  
C    4.9461777   -0.0003319   -8.1509103  
O    5.8059957   -0.0005488   -9.2298252  
C    5.3529322   -0.0004320   -6.8329289  
H    5.2766933   -0.0001433   -3.7669341  
H    1.2572642    0.0086079   -5.0102282  
H    1.5530421   -0.0002921   -7.8418863  
H    4.0587364   -0.0000084  -10.3317068  
H    6.7093493   -0.0007543   -8.8988324  
H    6.4083314   -0.0008853   -6.5867362  
C    3.2798085    0.0005858   -1.4499649  
C    2.5571143    0.0005567   -2.5996554  
C    1.1637433    0.0001549   -2.2210360  
C    1.1336964   -0.0000199   -0.7459472  
N    2.4483513   -0.0001427   -0.3402721  
C    0.0000000    0.0000000    0.0000000  
C   -1.2757369   -0.0000186   -0.6964416  
O   -2.3524596   -0.0000640   -0.1142312  
C   -1.2676496   -0.0000872   -2.2584084  
O   -2.3355764   -0.0004100   -2.8557297  
C    0.0181559    0.0001762   -2.9516297  
H    0.0150790    0.0003321   -4.0331631  
H    4.3498546    0.0008613   -1.3200024  
H    2.7563627    0.0012824    0.6148061  
C    0.8175213    0.6860729    2.3021913  
C    0.0000000    0.0000000    1.4700000  
C   -0.8887526   -0.7456559    2.3478473  
C   -0.4549825   -0.3816753    3.7138435  
N    0.5448156    0.4573574    3.6934124  
C   -1.0945674   -0.9182058    4.8835240  
C   -2.1210866   -1.7789155    4.6970523  
O   -2.8083856   -2.3554314    5.6976972  
C   -2.5824069   -2.1655116    3.3310774  
O   -3.5227682   -2.9541547    3.2362962  
C   -1.9100805   -1.6015804    2.1470656  
H   -0.7567140   -0.6349833    5.8697035  
H   -3.4728268   -2.9124471    5.2533954  
H   -2.2742832   -1.9066565    1.1752040  
H    1.6189533    1.3585343    2.0405121  
