48
1A 10B 22B 36B 41B 11 15 29 44 47 3 4 7 7 4 2 1 2 0 nosym
C    5.6407085    0.0170452   -0.6743879  
C    6.9070325    0.0276884   -1.2117679  
C    6.7574706    0.0178707   -2.6302653  
C    5.3653958    0.0014762   -2.9019006  
N    4.7161325   -0.0005435   -1.6923264  
C    4.8484260   -0.0112557   -4.2008885  
C    5.7532268   -0.0070596   -5.2446778  
O    5.3026480   -0.0186573   -6.5330320  
C    7.1459454    0.0088555   -4.9938833  
O    7.9167823    0.0107074   -6.1380647  
C    7.6566618    0.0211486   -3.7126559  
H    7.8255871    0.0397977   -0.6504257  
H    3.7885337   -0.0239203   -4.4145928  
H    6.0871804   -0.0135228   -7.0967235  
H    8.8436393    0.0218184   -5.8803514  
H    8.7282989    0.0330394   -3.5516249  
H    5.3238838    0.0191630    0.3544834  
C    3.2573665   -0.0002920   -1.5109385  
C    2.5379463   -0.0001709   -0.3591964  
C    1.1435038    0.0000331   -0.7338500  
C    1.1092599   -0.0000083   -2.2088477  
N    2.4227553    0.0001909   -2.6182613  
C   -0.0265539   -0.0002524   -2.9515660  
C   -1.3003040   -0.0002640   -2.2514977  
O   -2.3786790   -0.0004133   -2.8306421  
C   -1.2877727    0.0000311   -0.6895603  
O   -2.3539959    0.0003306   -0.0892030  
C    0.0000000    0.0000000    0.0000000  
H    2.9384091   -0.0000367    0.6389234  
H   -0.0296303   -0.0004086   -4.0327229  
H    2.7280482   -0.0013407   -3.5742119  
C    0.0000000    0.0000000    1.4700000  
C    1.0521667    0.0011902    2.3562342  
C    0.4917218    0.0011957    3.6679131  
C   -0.9187428   -0.0003148    3.5178682  
N   -1.1833171    0.0009411    2.1707914  
C   -1.7951701   -0.0010350    4.6072090  
C   -1.2375837   -0.0005224    5.8710424  
O   -2.0474215   -0.0015360    6.9697579  
C    0.1673580    0.0013566    6.0411963  
O    0.5673524    0.0020687    7.3615553  
C    1.0325770    0.0023412    4.9669890  
H    2.0953057    0.0030649    2.0900562  
H   -2.0989778   -0.0102372    1.7591824  
H   -2.8710934   -0.0020419    4.4995513  
H   -1.4634884   -0.0006497    7.7393593  
H    1.5290710    0.0033153    7.3880045  
H    2.1042148    0.0039609    5.1284455  
