46
1A 10B 22B 32A 41B 11 15 29 42 44 3 4 7 3 4 2 1 2 0 nosym
C    3.4087107   -0.7064436   -3.0324169  
C    4.6439233   -0.4554586   -3.5835284  
C    4.4407876    0.4527125   -4.6645285  
C    3.0496391    0.7227526   -4.7254374  
N    2.4521485    0.0014830   -3.7217479  
C    2.4867670    1.5814353   -5.6744518  
C    3.3439027    2.1786250   -6.5782552  
O    2.8473368    3.0261782   -7.5259303  
C    4.7348369    1.9214475   -6.5337629  
O    5.4551847    2.5913536   -7.5010632  
C    5.2907837    1.0742382   -5.5979825  
H    5.5765057   -0.8761479   -3.2484096  
H    1.4272946    1.7912867   -5.7262423  
H    3.6036632    3.3276080   -8.0459072  
H    6.3843611    2.3627320   -7.4012286  
H    6.3597906    0.8964356   -5.5885594  
H    3.1341698   -1.3355408   -2.2030662  
C    0.0000000    0.0000000    0.0000000  
C    1.0662923   -0.0000105   -0.8334269  
C    0.4961874    0.0000060   -2.1718887  
C   -0.9663853   -0.0000854   -1.9540249  
N   -1.2632772   -0.0000086   -0.6828660  
C   -1.8985357   -0.0000523   -3.0477261  
C   -1.3925768    0.0004559   -4.3020546  
O   -2.1456376    0.0005405   -5.4151317  
C    0.0786242    0.0009317   -4.5545000  
O    0.4683768    0.0012580   -5.7221103  
C    1.0143173    0.0008436   -3.4159030  
H    2.1107200    0.0000630   -0.5721863  
H   -2.9622180   -0.0003275   -2.8593382  
H   -1.5042263    0.0009682   -6.1484421  
C    1.1319247   -0.0015655    2.2709268  
C    0.7969915   -0.0034943    3.5869401  
C   -0.6453339   -0.0035710    3.6542670  
C   -1.1266833   -0.0015433    2.2596025  
N    0.0000000    0.0000000    1.4700000  
C   -2.4346130   -0.0013964    1.8976294  
C   -3.4350110   -0.0031408    2.9520183  
O   -4.6384611   -0.0030974    2.7283916  
C   -2.9478959   -0.0050506    4.4361073  
O   -3.7809380   -0.0062218    5.3323774  
C   -1.5113823   -0.0053090    4.7012123  
H    1.4821238   -0.0045407    4.4159191  
H   -2.7664565   -0.0000232    0.8686553  
H   -1.1823530   -0.0068408    5.7314848  
H    2.1104316   -0.0009391    1.8188057  
