48
1A 10B 35A 36B 11 15 42 43 3 4 1 7 2 0 2 0 nosym
C    0.2913987   -0.7084427   -5.1223474  
C    0.5739114   -0.4576449   -6.4451305  
C   -0.4187661    0.4510450   -6.9178608  
C   -1.2874029    0.7215800   -5.8296476  
N   -0.8287665    0.0000939   -4.7555305  
C   -2.3853878    1.5808478   -5.9339392  
C   -2.6104142    2.1781250   -7.1590112  
O   -3.6682603    3.0262404   -7.3160913  
C   -1.7551623    1.9204596   -8.2567226  
O   -2.1120438    2.5905254   -9.4086738  
C   -0.6719446    1.0726728   -8.1546323  
H    1.3938856   -0.8787885   -7.0012543  
H   -3.0512890    1.7910783   -5.1083604  
H   -3.6426880    3.3276317   -8.2335737  
H   -1.4840920    2.3615487  -10.1006640  
H   -0.0346438    0.8945055   -9.0128760  
H    0.7994703   -1.3377927   -4.4118966  
C    1.0672569   -0.0000698   -0.8321910  
C    0.0000000    0.0000000    0.0000000  
C   -1.1601223   -0.0000736   -0.8778472  
C   -0.5938729   -0.0000768   -2.2438435  
N    0.7113367   -0.0001553   -2.2234123  
C   -1.4286985   -0.0001877   -3.4135239  
C   -2.7683113   -0.0006798   -3.2270524  
O   -3.6653902   -0.0008302   -4.2276970  
C   -3.3702024   -0.0010610   -1.8610774  
O   -4.5974910   -0.0013779   -1.7662963  
C   -2.4926825   -0.0008943   -0.6770658  
H   -4.5324245   -0.0012258   -3.7833954  
H   -2.9677772   -0.0012974    0.2947961  
H    2.1134391   -0.0000547   -0.5705119  
C    0.8576279    0.7185626    2.2703808  
C    0.0000000    0.0000000    1.4700000  
C   -0.8668858   -0.7285659    2.3373528  
C   -0.4876752   -0.4117774    3.6669281  
N    0.5635254    0.4678311    3.5902241  
C   -1.1297612   -0.9515493    4.7854808  
C   -2.1738724   -1.8268314    4.5576857  
O   -2.8357962   -2.3827064    5.6140350  
C   -2.5667212   -2.1555554    3.2384331  
O   -3.6226318   -3.0413663    3.1773122  
C   -1.9335634   -1.6236449    2.1344818  
H    1.0363952    0.8769718    4.3757045  
H   -0.8454472   -0.7142436    5.8013813  
H   -3.5178062   -2.9546422    5.2385129  
H   -3.8247440   -3.2102924    2.2519915  
H   -2.2566033   -1.8942483    1.1360343  
H    1.6567807    1.3889844    2.0042067  
