46
4A 5B 22B 36B 41B 11 12 29 43 45 1 7 7 7 4 2 1 2 0 nosym
C    3.4139330   -0.7157107   -3.0486425  
C    2.4521485    0.0014830   -3.7217479  
C    3.1196683    0.7293943   -4.7509041  
C    4.4992582    0.4136354   -4.6562804  
N    4.6435346   -0.4647552   -3.6111814  
C    5.4593796    0.9531295   -5.5176179  
C    5.0187455    1.8270696   -6.4924247  
O    5.9138860    2.3826164   -7.3602411  
C    3.6464067    2.1547521   -6.6025484  
O    3.3663378    3.0392796   -7.6235853  
C    2.6987049    1.6231152   -5.7529903  
H    5.5104853   -0.8729913   -3.3116465  
H    6.5123620    0.7166038   -5.4506371  
H    5.4043002    2.9535766   -7.9498090  
H    2.4191016    3.2075627   -7.6289359  
H    1.6547141    1.8928999   -5.8615165  
H    3.3203047   -1.3852968   -2.2108795  
C    0.0000000    0.0000000    0.0000000  
C    1.0662923   -0.0000105   -0.8334269  
C    0.4961874    0.0000060   -2.1718887  
C   -0.9663853   -0.0000854   -1.9540249  
N   -1.2632772   -0.0000086   -0.6828660  
C   -1.8985357   -0.0000523   -3.0477261  
C   -1.3925768    0.0004559   -4.3020546  
O   -2.1456376    0.0005405   -5.4151317  
C    0.0786242    0.0009317   -4.5545000  
O    0.4683768    0.0012580   -5.7221103  
C    1.0143173    0.0008436   -3.4159030  
H    2.1107200    0.0000630   -0.5721863  
H   -2.9622180   -0.0003275   -2.8593382  
H   -1.5042263    0.0009682   -6.1484421  
C    0.0000000    0.0000000    1.4700000  
C    1.0662921    0.0000102    2.3034270  
C    0.4961870   -0.0000064    3.6418889  
C   -0.9663858    0.0000850    3.4240247  
N   -1.2632773    0.0000084    2.1528658  
C   -1.8985362    0.0000517    4.5177257  
C   -1.3925775   -0.0004564    5.7720543  
O   -2.1456383   -0.0005410    6.8851312  
C    0.0786232   -0.0009323    6.0245000  
O    0.4683759   -0.0012588    7.1921102  
C    1.0143166   -0.0008442    4.8859032  
H    2.1107198   -0.0000632    2.0421868  
H   -2.9622183    0.0003270    4.3293377  
H   -1.5042274   -0.0009692    7.6184419  
H    2.0724152   -0.0013148    5.1109744  
