48
5B 10B 17A 36B 41B 13 16 29 44 47 7 4 2 7 4 2 1 2 0 nosym
C    0.0139745    0.0003876   -4.4216236  
C    1.0636164    0.0005120   -5.3108476  
C    0.4994424    0.0000634   -6.6209269  
C   -0.9105904   -0.0000387   -6.4668695  
N   -1.1713297   -0.0017872   -5.1190461  
C   -1.7901133   -0.0001502   -7.5537130  
C   -1.2361245    0.0001484   -8.8191281  
O   -2.0490853    0.0004068   -9.9155345  
C    0.1683286   -0.0001213   -8.9932770  
O    0.5645656   -0.0001919  -10.3147688  
C    1.0366007   -0.0002848   -7.9215364  
H    2.1075098   -0.0002243   -5.0476383  
H   -2.0858277    0.0082988   -4.7048326  
H   -2.8657266   -0.0003724   -7.4429951  
H   -1.4673435    0.0002901  -10.6867945  
H    1.5262059   -0.0003499  -10.3439549  
H    2.1077759   -0.0006724   -8.0860406  
C    3.2798088    0.0005856   -1.4499645  
C    2.5571147    0.0005564   -2.5996552  
C    1.1637438    0.0001547   -2.2210359  
C    1.1336966   -0.0000200   -0.7459470  
N    2.4483516   -0.0001428   -0.3402716  
C    0.0000000    0.0000000    0.0000000  
C   -1.2757366   -0.0000187   -0.6964415  
O   -2.3524596   -0.0000640   -0.1142315  
C   -1.2676492   -0.0000874   -2.2584082  
O   -2.3355759   -0.0004102   -2.8557296  
C    0.0181564    0.0001758   -2.9516296  
H    2.9547358    0.0006073   -3.5989103  
H    4.3498553    0.0008611   -1.3200018  
H    2.7563628    0.0012824    0.6148065  
C    0.0000000    0.0000000    1.4700000  
C    1.0521667    0.0011902    2.3562342  
C    0.4917218    0.0011957    3.6679131  
C   -0.9187428   -0.0003148    3.5178682  
N   -1.1833171    0.0009411    2.1707914  
C   -1.7951701   -0.0010350    4.6072090  
C   -1.2375837   -0.0005224    5.8710424  
O   -2.0474215   -0.0015360    6.9697579  
C    0.1673580    0.0013566    6.0411963  
O    0.5673524    0.0020687    7.3615553  
C    1.0325770    0.0023412    4.9669890  
H    2.0953057    0.0030649    2.0900562  
H   -2.0989778   -0.0102372    1.7591824  
H   -2.8710934   -0.0020419    4.4995513  
H   -1.4634884   -0.0006497    7.7393593  
H    1.5290710    0.0033153    7.3880045  
H    2.1042148    0.0039609    5.1284455  
