46
0A 1A 10B 22B 31A 35A 36B 16 11 15 29 44 45 43 2 3 4 7 2 1 7 3 1 3 0 nosym
C    6.5860087   -0.0008869    1.4009376  
C    7.6166237   -0.0011134    0.4897297  
C    7.0248897   -0.0012667   -0.8081343  
C    5.6184276   -0.0008355   -0.6243131  
N    5.3862298   -0.0025642    0.7287201  
C    4.7161325   -0.0005435   -1.6923264  
C    5.2432556   -0.0003826   -2.9691659  
O    4.4073057    0.0002541   -4.0481476  
C    6.6437146   -0.0011825   -3.1729577  
O    7.0119354   -0.0013266   -4.5025278  
C    7.5344416   -0.0017440   -2.1198051  
H    8.6658466   -0.0022672    0.7308194  
H    4.4806937    0.0078492    1.1621680  
H    4.9726182   -0.0000404   -4.8315288  
H    7.9727445   -0.0018529   -4.5520293  
H    8.6019015   -0.0025340   -2.3069103  
H    6.6118216   -0.0011075    2.4771771  
C    3.2573665   -0.0002920   -1.5109385  
C    2.5379463   -0.0001709   -0.3591964  
C    1.1435038    0.0000331   -0.7338500  
C    1.1092599   -0.0000083   -2.2088477  
N    2.4227553    0.0001909   -2.6182613  
C   -0.0265539   -0.0002524   -2.9515660  
C   -1.3003040   -0.0002640   -2.2514977  
O   -2.3786790   -0.0004133   -2.8306421  
C   -1.2877727    0.0000311   -0.6895603  
O   -2.3539959    0.0003306   -0.0892030  
C    0.0000000    0.0000000    0.0000000  
H    2.9384091   -0.0000367    0.6389234  
H   -0.0296303   -0.0004086   -4.0327229  
H    2.7280482   -0.0013407   -3.5742119  
C    2.4951002    2.0940188    2.9809380  
C    1.9440701    1.6314916    1.8291961  
C    0.8759964    0.7350050    2.2038498  
C    0.8497377    0.7130254    3.6788474  
N    1.8560616    1.5571714    4.0882609  
C   -0.0205033   -0.0168748    4.4215661  
C   -0.9962600   -0.8356168    3.7214979  
O   -1.8224391   -1.5286685    4.3006425  
C   -0.9864710   -0.8277881    2.1595606  
O   -1.8030528   -1.5133726    1.5592035  
C    0.0000000    0.0000000    1.4700000  
H    2.2509283    1.8888011    0.8310761  
H   -0.0229599   -0.0187323    5.5027230  
H    3.3143982    2.7817323    3.1139444  
H    2.0889452    1.7545833    5.0442112  
