46
0A 4A 5B 22B 36B 41B 16 12 13 29 43 45 2 1 7 7 7 4 3 1 2 0 nosym
C    4.4883239   -2.1196448   -1.5653714  
C    3.2264838   -1.6584956   -1.8612904  
C    3.3569173   -0.7714021   -2.9706381  
C    4.7331981   -0.7306582   -3.3113972  
N    5.3921665   -1.5590348   -2.4372284  
C    5.2292268    0.0454724   -4.3632362  
C    4.3192911    0.7938750   -5.0844080  
O    4.7496005    1.5692568   -6.1220166  
C    2.9421625    0.7667151   -4.7594530  
O    2.1637877    1.5664734   -5.5705400  
C    2.4521485    0.0014830   -3.7217479  
H    2.3232775   -1.9274437   -1.3408302  
H    6.3797235   -1.7398423   -2.4416104  
H    6.2770283    0.0809795   -4.6279116  
H    3.9649679    2.0016674   -6.4834551  
H    1.2484462    1.4907074   -5.2841609  
H    4.8153072   -2.8029906   -0.8004667  
C    0.0000000    0.0000000    0.0000000  
C    1.0662923   -0.0000105   -0.8334269  
C    0.4961874    0.0000060   -2.1718887  
C   -0.9663853   -0.0000854   -1.9540249  
N   -1.2632772   -0.0000086   -0.6828660  
C   -1.8985357   -0.0000523   -3.0477261  
C   -1.3925768    0.0004559   -4.3020546  
O   -2.1456376    0.0005405   -5.4151317  
C    0.0786242    0.0009317   -4.5545000  
O    0.4683768    0.0012580   -5.7221103  
C    1.0143173    0.0008436   -3.4159030  
H    2.1107200    0.0000630   -0.5721863  
H   -2.9622180   -0.0003275   -2.8593382  
H   -1.5042263    0.0009682   -6.1484421  
C    0.0000000    0.0000000    1.4700000  
C    1.0662921    0.0000102    2.3034270  
C    0.4961870   -0.0000064    3.6418889  
C   -0.9663858    0.0000850    3.4240247  
N   -1.2632773    0.0000084    2.1528658  
C   -1.8985362    0.0000517    4.5177257  
C   -1.3925775   -0.0004564    5.7720543  
O   -2.1456383   -0.0005410    6.8851312  
C    0.0786232   -0.0009323    6.0245000  
O    0.4683759   -0.0012588    7.1921102  
C    1.0143166   -0.0008442    4.8859032  
H    2.1107198   -0.0000632    2.0421868  
H   -2.9622183    0.0003270    4.3293377  
H   -1.5042274   -0.0009692    7.6184419  
H    2.0724152   -0.0013148    5.1109744  
