46
5B 10B 36B 13 16 42 7 4 7 2 0 1 0 nosym
C   -0.8712823    0.0001712   -4.7267111  
C    0.4339910   -0.0007980   -5.1611397  
C    0.3982143   -0.0008778   -6.5870850  
C   -0.9677834    0.0003618   -6.9691514  
N   -1.7116543   -0.0009770   -5.8153445  
C   -1.3793555    0.0009425   -8.3053389  
C   -0.3940115    0.0005663   -9.2734678  
O   -0.7402469    0.0014532  -10.5937462  
C    0.9742895   -0.0010423   -8.9121277  
O    1.8341069   -0.0016465   -9.9910417  
C    1.3810432   -0.0018892   -7.5941455  
H    1.3048040   -0.0024816   -4.5281507  
H   -2.7146164    0.0100178   -5.7714419  
H   -2.4188456    0.0017429   -8.6031026  
H    0.0868488    0.0006963  -11.0929229  
H    2.7374598   -0.0027102   -9.6600491  
H    2.4364414   -0.0033019   -7.3479530  
C    1.0965515    0.0001358   -0.8010304  
C    0.0000000    0.0000000    0.0000000  
C   -1.1546562    0.0001470   -0.8669514  
C   -0.6372012    0.0003520   -2.2486282  
N    0.7342873    0.0007338   -2.1395014  
C   -1.4147737    0.0001354   -3.3608717  
C   -2.8576047   -0.0001047   -3.1854463  
O   -3.6427778   -0.0002491   -4.1244908  
C   -3.4275837   -0.0000725   -1.7311667  
O   -4.6406828    0.0000333   -1.5710061  
C   -2.4891866   -0.0001090   -0.6116745  
H   -2.8919121   -0.0002919    0.3920865  
H    2.1388272    0.0000662   -0.5261647  
H    1.3735873   -0.0006098   -2.9130261  
C    0.8175213    0.6860729    2.3021913  
C    0.0000000    0.0000000    1.4700000  
C   -0.8887526   -0.7456559    2.3478473  
C   -0.4549825   -0.3816753    3.7138435  
N    0.5448156    0.4573574    3.6934124  
C   -1.0945674   -0.9182058    4.8835240  
C   -2.1210866   -1.7789155    4.6970523  
O   -2.8083856   -2.3554314    5.6976972  
C   -2.5824069   -2.1655116    3.3310774  
O   -3.5227682   -2.9541547    3.2362962  
C   -1.9100805   -1.6015804    2.1470656  
H   -0.7567140   -0.6349833    5.8697035  
H   -3.4728268   -2.9124471    5.2533954  
H   -2.2742832   -1.9066565    1.1752040  
H    1.6189533    1.3585343    2.0405121  
