48
1A 10B 35A 36B 11 15 42 43 3 4 1 7 2 0 2 0 nosym
C    2.9111096   -0.7032330   -3.3049958  
C    3.5364888   -0.4513206   -4.5041238  
C    2.7058176    0.4576976   -5.2240341  
C    1.5780790    0.7272752   -4.4070522  
N    1.7334694    0.0049281   -3.2500363  
C    0.5475613    1.5865594   -4.8000571  
C    0.6576403    2.1848375   -6.0402680  
O   -0.3200977    3.0330157   -6.4734361  
C    1.7750125    1.9281367   -6.8699676  
O    1.7384798    2.5991344   -8.0748626  
C    2.7918838    1.0803343   -6.4830180  
H    4.4753021   -0.8719511   -4.8214463  
H   -0.3146599    1.7960631   -4.1820887  
H   -0.0505630    3.3351690   -7.3505449  
H    2.5284651    2.3707713   -8.5742394  
H    3.6352556    0.9029191   -7.1400766  
H    3.2112166   -1.3331394   -2.4851711  
C    1.1319246    0.0015678   -0.8009269  
C    0.7969914    0.0034958   -2.1169402  
C   -0.6453340    0.0035696   -2.1842669  
C   -1.1266833    0.0015410   -0.7896025  
N    0.0000000    0.0000000    0.0000000  
C   -2.4346130    0.0013912   -0.4276293  
C   -3.4350112    0.0031335   -1.4820181  
O   -4.6384613    0.0030876   -1.2583913  
C   -2.9478960    0.0050441   -2.9661073  
O   -3.7809383    0.0062138   -3.8623774  
C   -1.5113825    0.0053055   -3.2312121  
H   -2.7664565    0.0000174    0.6013448  
H   -1.1823532    0.0068381   -4.2614847  
H    2.1104315    0.0009436   -0.3488059  
C    0.8576279    0.7185626    2.2703808  
C    0.0000000    0.0000000    1.4700000  
C   -0.8668858   -0.7285659    2.3373528  
C   -0.4876752   -0.4117774    3.6669281  
N    0.5635254    0.4678311    3.5902241  
C   -1.1297612   -0.9515493    4.7854808  
C   -2.1738724   -1.8268314    4.5576857  
O   -2.8357962   -2.3827064    5.6140350  
C   -2.5667212   -2.1555554    3.2384331  
O   -3.6226318   -3.0413663    3.1773122  
C   -1.9335634   -1.6236449    2.1344818  
H    1.0363952    0.8769718    4.3757045  
H   -0.8454472   -0.7142436    5.8013813  
H   -3.5178062   -2.9546422    5.2385129  
H   -3.8247440   -3.2102924    2.2519915  
H   -2.2566033   -1.8942483    1.1360343  
H    1.6567807    1.3889844    2.0042067  
