46
1A 10B 32A 41B 11 15 42 44 3 4 3 4 2 0 2 0 nosym
C    4.2050198   -0.7073018   -4.3783574  
C    4.4319894   -0.4569279   -5.7118738  
C    3.4198262    0.4508483   -6.1432296  
C    2.5970947    0.7212888   -5.0198856  
N    3.1006056    0.0006265   -3.9654949  
C    1.4951031    1.5797426   -5.0787128  
C    1.2187980    2.1762880   -6.2936069  
O    0.1547188    3.0235926   -6.4068444  
C    2.0277513    1.9187033   -7.4258888  
O    1.6227010    2.5879794   -8.5622635  
C    3.1148886    1.0717191   -7.3686505  
H    5.2283798   -0.8777614   -6.3014966  
H    0.8640306    1.7898966   -4.2261963  
H    0.1418232    3.3245711   -7.3247280  
H    2.2214368    2.3591155   -9.2797175  
H    3.7160016    0.8935931   -8.2526259  
H    4.7427039   -1.3359643   -3.6894176  
C    3.2798083    0.0005856   -1.4499650  
C    2.5571143    0.0005567   -2.5996555  
C    1.1637433    0.0001550   -2.2210361  
C    1.1336964   -0.0000198   -0.7459472  
N    2.4483513   -0.0001427   -0.3402721  
C    0.0000000    0.0000000    0.0000000  
C   -1.2757369   -0.0000185   -0.6964416  
O   -2.3524597   -0.0000637   -0.1142312  
C   -1.2676495   -0.0000871   -2.2584083  
O   -2.3355763   -0.0004098   -2.8557295  
C    0.0181559    0.0001761   -2.9516296  
H    0.0150790    0.0003322   -4.0331631  
H    4.3498547    0.0008612   -1.3200024  
H    2.7563627    0.0012823    0.6148060  
C    0.8681109    0.7263879    2.2709268  
C    0.6127770    0.5096195    3.5869401  
C   -0.4920590   -0.4175482    3.6542670  
C   -0.8620974   -0.7254003    2.2596025  
N    0.0000000    0.0000000    1.4700000  
C   -1.8641242   -1.5660088    1.8976294  
C   -2.6293522   -2.2103885    2.9520183  
O   -3.5512764   -2.9839180    2.7283916  
C   -2.2549728   -1.8987399    4.4361073  
O   -2.8923672   -2.4351063    5.3323774  
C   -1.1543735   -0.9755647    4.7012123  
H    1.1382914    0.9492124    4.4159191  
H   -2.1192137   -1.7782617    0.8686553  
H   -0.9013378   -0.7652422    5.7314848  
H    1.6172880    1.3558399    1.8188057  
