46
0A 1A 10B 27B 36B 41B 16 11 15 30 43 45 2 3 4 4 7 4 3 1 2 0 nosym
C   -4.3568015    2.1196432   -0.0439433  
C   -5.5783087    1.6201329   -0.4323717  
C   -5.3394747    0.7460399   -1.5339705  
C   -3.9416100    0.7519547   -1.7745206  
N   -3.3751248    1.5976638   -0.8533862  
C   -3.3460097   -0.0004262   -2.7913647  
C   -4.1766439   -0.7730845   -3.5795420  
O   -3.6475256   -1.5274889   -4.5864787  
C   -5.5738550   -0.7919240   -3.3553485  
O   -6.2652638   -1.6105065   -4.2243825  
C   -6.1621470   -0.0497244   -2.3525632  
H   -6.5251586    1.8575141    0.0216316  
H   -2.3939629    1.7946126   -0.7726814  
H   -4.3895800   -1.9821535   -5.0058840  
H   -7.2009062   -1.5658644   -4.0048715  
H   -7.2352197   -0.0842034   -2.2048989  
H   -4.1083019    2.8080663    0.7455372  
C    0.0000000    0.0000000    0.0000000  
C    1.0662919   -0.0000103   -0.8334272  
C    0.4961868    0.0000066   -2.1718889  
C   -0.9663860   -0.0000849   -1.9540248  
N   -1.2632775   -0.0000084   -0.6828659  
C   -1.8985364   -0.0000515   -3.0477258  
C   -1.3925778    0.0004567   -4.3020543  
O   -2.1456385    0.0005412   -5.4151314  
C    0.0786229    0.0009326   -4.5544999  
O    0.4683756    0.0012594   -5.7221104  
C    1.0143162    0.0008443   -3.4159034  
H    2.1107195    0.0000631   -0.5721869  
H   -1.5042277    0.0009692   -6.1484420  
H    2.0724151    0.0013151   -3.6409746  
C    0.0000000    0.0000000    1.4700000  
C    1.0662921    0.0000102    2.3034270  
C    0.4961870   -0.0000064    3.6418889  
C   -0.9663858    0.0000850    3.4240247  
N   -1.2632773    0.0000084    2.1528658  
C   -1.8985362    0.0000517    4.5177257  
C   -1.3925775   -0.0004564    5.7720543  
O   -2.1456383   -0.0005410    6.8851312  
C    0.0786232   -0.0009323    6.0245000  
O    0.4683759   -0.0012588    7.1921102  
C    1.0143166   -0.0008442    4.8859032  
H    2.1107198   -0.0000632    2.0421868  
H   -2.9622183    0.0003270    4.3293377  
H   -1.5042274   -0.0009692    7.6184419  
H    2.0724152   -0.0013148    5.1109744  
