46
0A 4A 5B 27B 31A 35A 36B 16 12 13 30 44 45 43 2 1 7 4 2 1 7 3 1 3 0 nosym
C    6.8742265    0.0003231   -4.0661422  
C    5.5942422    0.0007865   -3.5620504  
C    5.7067592    0.0007575   -2.1401011  
C    7.0913504    0.0005504   -1.8321526  
N    7.7720040   -0.0016616   -3.0243453  
C    7.5742853    0.0007717   -0.5200691  
C    6.6425079    0.0015172    0.4997194  
O    7.0593435    0.0021141    1.7994356  
C    5.2567325    0.0013590    0.2125911  
O    4.4562654    0.0017482    1.3362440  
C    4.7795901    0.0008674   -1.0815733  
H    4.6906031    0.0000007   -4.1472242  
H    8.7711565    0.0082505   -3.1221989  
H    8.6283021    0.0004717   -0.2787181  
H    6.2603298    0.0022789    2.3424296  
H    3.5363981    0.0016363    1.0543799  
H    7.2178047   -0.0001944   -5.0863935  
C    3.3321168    0.0004716   -1.3379341  
C    2.6974177    0.0000118   -2.5332316  
C    1.2800432   -0.0002116   -2.2052842  
C    1.2395033    0.0000644   -0.7271298  
N    2.4394059    0.0005460   -0.2131041  
C    0.0000000    0.0000000    0.0000000  
C   -1.1468704    0.0000635   -0.7169542  
O   -2.3742206    0.0000074   -0.1695488  
C   -1.1388774    0.0001608   -2.2096352  
O   -2.2206238    0.0000906   -2.7970409  
C    0.1454514    0.0001818   -2.9324241  
H    3.1367978   -0.0000649   -3.5160956  
H   -2.9844350    0.0001027   -0.9290164  
H    0.1083567    0.0003684   -4.0135594  
C    2.4951002    2.0940188    2.9809380  
C    1.9440701    1.6314916    1.8291961  
C    0.8759964    0.7350050    2.2038498  
C    0.8497377    0.7130254    3.6788474  
N    1.8560616    1.5571714    4.0882609  
C   -0.0205033   -0.0168748    4.4215661  
C   -0.9962600   -0.8356168    3.7214979  
O   -1.8224391   -1.5286685    4.3006425  
C   -0.9864710   -0.8277881    2.1595606  
O   -1.8030528   -1.5133726    1.5592035  
C    0.0000000    0.0000000    1.4700000  
H    2.2509283    1.8888011    0.8310761  
H   -0.0229599   -0.0187323    5.5027230  
H    3.3143982    2.7817323    3.1139444  
H    2.0889452    1.7545833    5.0442112  
