46
1A 10B 36B 41B 11 15 43 44 3 4 7 4 2 0 2 0 nosym
C    3.9420067   -0.7120701   -4.5063815  
C    4.0760568   -0.4635061   -5.8527519  
C    3.0376219    0.4452895   -6.2137833  
C    2.2953676    0.7181881   -5.0362809  
N    2.8699635   -0.0020528   -4.0185828  
C    1.1931549    1.5782059   -5.0193800  
C    0.8338811    2.1738164   -6.2128408  
O   -0.2343100    3.0225690   -6.2528411  
C    1.5617868    1.9137842   -7.3983165  
O    1.0796407    2.5824028   -8.5045842  
C    2.6490869    1.0652563   -7.4157840  
H    4.8289333   -0.8861686   -6.4958128  
H    0.6231804    1.7902352   -4.1253027  
H   -0.3105739    3.3225516   -7.1679692  
H    1.6267216    2.3518606   -9.2616551  
H    3.1870320    0.8852644   -8.3392000  
H    4.5254118   -1.3407657   -3.8557364  
C    3.2573667   -0.0002919   -1.5109386  
C    2.5379468   -0.0001709   -0.3591965  
C    1.1435041    0.0000331   -0.7338500  
C    1.1092604   -0.0000084   -2.2088475  
N    2.4227558    0.0001908   -2.6182613  
C   -0.0265536   -0.0002526   -2.9515663  
C   -1.3003039   -0.0002641   -2.2514979  
O   -2.3786786   -0.0004135   -2.8306422  
C   -1.2877726    0.0000311   -0.6895607  
O   -2.3539957    0.0003306   -0.0892033  
C    0.0000000    0.0000000    0.0000000  
H    2.9384090   -0.0000368    0.6389236  
H   -0.0296296   -0.0004089   -4.0327231  
H    4.3270391   -0.0004765   -1.6439450  
C    0.0000000    0.0000000    1.4700000  
C    1.0541688    0.0001722    2.3260392  
C    0.5103138    0.0000454    3.6635956  
C   -0.9576371   -0.0002459    3.5155732  
N   -1.2018458    0.0001392    2.1615969  
C   -1.8348311   -0.0008317    4.5510609  
C   -1.2972847   -0.0009736    5.9014604  
O   -2.0050672   -0.0014265    6.9001319  
C    0.2542623   -0.0004184    6.0817573  
O    0.7184670   -0.0002256    7.2139121  
C    1.0974552   -0.0000873    4.8889129  
H    2.0940752    0.0005483    2.0517982  
H   -2.9081052   -0.0011668    4.4207061  
H    2.1707277    0.0000911    5.0223670  
H   -2.1128194   -0.0014912    1.7406791  
