46
1A 10B 27B 36B 41B 11 15 30 43 44 3 4 4 7 4 2 1 2 0 nosym
C   -3.9737215    0.7080824   -1.7936963  
C   -5.3255064    0.4571936   -1.8405997  
C   -5.5431728   -0.4515258   -2.9183056  
C   -4.2766879   -0.7219843   -3.4969207  
N   -3.3460097   -0.0004262   -2.7913647  
C   -4.1113764   -1.5812563   -4.5873849  
C   -5.2451920   -2.1786165   -5.1029446  
O   -5.1408321   -3.0267400   -6.1672791  
C   -6.5176424   -1.9210282   -4.5396190  
O   -7.5485227   -2.5911714   -5.1653482  
C   -6.6815055   -1.0732373   -3.4640144  
H   -6.0640062    0.8782974   -1.1800825  
H   -3.1488750   -1.7914291   -5.0330533  
H   -6.0370796   -3.3281938   -6.3650960  
H   -8.3722213   -2.3622436   -4.7240798  
H   -7.6687535   -0.8951302   -3.0540174  
H   -3.4078304    1.3374795   -1.1284256  
C    0.0000000    0.0000000    0.0000000  
C    1.0662919   -0.0000103   -0.8334272  
C    0.4961868    0.0000066   -2.1718889  
C   -0.9663860   -0.0000849   -1.9540248  
N   -1.2632775   -0.0000084   -0.6828659  
C   -1.8985364   -0.0000515   -3.0477258  
C   -1.3925778    0.0004567   -4.3020543  
O   -2.1456385    0.0005412   -5.4151314  
C    0.0786229    0.0009326   -4.5544999  
O    0.4683756    0.0012594   -5.7221104  
C    1.0143162    0.0008443   -3.4159034  
H    2.1107195    0.0000631   -0.5721869  
H   -1.5042277    0.0009692   -6.1484420  
H    2.0724151    0.0013151   -3.6409746  
C    0.0000000    0.0000000    1.4700000  
C    1.0541688    0.0001722    2.3260392  
C    0.5103138    0.0000454    3.6635956  
C   -0.9576371   -0.0002459    3.5155732  
N   -1.2018458    0.0001392    2.1615969  
C   -1.8348311   -0.0008317    4.5510609  
C   -1.2972847   -0.0009736    5.9014604  
O   -2.0050672   -0.0014265    6.9001319  
C    0.2542623   -0.0004184    6.0817573  
O    0.7184670   -0.0002256    7.2139121  
C    1.0974552   -0.0000873    4.8889129  
H    2.0940752    0.0005483    2.0517982  
H   -2.9081052   -0.0011668    4.4207061  
H    2.1707277    0.0000911    5.0223670  
H   -2.1128194   -0.0014912    1.7406791  
