46
5B 10B 22B 36B 41B 13 16 29 43 45 7 4 7 7 4 2 1 2 0 nosym
C    4.5679461   -0.0016854   -2.0086701  
C    5.6536976   -0.0029016   -1.1639160  
C    6.8200673   -0.0036871   -1.9850014  
C    6.3798477   -0.0026036   -3.3333825  
N    5.0072029   -0.0033526   -3.3118968  
C    7.2630028   -0.0026750   -4.4172766  
C    8.6151888   -0.0035549   -4.1348421  
O    9.5213680   -0.0033138   -5.1555546  
C    9.0739283   -0.0050177   -2.7960469  
O   10.4486142   -0.0061774   -2.6795162  
C    8.2032438   -0.0052214   -1.7262643  
H    5.6103771   -0.0042927   -0.0882233  
H    4.4140952    0.0076883   -4.1218860  
H    6.9338473   -0.0019969   -5.4472565  
H   10.3956197   -0.0043382   -4.7445215  
H   10.6745782   -0.0070991   -1.7443461  
H    8.5841288   -0.0065378   -0.7116693  
C    3.1301149   -0.0010311   -1.7028252  
C    2.5367768   -0.0002767   -0.4864665  
C    1.1089904    0.0001028   -0.7656183  
C    1.0177872   -0.0004148   -2.2415132  
N    2.1993578   -0.0011611   -2.7963820  
C   -0.2459209   -0.0002877   -2.9257118  
C   -1.3675319   -0.0000605   -2.1698524  
O   -2.6129313    0.0000867   -2.6748490  
C   -1.3083584    0.0000910   -0.6783232  
O   -2.3693261    0.0004206   -0.0541692  
C    0.0000000    0.0000000    0.0000000  
H    3.0096017   -0.0001007    0.4807525  
H   -0.2829630   -0.0004687   -4.0053125  
H   -3.1967441    0.0002094   -1.8949034  
C    0.0000000    0.0000000    1.4700000  
C    1.0662921    0.0000102    2.3034270  
C    0.4961870   -0.0000064    3.6418889  
C   -0.9663858    0.0000850    3.4240247  
N   -1.2632773    0.0000084    2.1528658  
C   -1.8985362    0.0000517    4.5177257  
C   -1.3925775   -0.0004564    5.7720543  
O   -2.1456383   -0.0005410    6.8851312  
C    0.0786232   -0.0009323    6.0245000  
O    0.4683759   -0.0012588    7.1921102  
C    1.0143166   -0.0008442    4.8859032  
H    2.1107198   -0.0000632    2.0421868  
H   -2.9622183    0.0003270    4.3293377  
H   -1.5042274   -0.0009692    7.6184419  
H    2.0724152   -0.0013148    5.1109744  
