48
5B 10B 38B 13 16 44 7 4 7 2 0 1 0 nosym
C    1.6628973    0.0337773   -3.2649299  
C    3.0380384    0.0327237   -3.3030581  
C    3.4164368    0.0452332   -4.6782879  
C    2.2194498    0.0538855   -5.4392567  
N    1.1735138    0.0446617   -4.5501279  
C    2.2121576    0.0673888   -6.8373102  
C    3.4355022    0.0725531   -7.4788538  
O    3.4861478    0.0860287   -8.8427702  
C    4.6406913    0.0637063   -6.7370602  
O    5.7759400    0.0699862   -7.5209706  
C    4.6486396    0.0501106   -5.3578295  
H    3.6884154    0.0229057   -2.4452081  
H    0.2007640    0.0582587   -4.7982289  
H    1.3033121    0.0738916   -7.4231088  
H    4.4223079    0.0871784   -9.0812408  
H    6.5448574    0.0633347   -6.9427617  
H    5.5876367    0.0433996   -4.8167956  
C    1.1243418    0.0099159   -0.7919003  
C    0.7474092    0.0234036   -2.1148542  
C   -0.6787365    0.0234950   -2.1414698  
C   -1.1201738    0.0099353   -0.7935546  
N    0.0000000    0.0000000    0.0000000  
C   -2.4730813    0.0065388   -0.4408240  
C   -3.3971946    0.0173288   -1.4675058  
O   -4.7313507    0.0149473   -1.1793467  
C   -2.9763626    0.0305528   -2.8186323  
O   -4.0166448    0.0397846   -3.7247623  
C   -1.6418539    0.0336375   -3.1673480  
H   -2.8160169   -0.0039199    0.5845966  
H   -5.1938803    0.0234395   -2.0274386  
H   -3.6464640    0.0484770   -4.6127344  
H   -1.3497438    0.0436785   -4.2109234  
H    2.1062470    0.0051388   -0.3505405  
C    0.8175213    0.6860729    2.3021913  
C    0.0000000    0.0000000    1.4700000  
C   -0.8887526   -0.7456559    2.3478473  
C   -0.4549825   -0.3816753    3.7138435  
N    0.5448156    0.4573574    3.6934124  
C   -1.0945674   -0.9182058    4.8835240  
C   -2.1210866   -1.7789155    4.6970523  
O   -2.8083856   -2.3554314    5.6976972  
C   -2.5824069   -2.1655116    3.3310774  
O   -3.5227682   -2.9541547    3.2362962  
C   -1.9100805   -1.6015804    2.1470656  
H   -0.7567140   -0.6349833    5.8697035  
H   -3.4728268   -2.9124471    5.2533954  
H   -2.2742832   -1.9066565    1.1752040  
H    1.6189533    1.3585343    2.0405121  
