46
0A 4A 5B 22B 31A 36B 16 12 13 29 45 43 2 1 7 7 2 7 3 1 2 0 nosym
C    6.6540977   -0.0011649    1.3962729  
C    5.4018071   -0.0014566    0.8268552  
C    5.5874904   -0.0008421   -0.5874014  
C    6.9861179   -0.0004712   -0.8235503  
N    7.6043962    0.0012709    0.4021523  
C    7.5360617   -0.0001420   -2.1089885  
C    6.6581043   -0.0004950   -3.1754633  
O    7.1413991   -0.0005482   -4.4519588  
C    5.2593677   -0.0004920   -2.9601678  
O    4.5179012   -0.0004426   -4.1235984  
C    4.7161325   -0.0005435   -1.6923264  
H    4.4691981   -0.0009350    1.3646588  
H    8.5971749   -0.0086541    0.5513881  
H    8.6011206    0.0002855   -2.2956728  
H    6.3714452   -0.0005123   -5.0354277  
H    3.5847242   -0.0004712   -3.8895380  
H    6.9446145   -0.0010560    2.4328822  
C    3.2573665   -0.0002920   -1.5109385  
C    2.5379463   -0.0001709   -0.3591964  
C    1.1435038    0.0000331   -0.7338500  
C    1.1092599   -0.0000083   -2.2088477  
N    2.4227553    0.0001909   -2.6182613  
C   -0.0265539   -0.0002524   -2.9515660  
C   -1.3003040   -0.0002640   -2.2514977  
O   -2.3786790   -0.0004133   -2.8306421  
C   -1.2877727    0.0000311   -0.6895603  
O   -2.3539959    0.0003306   -0.0892030  
C    0.0000000    0.0000000    0.0000000  
H    2.9384091   -0.0000367    0.6389234  
H   -0.0296303   -0.0004086   -4.0327229  
H    2.7280482   -0.0013407   -3.5742119  
C    2.3971438    2.0127888    3.1728260  
C    1.9431056    1.6308205    1.9564670  
C    0.8496017    0.7127664    2.2356185  
C    0.7794028    0.6545384    3.7115134  
N    1.6840587    1.4146091    4.2663826  
C   -0.1885723   -0.1578550    4.3957118  
C   -1.0476298   -0.8789867    3.6398520  
O   -2.0015663   -1.6796266    4.1448486  
C   -1.0022026   -0.8410666    2.1483229  
O   -1.8147390   -1.5232959    1.5241687  
C    0.0000000    0.0000000    1.4700000  
H    2.3054237    1.9346118    0.9892483  
H   -0.2170646   -0.1815267    5.4753125  
H   -2.4487139   -2.0549881    3.3649027  
H    3.2048689    2.6911772    3.3971983  
