46
0A 1A 10B 36B 16 11 15 42 2 3 4 7 3 0 1 0 nosym
C    4.5572027   -2.1238598   -2.7954707  
C    4.8218136   -1.6261101   -4.0503386  
C    3.7465395   -0.7512512   -4.3865036  
C    2.8482641   -0.7549060   -3.2887724  
N    3.3696291   -1.6000638   -2.3408775  
C    1.6707639   -0.0012345   -3.2725973  
C    1.3951972    0.7704142   -4.3847118  
O    0.2590868    1.5260024   -4.4215026  
C    2.2789328    0.7870006   -5.4899514  
O    1.8644423    1.6048187   -6.5208316  
C    3.4406090    0.0435268   -5.5067082  
H    5.6832610   -1.8651264   -4.6501501  
H    2.9560527   -1.7955157   -1.4471584  
H    0.2603883    1.9796628   -5.2744126  
H    2.5165411    1.5586429   -7.2266920  
H    4.0980144    0.0762840   -6.3676511  
H    5.1209110   -2.8121791   -2.1893294  
C    1.0965515    0.0001358   -0.8010305  
C    0.0000000    0.0000000    0.0000000  
C   -1.1546564    0.0001470   -0.8669509  
C   -0.6372017    0.0003518   -2.2486278  
N    0.7342868    0.0007337   -2.1395011  
C   -1.4147742    0.0001351   -3.3608713  
C   -2.8576052   -0.0001048   -3.1854458  
O   -3.6427782   -0.0002494   -4.1244899  
C   -3.4275841   -0.0000725   -1.7311663  
O   -4.6406831    0.0000333   -1.5710053  
C   -2.4891868   -0.0001090   -0.6116741  
H   -1.0150454    0.0001614   -4.3654241  
H   -2.8919123   -0.0002920    0.3920869  
H    2.1388270    0.0000662   -0.5261648  
C    0.8175213    0.6860729    2.3021913  
C    0.0000000    0.0000000    1.4700000  
C   -0.8887526   -0.7456559    2.3478473  
C   -0.4549825   -0.3816753    3.7138435  
N    0.5448156    0.4573574    3.6934124  
C   -1.0945674   -0.9182058    4.8835240  
C   -2.1210866   -1.7789155    4.6970523  
O   -2.8083856   -2.3554314    5.6976972  
C   -2.5824069   -2.1655116    3.3310774  
O   -3.5227682   -2.9541547    3.2362962  
C   -1.9100805   -1.6015804    2.1470656  
H   -0.7567140   -0.6349833    5.8697035  
H   -3.4728268   -2.9124471    5.2533954  
H   -2.2742832   -1.9066565    1.1752040  
H    1.6189533    1.3585343    2.0405121  
