48
5B 10B 17A 35A 36B 13 16 30 42 43 7 4 2 1 7 2 1 2 0 nosym
C   -0.2963294   -0.0005341   -4.3948471  
C    0.7248286   -0.0020294   -5.3166396  
C    0.1197347   -0.0021711   -6.6083289  
C   -1.2847550   -0.0004255   -6.4100061  
N   -1.5029815   -0.0014164   -5.0546493  
C   -2.1980210    0.0002427   -7.4686534  
C   -1.6841005   -0.0005646   -8.7508641  
O   -2.5311377    0.0003855   -9.8211629  
C   -0.2858201   -0.0026812   -8.9690929  
O    0.0686628   -0.0036740  -10.3023916  
C    0.6157253   -0.0036147   -7.9251871  
H    1.7764813   -0.0040147   -5.0863877  
H   -2.4039878    0.0099671   -4.6118859  
H   -3.2696200    0.0014277   -7.3241652  
H   -1.9739385   -0.0007166  -10.6103355  
H    1.0289086   -0.0050682  -10.3618040  
H    1.6811962   -0.0054210   -8.1232953  
C    3.1301143   -0.0010313   -1.7028257  
C    2.5367765   -0.0002767   -0.4864669  
C    1.1089900    0.0001027   -0.7656184  
C    1.0177864   -0.0004150   -2.2415133  
N    2.1993571   -0.0011613   -2.7963824  
C   -0.2459220   -0.0002879   -2.9257116  
C   -1.3675327   -0.0000606   -2.1698519  
O   -2.6129319    0.0000866   -2.6748482  
C   -1.3083588    0.0000910   -0.6783229  
O   -2.3693264    0.0004206   -0.0541685  
C    0.0000000    0.0000000    0.0000000  
H    3.0096014   -0.0001008    0.4807517  
H   -3.1967445    0.0002093   -1.8949025  
H    4.1849272   -0.0015113   -1.9271980  
C    0.8576279    0.7185626    2.2703808  
C    0.0000000    0.0000000    1.4700000  
C   -0.8668858   -0.7285659    2.3373528  
C   -0.4876752   -0.4117774    3.6669281  
N    0.5635254    0.4678311    3.5902241  
C   -1.1297612   -0.9515493    4.7854808  
C   -2.1738724   -1.8268314    4.5576857  
O   -2.8357962   -2.3827064    5.6140350  
C   -2.5667212   -2.1555554    3.2384331  
O   -3.6226318   -3.0413663    3.1773122  
C   -1.9335634   -1.6236449    2.1344818  
H    1.0363952    0.8769718    4.3757045  
H   -0.8454472   -0.7142436    5.8013813  
H   -3.5178062   -2.9546422    5.2385129  
H   -3.8247440   -3.2102924    2.2519915  
H   -2.2566033   -1.8942483    1.1360343  
H    1.6567807    1.3889844    2.0042067  
