48
0A 1A 10B 33A 37A 38B 16 11 15 46 47 45 2 3 4 2 1 7 3 0 3 0 nosym
C    1.5863850   -2.0669215   -5.3411590  
C    1.3190622   -1.5554358   -6.5899135  
C    0.1997768   -0.6821743   -6.4512974  
C   -0.1758776   -0.7009155   -5.0836503  
N    0.6853213   -1.5531282   -4.4381370  
C   -1.2456336    0.0471730   -4.5828764  
C   -1.9487912    0.8286467   -5.4790046  
O   -3.0022066    1.5793709   -5.0434086  
C   -1.5894740    0.8603274   -6.8474727  
O   -2.3866549    1.6865203   -7.6124891  
C   -0.5344182    0.1223696   -7.3422470  
H    1.8630974   -1.7845021   -7.4902178  
H    0.6699316   -1.7594003   -3.4556930  
H   -3.3471078    2.0415453   -5.8184585  
H   -2.0770115    1.6503883   -8.5226645  
H   -0.2828530    0.1667421   -8.3954439  
H    2.3476126   -2.7586918   -5.0234417  
C    1.1243408    0.0099924   -0.7919005  
C    0.7474073    0.0234547   -2.1148544  
C   -0.6787385    0.0234491   -2.1414699  
C   -1.1201747    0.0098593   -0.7935545  
N    0.0000000    0.0000000    0.0000000  
C   -2.4730817    0.0063708   -0.4408237  
C   -3.3971961    0.0170979   -1.4675053  
O   -4.7313517    0.0146259   -1.1793464  
C   -2.9763655    0.0303507   -2.8186320  
O   -4.0166483    0.0395117   -3.7247617  
C   -1.6418568    0.0335262   -3.1673479  
H    1.4178711    0.0310976   -2.9571212  
H   -2.8160166   -0.0041112    0.5845970  
H   -5.1938825    0.0230867   -2.0274377  
H   -3.6464683    0.0482297   -4.6127338  
H    2.1062465    0.0052822   -0.3505410  
C    2.4951002    2.0940188    2.9809380  
C    1.9440701    1.6314916    1.8291961  
C    0.8759964    0.7350050    2.2038498  
C    0.8497377    0.7130254    3.6788474  
N    1.8560616    1.5571714    4.0882609  
C   -0.0205033   -0.0168748    4.4215661  
C   -0.9962600   -0.8356168    3.7214979  
O   -1.8224391   -1.5286685    4.3006425  
C   -0.9864710   -0.8277881    2.1595606  
O   -1.8030528   -1.5133726    1.5592035  
C    0.0000000    0.0000000    1.4700000  
H    2.2509283    1.8888011    0.8310761  
H   -0.0229599   -0.0187323    5.5027230  
H    3.3143982    2.7817323    3.1139444  
H    2.0889452    1.7545833    5.0442112  
