46
5B 10B 17A 31A 32A 41B 13 16 30 45 42 44 7 4 2 2 3 4 2 1 3 0 nosym
C   -0.2963294   -0.0005341   -4.3948471  
C    0.7248286   -0.0020294   -5.3166396  
C    0.1197347   -0.0021711   -6.6083289  
C   -1.2847550   -0.0004255   -6.4100061  
N   -1.5029815   -0.0014164   -5.0546493  
C   -2.1980210    0.0002427   -7.4686534  
C   -1.6841005   -0.0005646   -8.7508641  
O   -2.5311377    0.0003855   -9.8211629  
C   -0.2858201   -0.0026812   -8.9690929  
O    0.0686628   -0.0036740  -10.3023916  
C    0.6157253   -0.0036147   -7.9251871  
H    1.7764813   -0.0040147   -5.0863877  
H   -2.4039878    0.0099671   -4.6118859  
H   -3.2696200    0.0014277   -7.3241652  
H   -1.9739385   -0.0007166  -10.6103355  
H    1.0289086   -0.0050682  -10.3618040  
H    1.6811962   -0.0054210   -8.1232953  
C    3.1301143   -0.0010313   -1.7028257  
C    2.5367765   -0.0002767   -0.4864669  
C    1.1089900    0.0001027   -0.7656184  
C    1.0177864   -0.0004150   -2.2415133  
N    2.1993571   -0.0011613   -2.7963824  
C   -0.2459220   -0.0002879   -2.9257116  
C   -1.3675327   -0.0000606   -2.1698519  
O   -2.6129319    0.0000866   -2.6748482  
C   -1.3083588    0.0000910   -0.6783229  
O   -2.3693264    0.0004206   -0.0541685  
C    0.0000000    0.0000000    0.0000000  
H    3.0096014   -0.0001008    0.4807517  
H   -3.1967445    0.0002093   -1.8949025  
H    4.1849272   -0.0015113   -1.9271980  
C    2.5528530    2.1414826    2.8079335  
C    2.0663498    1.7338582    4.0032312  
C    0.9804344    0.8229586    3.6752840  
C    0.9495562    0.7966882    2.1971295  
N    1.8690446    1.5676019    1.6831036  
C    0.0000000    0.0000000    1.4700000  
C   -0.8785127   -0.7372425    2.1869543  
O   -1.8187535   -1.5261249    1.6395491  
C   -0.8723269   -0.7321790    3.6796354  
O   -1.7010379   -1.4274584    4.2670412  
C    0.1115397    0.0933559    4.4024240  
H    2.4028853    2.0163452    4.9860947  
H   -2.2861435   -1.9184361    2.3990168  
H    0.0832434    0.0693689    5.4835595  
H    3.3664920    2.8238276    2.6198634  
