48
5B 10B 35A 36B 13 16 42 43 7 4 1 7 2 0 2 0 nosym
C   -0.8287671    0.0000935   -4.7555305  
C    0.4934746   -0.0006598   -5.1351931  
C    0.5171460   -0.0005564   -6.5613908  
C   -0.8317454    0.0005673   -7.0000442  
N   -1.6230473   -0.0010138   -5.8782355  
C   -1.1872834    0.0012736   -8.3522208  
C   -0.1624543    0.0011447   -9.2784520  
O   -0.4533751    0.0021631  -10.6120096  
C    1.1896014   -0.0003450   -8.8604091  
O    2.0936292   -0.0007027   -9.9025598  
C    1.5410840   -0.0013157   -7.5266238  
H    1.3371559   -0.0023206   -4.4664687  
H   -2.6269690    0.0098532   -5.8761615  
H   -2.2134630    0.0019867   -8.6930396  
H    0.3938023    0.0015725  -11.0762892  
H    2.9824058   -0.0017001   -9.5342134  
H    2.5853074   -0.0026324   -7.2366685  
C    1.0672566   -0.0000698   -0.8321912  
C    0.0000000    0.0000000    0.0000000  
C   -1.1601226   -0.0000736   -0.8778472  
C   -0.5938732   -0.0000770   -2.2438435  
N    0.7113365   -0.0001555   -2.2234123  
C   -1.4286989   -0.0001880   -3.4135239  
C   -2.7683117   -0.0006800   -3.2270522  
O   -3.6653907   -0.0008306   -4.2276967  
C   -3.3702026   -0.0010611   -1.8610771  
O   -4.5974909   -0.0013781   -1.7662957  
C   -2.4926826   -0.0008944   -0.6770655  
H   -4.5324249   -0.0012263   -3.7833950  
H   -2.9677773   -0.0012975    0.2947963  
H    2.1134390   -0.0000546   -0.5705121  
C    0.8576279    0.7185626    2.2703808  
C    0.0000000    0.0000000    1.4700000  
C   -0.8668858   -0.7285659    2.3373528  
C   -0.4876752   -0.4117774    3.6669281  
N    0.5635254    0.4678311    3.5902241  
C   -1.1297612   -0.9515493    4.7854808  
C   -2.1738724   -1.8268314    4.5576857  
O   -2.8357962   -2.3827064    5.6140350  
C   -2.5667212   -2.1555554    3.2384331  
O   -3.6226318   -3.0413663    3.1773122  
C   -1.9335634   -1.6236449    2.1344818  
H    1.0363952    0.8769718    4.3757045  
H   -0.8454472   -0.7142436    5.8013813  
H   -3.5178062   -2.9546422    5.2385129  
H   -3.8247440   -3.2102924    2.2519915  
H   -2.2566033   -1.8942483    1.1360343  
H    1.6567807    1.3889844    2.0042067  
