50
5B 10B 38B 43B 13 16 46 49 7 4 7 4 2 0 2 0 nosym
C    2.8310667   -0.0116222   -4.0232749  
C    4.0831549   -0.0141183   -4.5931314  
C    3.8969860   -0.0306989   -6.0072271  
C    2.4982829   -0.0374878   -6.2428327  
N    1.8804354   -0.0275301   -5.0169529  
C    1.9478994   -0.0533747   -7.5279844  
C    2.8254842   -0.0622689   -8.5947294  
O    2.3417506   -0.0774927   -9.8709670  
C    4.2242897   -0.0560813   -8.3799701  
O    4.9653516   -0.0668118   -9.5436094  
C    4.7679602   -0.0406828   -7.1124096  
H    5.0159476   -0.0062033   -4.0557038  
H    0.8876839   -0.0186983   -4.8674623  
H    0.8827811   -0.0587645   -7.7142538  
H    3.1115001   -0.0817931  -10.4546901  
H    5.8986059   -0.0616650   -9.3099137  
H    5.8434540   -0.0364562   -6.9790934  
C    3.3041272    0.0001176   -1.5420430  
C    2.5845372   -0.0004781   -0.3695853  
C    1.2040007   -0.0000009   -0.7283590  
C    1.1422375    0.0006035   -2.1454373  
N    2.4348640    0.0026108   -2.6077464  
C   -0.0655179    0.0008795   -2.8497920  
C   -1.2321766    0.0002322   -2.1101401  
O   -2.4392816    0.0001144   -2.7472523  
C   -1.1911210   -0.0000008   -0.6955265  
O   -2.4371530   -0.0002321   -0.1032862  
C    0.0000000    0.0000000    0.0000000  
H    3.0031534   -0.0000660    0.6222580  
H   -0.1193548    0.0014841   -3.9297472  
H   -3.1132988   -0.0000650   -2.0551788  
H   -2.3200280   -0.0004071    0.8516408  
H    4.3686626    0.0004070   -1.7024289  
C    0.0000000    0.0000000    1.4700000  
C    1.0521667    0.0011902    2.3562342  
C    0.4917218    0.0011957    3.6679131  
C   -0.9187428   -0.0003148    3.5178682  
N   -1.1833171    0.0009411    2.1707914  
C   -1.7951701   -0.0010350    4.6072090  
C   -1.2375837   -0.0005224    5.8710424  
O   -2.0474215   -0.0015360    6.9697579  
C    0.1673580    0.0013566    6.0411963  
O    0.5673524    0.0020687    7.3615553  
C    1.0325770    0.0023412    4.9669890  
H    2.0953057    0.0030649    2.0900562  
H   -2.0989778   -0.0102372    1.7591824  
H   -2.8710934   -0.0020419    4.4995513  
H   -1.4634884   -0.0006497    7.7393593  
H    1.5290710    0.0033153    7.3880045  
H    2.1042148    0.0039609    5.1284455  
