48
5B 10B 35A 36B 13 16 42 43 7 4 1 7 2 0 2 0 nosym
C    1.7334696    0.0049245   -3.2500362  
C    3.1090793    0.0045671   -3.2628649  
C    3.5126985    0.0058536   -4.6309622  
C    2.3299041    0.0072577   -5.4138552  
N    1.2677986    0.0046985   -4.5440606  
C    2.3483170    0.0090624   -6.8118705  
C    3.5832502    0.0097639   -7.4308350  
O    3.6589625    0.0118693   -8.7936541  
C    4.7745982    0.0080110   -6.6669608  
O    5.9240672    0.0085724   -7.4298910  
C    4.7571873    0.0059569   -5.2877513  
H    3.7435755    0.0024041   -2.3931507  
H    0.2997685    0.0155020   -4.8101093  
H    1.4503949    0.0099948   -7.4143135  
H    4.5993491    0.0117154   -9.0148740  
H    6.6822245    0.0073245   -6.8376075  
H    5.6860792    0.0044642   -4.7295077  
C    1.1319246    0.0015655   -0.8009268  
C    0.7969915    0.0034942   -2.1169401  
C   -0.6453340    0.0035709   -2.1842669  
C   -1.1266832    0.0015433   -0.7896025  
N    0.0000000    0.0000000    0.0000000  
C   -2.4346130    0.0013964   -0.4276293  
C   -3.4350112    0.0031409   -1.4820183  
O   -4.6384613    0.0030974   -1.2583915  
C   -2.9478958    0.0050505   -2.9661074  
O   -3.7809383    0.0062217   -3.8623776  
C   -1.5113824    0.0053089   -3.2312122  
H   -2.7664564    0.0000233    0.6013448  
H   -1.1823530    0.0068406   -4.2614847  
H    2.1104315    0.0009390   -0.3488058  
C    0.8576279    0.7185626    2.2703808  
C    0.0000000    0.0000000    1.4700000  
C   -0.8668858   -0.7285659    2.3373528  
C   -0.4876752   -0.4117774    3.6669281  
N    0.5635254    0.4678311    3.5902241  
C   -1.1297612   -0.9515493    4.7854808  
C   -2.1738724   -1.8268314    4.5576857  
O   -2.8357962   -2.3827064    5.6140350  
C   -2.5667212   -2.1555554    3.2384331  
O   -3.6226318   -3.0413663    3.1773122  
C   -1.9335634   -1.6236449    2.1344818  
H    1.0363952    0.8769718    4.3757045  
H   -0.8454472   -0.7142436    5.8013813  
H   -3.5178062   -2.9546422    5.2385129  
H   -3.8247440   -3.2102924    2.2519915  
H   -2.2566033   -1.8942483    1.1360343  
H    1.6567807    1.3889844    2.0042067  
