46
1A 10B 35A 36B 11 15 45 42 3 4 1 7 2 0 2 0 nosym
C    3.9420067   -0.7120701   -4.5063815  
C    4.0760568   -0.4635061   -5.8527519  
C    3.0376219    0.4452895   -6.2137833  
C    2.2953676    0.7181881   -5.0362809  
N    2.8699635   -0.0020528   -4.0185828  
C    1.1931549    1.5782059   -5.0193800  
C    0.8338811    2.1738164   -6.2128408  
O   -0.2343100    3.0225690   -6.2528411  
C    1.5617868    1.9137842   -7.3983165  
O    1.0796407    2.5824028   -8.5045842  
C    2.6490869    1.0652563   -7.4157840  
H    4.8289333   -0.8861686   -6.4958128  
H    0.6231804    1.7902352   -4.1253027  
H   -0.3105739    3.3225516   -7.1679692  
H    1.6267216    2.3518606   -9.2616551  
H    3.1870320    0.8852644   -8.3392000  
H    4.5254118   -1.3407657   -3.8557364  
C    3.2573667   -0.0002919   -1.5109386  
C    2.5379468   -0.0001709   -0.3591965  
C    1.1435041    0.0000331   -0.7338500  
C    1.1092604   -0.0000084   -2.2088475  
N    2.4227558    0.0001908   -2.6182613  
C   -0.0265536   -0.0002526   -2.9515663  
C   -1.3003039   -0.0002641   -2.2514979  
O   -2.3786786   -0.0004135   -2.8306422  
C   -1.2877726    0.0000311   -0.6895607  
O   -2.3539957    0.0003306   -0.0892033  
C    0.0000000    0.0000000    0.0000000  
H    2.9384090   -0.0000368    0.6389236  
H   -0.0296296   -0.0004089   -4.0327231  
H    4.3270391   -0.0004765   -1.6439450  
C    0.8400945    0.7047457    2.2710304  
C    0.0000000    0.0000000    1.4700000  
C   -0.8844236   -0.7423113    2.3369512  
C   -0.4878984   -0.4098547    3.7186280  
N    0.5629682    0.4714286    3.6095011  
C   -1.0836927   -0.9095027    4.8308716  
C   -2.1891196   -1.8367527    4.6554461  
O   -2.7906899   -2.3413415    5.5944904  
C   -2.6257283   -2.2031529    3.2011665  
O   -3.5549479   -2.9829990    3.0410059  
C   -1.9068976   -1.5999348    2.0816745  
H   -0.7774656   -0.6525820    5.8354244  
H   -2.2155208   -1.8586617    1.0779135  
H    1.6384792    1.3747609    1.9961646  
H    1.0518368    0.8833920    4.3830260  
