50
5B 10B 33A 34A 43B 13 16 49 44 48 7 4 2 3 4 2 0 3 0 nosym
C   -0.9736295    0.0040466   -4.6965763  
C    0.3184309    0.0036279   -5.1688550  
C    0.2411191    0.0048062   -6.5931519  
C   -1.1354317    0.0062105   -6.9352514  
N   -1.8453660    0.0037555   -5.7602606  
C   -1.5857639    0.0079220   -8.2588778  
C   -0.6290481    0.0085283   -9.2553081  
O   -1.0136081    0.0105402  -10.5649348  
C    0.7492004    0.0067736   -8.9339917  
O    1.5772149    0.0072340  -10.0375026  
C    1.1941862    0.0048114   -7.6284236  
H    1.2073188    0.0014946   -4.5615109  
H   -2.8466241    0.0145839   -5.6871420  
H   -2.6334891    0.0088539   -8.5262249  
H   -0.2014089    0.0103304  -11.0880006  
H    2.4898291    0.0059920   -9.7329740  
H    2.2563102    0.0033149   -7.4130899  
C    1.1188642    0.0008216   -0.8003808  
C    0.0000000    0.0000000    0.0000000  
C   -1.1323861    0.0008904   -0.8673528  
C   -0.6382661    0.0019681   -2.1969280  
N    0.7324017    0.0038477   -2.1202241  
C   -1.4770913    0.0027323   -3.3154808  
C   -2.8395472    0.0020956   -3.0876858  
O   -3.7039201    0.0024441   -4.1440350  
C   -3.3517867    0.0013945   -1.7684332  
O   -4.7300494    0.0012387   -1.7073122  
C   -2.5248543    0.0009134   -0.6644817  
H    1.3576316   -0.0056175   -2.9057045  
H   -4.5940031    0.0021847   -3.7685129  
H   -4.9934602    0.0007284   -0.7819915  
H   -2.9462576    0.0005617    0.3339659  
H    2.1619896    0.0009343   -0.5342067  
C    2.5285572    2.1210227    2.9438989  
C    1.9331703    1.6216660    4.0790748  
C    0.8903039    0.7472258    3.6520102  
C    0.8972198    0.7527806    2.2336141  
N    1.9028376    1.5986179    1.8362361  
C    0.0000000    0.0000000    1.4700000  
C   -0.9207814   -0.7726952    2.1506477  
O   -1.8198395   -1.5274828    1.4542253  
C   -0.9436862   -0.7911793    3.5655508  
O   -1.9197945   -1.6098497    4.0950179  
C   -0.0590329   -0.0485852    4.3195194  
H    2.2150357    1.8593692    5.0905303  
H    2.1533708    1.7953814    0.8841339  
H   -2.3621246   -1.9821033    2.1118817  
H   -1.8668290   -1.5649508    5.0545920  
H   -0.1007624   -0.0827977    5.4019087  
H    3.3491200    2.8096064    2.8367138  
