50
33A 37A 38B 5A 16A 20B 21B 49 45 46 13 32 28 29 2 1 7 7 2 1 7 3 1 3 0 nosym
C    3.3041269    0.0001177   -1.5420434  
C    2.5845370   -0.0004780   -0.3695856  
C    1.2040006   -0.0000007   -0.7283591  
C    1.1422372    0.0006038   -2.1454374  
N    2.4348634    0.0026110   -2.6077469  
C   -0.0655187    0.0008799   -2.8497915  
C   -1.2321772    0.0002326   -2.1101397  
O   -2.4392820    0.0001149   -2.7472517  
C   -1.1911209   -0.0000007   -0.6955263  
O   -2.4371523   -0.0002319   -0.1032858  
C    0.0000000    0.0000000    0.0000000  
H    3.0031535   -0.0000661    0.6222578  
H    2.7054623   -0.0071098   -3.5745264  
H   -0.1193555    0.0014846   -3.9297470  
H   -3.1132995   -0.0000646   -2.0551782  
H   -2.3200286   -0.0004070    0.8516413  
C    6.7748111   -0.0036707    1.2764664  
C    5.5082317   -0.0035546    0.7395821  
C    5.6573263   -0.0010105   -0.6789963  
C    7.0493884    0.0000630   -0.9511883  
N    7.6991164    0.0003496    0.2581384  
C    7.5659486    0.0022522   -2.2503994  
C    6.6607403    0.0030711   -3.2938433  
O    7.1109048    0.0048475   -4.5823935  
C    5.2680305    0.0023991   -3.0424940  
O    4.4967632    0.0037871   -4.1863859  
C    4.7577216    0.0005129   -1.7610467  
H    4.5898238   -0.0040067    1.3012931  
H    8.6954216   -0.0094975    0.3816704  
H    8.6258305    0.0032239   -2.4645281  
H    6.3261386    0.0054439   -5.1457821  
H    3.5699423    0.0031881   -3.9283025  
H    7.0920039   -0.0048576    2.3052260  
C    2.5311839    2.1237619    3.0120429  
C    1.9795631    1.6616747    1.8395852  
C    0.9223175    0.7739173    2.1983588  
C    0.8753926    0.7337535    3.6154372  
N    1.8668922    1.5631002    4.0777464  
C   -0.0496243   -0.0427881    4.3197917  
C   -0.9437528   -0.7922060    3.5801400  
O   -1.8685244   -1.5680278    4.2172520  
C   -0.9124520   -0.7656372    2.1655264  
O   -1.8671164   -1.5663939    1.5732860  
C    0.0000000    0.0000000    1.4700000  
H    2.3005065    1.9304404    0.8477417  
H    2.0679347    1.7444845    5.0445261  
H   -0.0904770   -0.0778569    5.3997470  
H   -2.3849669   -2.0011402    3.5251786  
H   -1.7775064   -1.4909735    0.6183591  
H    3.3468514    2.8078103    3.1724291  
