46
0A 1A 10B 31A 32A 41B 16 11 15 45 42 44 2 3 4 2 3 4 3 0 3 0 nosym
C    1.7947392   -2.1104190   -5.2688958  
C    1.5724938   -1.6097192   -6.5307887  
C    0.4483886   -0.7363488   -6.4401710  
C    0.0234717   -0.7439103   -5.0869104  
N    0.8612548   -1.5898625   -4.4034617  
C   -1.0641730    0.0073887   -4.6315340  
C   -1.7349008    0.7806379   -5.5591049  
O   -2.8038571    1.5340381   -5.1682921  
C   -1.3262885    0.8011163   -6.9138868  
O   -2.0957529    1.6201017   -7.7142185  
C   -0.2535579    0.0599847   -7.3638851  
H    2.1489111   -1.8458639   -7.4088394  
H    0.8104288   -1.7878631   -3.4205102  
H   -3.1207518    1.9893486   -5.9591995  
H   -1.7533344    1.5765860   -8.6122501  
H    0.0359499    0.0957122   -8.4076228  
H    2.5443873   -2.7987884   -4.9179924  
C    1.1319249    0.0015673   -0.8009268  
C    0.7969919    0.0034954   -2.1169403  
C   -0.6453335    0.0035697   -2.1842672  
C   -1.1266831    0.0015413   -0.7896029  
N    0.0000000    0.0000000    0.0000000  
C   -2.4346128    0.0013921   -0.4276299  
C   -3.4350109    0.0031346   -1.4820187  
O   -4.6384610    0.0030891   -1.2583924  
C   -2.9478954    0.0050451   -2.9661078  
O   -3.7809375    0.0062147   -3.8623779  
C   -1.5113818    0.0053061   -3.2312126  
H    1.4821242    0.0045430   -2.9459191  
H   -2.7664565    0.0000184    0.6013444  
H    2.1104318    0.0009428   -0.3488057  
C    2.5528530    2.1414826    2.8079335  
C    2.0663498    1.7338582    4.0032312  
C    0.9804344    0.8229586    3.6752840  
C    0.9495562    0.7966882    2.1971295  
N    1.8690446    1.5676019    1.6831036  
C    0.0000000    0.0000000    1.4700000  
C   -0.8785127   -0.7372425    2.1869543  
O   -1.8187535   -1.5261249    1.6395491  
C   -0.8723269   -0.7321790    3.6796354  
O   -1.7010379   -1.4274584    4.2670412  
C    0.1115397    0.0933559    4.4024240  
H    2.4028853    2.0163452    4.9860947  
H   -2.2861435   -1.9184361    2.3990168  
H    0.0832434    0.0693689    5.4835595  
H    3.3664920    2.8238276    2.6198634  
