46
4A 5B 31A 36B 11 12 45 43 1 7 2 7 2 0 2 0 nosym
C   -0.0027742   -0.7092648   -5.1338368  
C   -1.0641730    0.0073887   -4.6315340  
C   -1.6270393    0.7363997   -5.7207193  
C   -0.8609060    0.4218375   -6.8722470  
N    0.1182679   -0.4569294   -6.4803227  
C   -1.1329637    0.9626137   -8.1325383  
C   -2.1980144    1.8366293   -8.2322452  
O   -2.5079139    2.3934022   -9.4392988  
C   -2.9740145    2.1631290   -7.0946870  
O   -3.9996123    3.0478985   -7.3567453  
C   -2.7060300    1.6302271   -5.8510126  
H    0.8082133   -0.8645296   -7.0851516  
H   -0.5527586    0.7270041   -9.0140443  
H   -3.2725772    2.9641893   -9.2884472  
H   -4.4738671    3.2153311   -6.5365914  
H   -3.3178583    1.8991236   -4.9978779  
H    0.6783875   -1.3793410   -4.6378776  
C    1.1319249    0.0015673   -0.8009268  
C    0.7969919    0.0034954   -2.1169403  
C   -0.6453335    0.0035697   -2.1842672  
C   -1.1266831    0.0015413   -0.7896029  
N    0.0000000    0.0000000    0.0000000  
C   -2.4346128    0.0013921   -0.4276299  
C   -3.4350109    0.0031346   -1.4820187  
O   -4.6384610    0.0030891   -1.2583924  
C   -2.9478954    0.0050451   -2.9661078  
O   -3.7809375    0.0062147   -3.8623779  
C   -1.5113818    0.0053061   -3.2312126  
H    1.4821242    0.0045430   -2.9459191  
H   -2.7664565    0.0000184    0.6013444  
H    2.1104318    0.0009428   -0.3488057  
C    2.3971438    2.0127888    3.1728260  
C    1.9431056    1.6308205    1.9564670  
C    0.8496017    0.7127664    2.2356185  
C    0.7794028    0.6545384    3.7115134  
N    1.6840587    1.4146091    4.2663826  
C   -0.1885723   -0.1578550    4.3957118  
C   -1.0476298   -0.8789867    3.6398520  
O   -2.0015663   -1.6796266    4.1448486  
C   -1.0022026   -0.8410666    2.1483229  
O   -1.8147390   -1.5232959    1.5241687  
C    0.0000000    0.0000000    1.4700000  
H    2.3054237    1.9346118    0.9892483  
H   -0.2170646   -0.1815267    5.4753125  
H   -2.4487139   -2.0549881    3.3649027  
H    3.2048689    2.6911772    3.3971983  
