48
0A 1A 10B 31A 32A 41B 16 11 15 47 42 46 2 3 4 2 3 4 3 0 3 0 nosym
C    6.2083775   -2.1196915   -4.1881950  
C    6.1278544   -1.6207757   -5.4676738  
C    5.0010413   -0.7469358   -5.5036782  
C    4.4284865   -0.7523856   -4.2059582  
N    5.1848103   -1.5975862   -3.4325067  
C    3.2973504   -0.0000931   -3.8752375  
C    2.7341217    0.7719967   -4.8726485  
O    1.6287286    1.5262899   -4.6040199  
C    3.2906477    0.7903661   -6.1737092  
O    2.6151860    1.6084081   -7.0556964  
C    4.4063696    0.0482534   -6.5007560  
H    6.7980944   -1.8583806   -6.2759533  
H    5.0250632   -1.7941302   -2.4609962  
H    1.4018234    1.9805356   -5.4258712  
H    3.0551817    1.5634730   -7.9100901  
H    4.8099968    0.0823635   -7.5059421  
H    6.9141089   -2.8077707   -3.7552423  
C    3.3321173    0.0004715   -1.3379333  
C    2.6974184    0.0000117   -2.5332310  
C    1.2800439   -0.0002118   -2.2052839  
C    1.2395035    0.0000643   -0.7271293  
N    2.4394063    0.0005460   -0.2131035  
C    0.0000000    0.0000000    0.0000000  
C   -1.1468702    0.0000634   -0.7169541  
O   -2.3742202    0.0000072   -0.1695491  
C   -1.1388767    0.0001606   -2.2096353  
O   -2.2206230    0.0000901   -2.7970412  
C    0.1454525    0.0001815   -2.9324239  
H   -2.9844345    0.0001024   -0.9290167  
H    0.1083577    0.0003682   -4.0135594  
H    4.3940039    0.0007620   -1.1498632  
C    2.5285572    2.1210227    2.9438989  
C    1.9331703    1.6216660    4.0790748  
C    0.8903039    0.7472258    3.6520102  
C    0.8972198    0.7527806    2.2336141  
N    1.9028376    1.5986179    1.8362361  
C    0.0000000    0.0000000    1.4700000  
C   -0.9207814   -0.7726952    2.1506477  
O   -1.8198395   -1.5274828    1.4542253  
C   -0.9436862   -0.7911793    3.5655508  
O   -1.9197945   -1.6098497    4.0950179  
C   -0.0590329   -0.0485852    4.3195194  
H    2.2150357    1.8593692    5.0905303  
H    2.1533708    1.7953814    0.8841339  
H   -2.3621246   -1.9821033    2.1118817  
H   -1.8668290   -1.5649508    5.0545920  
H   -0.1007624   -0.0827977    5.4019087  
H    3.3491200    2.8096064    2.8367138  
