46
0A 1A 10B 32A 41B 16 11 15 42 44 2 3 4 3 4 3 0 2 0 nosym
C    5.7263111   -2.1250318   -4.6502146  
C    5.5046683   -1.6274764   -5.9134566  
C    4.3816203   -0.7525056   -5.8252013  
C    3.9566978   -0.7558948   -4.4719255  
N    4.7934588   -1.6010090   -3.7861918  
C    2.8699635   -0.0020528   -4.0185828  
C    2.2001692    0.7694967   -4.9482412  
O    1.1321258    1.5252427   -4.5594673  
C    2.6088027    0.7858186   -6.3030731  
O    1.8403276    1.6035674   -7.1056164  
C    3.6806352    0.0421765   -6.7510653  
H    6.0807973   -1.8666906   -6.7908654  
H    4.7423957   -1.7962902   -2.8027086  
H    0.8157799    1.9787966   -5.3516030  
H    2.1826911    1.5572102   -8.0035268  
H    3.9701834    0.0747322   -7.7948955  
H    6.4751266   -2.8133559   -4.2974511  
C    3.2573667   -0.0002919   -1.5109386  
C    2.5379468   -0.0001709   -0.3591965  
C    1.1435041    0.0000331   -0.7338500  
C    1.1092604   -0.0000084   -2.2088475  
N    2.4227558    0.0001908   -2.6182613  
C   -0.0265536   -0.0002526   -2.9515663  
C   -1.3003039   -0.0002641   -2.2514979  
O   -2.3786786   -0.0004135   -2.8306422  
C   -1.2877726    0.0000311   -0.6895607  
O   -2.3539957    0.0003306   -0.0892033  
C    0.0000000    0.0000000    0.0000000  
H    2.9384090   -0.0000368    0.6389236  
H   -0.0296296   -0.0004089   -4.0327231  
H    4.3270391   -0.0004765   -1.6439450  
C    0.8681109    0.7263879    2.2709268  
C    0.6127770    0.5096195    3.5869401  
C   -0.4920590   -0.4175482    3.6542670  
C   -0.8620974   -0.7254003    2.2596025  
N    0.0000000    0.0000000    1.4700000  
C   -1.8641242   -1.5660088    1.8976294  
C   -2.6293522   -2.2103885    2.9520183  
O   -3.5512764   -2.9839180    2.7283916  
C   -2.2549728   -1.8987399    4.4361073  
O   -2.8923672   -2.4351063    5.3323774  
C   -1.1543735   -0.9755647    4.7012123  
H    1.1382914    0.9492124    4.4159191  
H   -2.1192137   -1.7782617    0.8686553  
H   -0.9013378   -0.7652422    5.7314848  
H    1.6172880    1.3558399    1.8188057  
