50
4A 5B 17A 33A 37A 38B 11 12 32 49 45 46 1 7 2 2 1 7 2 1 3 0 nosym
C    0.6784431   -0.7158669   -5.1604807  
C   -0.1387079    0.0017019   -4.3179684  
C   -1.0481461    0.7302005   -5.1406544  
C   -0.7354113    0.4143968   -6.4876476  
N    0.3188393   -0.4645849   -6.4638959  
C   -1.4327209    0.9543852   -7.5725256  
C   -2.4647277    1.8288748   -7.2925120  
O   -3.1787630    2.3849187   -8.3142660  
C   -2.7916048    2.1566108   -5.9551424  
O   -3.8437009    3.0417147   -5.8410020  
C   -2.1039442    1.6244865   -4.8843984  
H    0.7522628   -0.8729850   -7.2721866  
H   -1.1991958    0.7178284   -8.6014618  
H   -3.8415778    2.9562099   -7.9049172  
H   -3.9995945    3.2099948   -4.9066665  
H   -2.3770362    1.8943257   -3.8709460  
H    1.4902648   -1.3859282   -4.9348210  
C    3.3041273    0.0001178   -1.5420428  
C    2.5845373   -0.0004780   -0.3695851  
C    1.2040007   -0.0000007   -0.7283589  
C    1.1422374    0.0006038   -2.1454372  
N    2.4348641    0.0026111   -2.6077464  
C   -0.0655179    0.0008799   -2.8497918  
C   -1.2321766    0.0002325   -2.1101402  
O   -2.4392814    0.0001148   -2.7472522  
C   -1.1911209   -0.0000007   -0.6955266  
O   -2.4371528   -0.0002320   -0.1032862  
C    0.0000000    0.0000000    0.0000000  
H    3.0031533   -0.0000660    0.6222584  
H    2.7054631   -0.0071097   -3.5745261  
H   -3.1132988   -0.0000648   -2.0551787  
H   -2.3200282   -0.0004072    0.8516409  
H    4.3686625    0.0004073   -1.7024290  
C    2.5311839    2.1237619    3.0120429  
C    1.9795631    1.6616747    1.8395852  
C    0.9223175    0.7739173    2.1983588  
C    0.8753926    0.7337535    3.6154372  
N    1.8668922    1.5631002    4.0777464  
C   -0.0496243   -0.0427881    4.3197917  
C   -0.9437528   -0.7922060    3.5801400  
O   -1.8685244   -1.5680278    4.2172520  
C   -0.9124520   -0.7656372    2.1655264  
O   -1.8671164   -1.5663939    1.5732860  
C    0.0000000    0.0000000    1.4700000  
H    2.3005065    1.9304404    0.8477417  
H    2.0679347    1.7444845    5.0445261  
H   -0.0904770   -0.0778569    5.3997470  
H   -2.3849669   -2.0011402    3.5251786  
H   -1.7775064   -1.4909735    0.6183591  
H    3.3468514    2.8078103    3.1724291  
