46
4A 5B 17A 36B 41B 11 12 30 43 45 1 7 2 7 4 2 1 2 0 nosym
C    0.9257301   -0.7167803   -5.2310367  
C    0.0950452    0.0004352   -4.4015596  
C   -0.8020936    0.7279284   -5.2385158  
C   -0.4682541    0.4119037   -6.5803821  
N    0.5861910   -0.4662359   -6.5399635  
C   -1.1490748    0.9509634   -7.6761409  
C   -2.1859873    1.8247342   -7.4124830  
O   -2.8845233    2.3798580   -8.4453911  
C   -2.5338276    2.1526767   -6.0804633  
O   -3.5882621    3.0369881   -5.9829751  
C   -1.8624417    1.6214686   -4.9989898  
H    1.0324211   -0.8745743   -7.3412873  
H   -0.8994312    0.7142335   -8.7012447  
H   -3.5540566    2.9507673   -8.0465776  
H   -3.7587624    3.2054698   -5.0512309  
H   -2.1514330    1.8914441   -3.9899927  
H    1.7344794   -1.3861210   -4.9925702  
C    3.3321174    0.0004718   -1.3379334  
C    2.6974185    0.0000117   -2.5332310  
C    1.2800440   -0.0002117   -2.2052839  
C    1.2395036    0.0000644   -0.7271297  
N    2.4394063    0.0005460   -0.2131035  
C    0.0000000    0.0000000    0.0000000  
C   -1.1468700    0.0000635   -0.7169545  
O   -2.3742202    0.0000073   -0.1695490  
C   -1.1388767    0.0001607   -2.2096357  
O   -2.2206230    0.0000904   -2.7970414  
C    0.1454526    0.0001816   -2.9324241  
H    3.1367988   -0.0000648   -3.5160946  
H   -2.9844344    0.0001025   -0.9290171  
H    4.3940040    0.0007621   -1.1498634  
C    0.0000000    0.0000000    1.4700000  
C    1.0662921    0.0000102    2.3034270  
C    0.4961870   -0.0000064    3.6418889  
C   -0.9663858    0.0000850    3.4240247  
N   -1.2632773    0.0000084    2.1528658  
C   -1.8985362    0.0000517    4.5177257  
C   -1.3925775   -0.0004564    5.7720543  
O   -2.1456383   -0.0005410    6.8851312  
C    0.0786232   -0.0009323    6.0245000  
O    0.4683759   -0.0012588    7.1921102  
C    1.0143166   -0.0008442    4.8859032  
H    2.1107198   -0.0000632    2.0421868  
H   -2.9622183    0.0003270    4.3293377  
H   -1.5042274   -0.0009692    7.6184419  
H    2.0724152   -0.0013148    5.1109744  
