46
0A 4A 5B 17A 31A 35A 36B 16 12 13 29 44 45 43 2 1 7 2 2 1 7 3 1 3 0 nosym
C    2.4963630   -2.1240789   -5.9704919  
C    1.9480121   -1.6619031   -4.7965362  
C    0.8896199   -0.7743521   -5.1524286  
C    0.8386579   -0.7343998   -6.5693736  
N    1.8289599   -1.5636685   -7.0343824  
C   -0.0884729    0.0419047   -7.2712053  
C   -0.9806035    0.7912986   -6.5291208  
O   -1.9072977    1.5668932   -7.1637113  
C   -0.9452746    0.7649387   -5.1145986  
O   -1.8983674    1.5656411   -4.5197596  
C   -0.0307352   -0.0004646   -4.4215603  
H    2.2718153   -1.9304785   -3.8055714  
H    2.0272776   -1.7451627   -8.0017035  
H   -0.1324031    0.0768116   -8.3510448  
H   -2.4218328    2.0000300   -6.4702339  
H   -1.8060302    1.4903719   -3.5650808  
H    3.3116712   -2.8080312   -6.1330998  
C    3.2573670   -0.0002920   -1.5109380  
C    2.5379468   -0.0001709   -0.3591961  
C    1.1435043    0.0000332   -0.7338500  
C    1.1092609   -0.0000082   -2.2088477  
N    2.4227562    0.0001909   -2.6182613  
C   -0.0265532   -0.0002522   -2.9515663  
C   -1.3003035   -0.0002639   -2.2514981  
O   -2.3786784   -0.0004131   -2.8306429  
C   -1.2877725    0.0000312   -0.6895608  
O   -2.3539958    0.0003307   -0.0892036  
C    0.0000000    0.0000000    0.0000000  
H    2.9384091   -0.0000369    0.6389239  
H    4.3270394   -0.0004765   -1.6439446  
H    2.7280494   -0.0013406   -3.5742113  
C    2.4951002    2.0940188    2.9809380  
C    1.9440701    1.6314916    1.8291961  
C    0.8759964    0.7350050    2.2038498  
C    0.8497377    0.7130254    3.6788474  
N    1.8560616    1.5571714    4.0882609  
C   -0.0205033   -0.0168748    4.4215661  
C   -0.9962600   -0.8356168    3.7214979  
O   -1.8224391   -1.5286685    4.3006425  
C   -0.9864710   -0.8277881    2.1595606  
O   -1.8030528   -1.5133726    1.5592035  
C    0.0000000    0.0000000    1.4700000  
H    2.2509283    1.8888011    0.8310761  
H   -0.0229599   -0.0187323    5.5027230  
H    3.3143982    2.7817323    3.1139444  
H    2.0889452    1.7545833    5.0442112  
