46
5B 10B 27B 36B 41B 13 16 29 43 44 7 4 4 7 4 2 1 2 0 nosym
C    4.7390840    0.0009613   -1.2727298  
C    5.7457113    0.0027392   -2.2103681  
C    6.9802492    0.0028875   -1.4958641  
C    6.6612408    0.0008545   -0.1137802  
N    5.2920916    0.0016753   -0.0135511  
C    7.6369656    0.0001119    0.8875938  
C    8.9588062    0.0011389    0.4864543  
O    9.9518660    0.0001281    1.4228548  
C    9.2971111    0.0035436   -0.8877222  
O   10.6560639    0.0047305   -1.1256044  
C    8.3350583    0.0045507   -1.8761451  
H    5.6072444    0.0049039   -3.2779895  
H    4.7730888   -0.0099225    0.8457991  
H    7.4003710   -0.0012919    1.9426879  
H   10.7862573    0.0014115    0.9359720  
H   10.7982740    0.0063140   -2.0771177  
H    8.6245422    0.0065795   -2.9204982  
C    3.2798077    0.0005856   -1.4499661  
C    2.5571132    0.0005565   -2.5996564  
C    1.1637425    0.0001547   -2.2210366  
C    1.1336959   -0.0000200   -0.7459475  
N    2.4483509   -0.0001429   -0.3402730  
C    0.0000000    0.0000000    0.0000000  
C   -1.2757370   -0.0000187   -0.6964411  
O   -2.3524597   -0.0000640   -0.1142306  
C   -1.2676502   -0.0000874   -2.2584078  
O   -2.3355774   -0.0004102   -2.8557287  
C    0.0181551    0.0001758   -2.9516297  
H    2.9547342    0.0006074   -3.5989118  
H    0.0150776    0.0003317   -4.0331632  
H    2.7563626    0.0012823    0.6148051  
C    0.0000000    0.0000000    1.4700000  
C    1.0541688    0.0001722    2.3260392  
C    0.5103138    0.0000454    3.6635956  
C   -0.9576371   -0.0002459    3.5155732  
N   -1.2018458    0.0001392    2.1615969  
C   -1.8348311   -0.0008317    4.5510609  
C   -1.2972847   -0.0009736    5.9014604  
O   -2.0050672   -0.0014265    6.9001319  
C    0.2542623   -0.0004184    6.0817573  
O    0.7184670   -0.0002256    7.2139121  
C    1.0974552   -0.0000873    4.8889129  
H    2.0940752    0.0005483    2.0517982  
H   -2.9081052   -0.0011668    4.4207061  
H    2.1707277    0.0000911    5.0223670  
H   -2.1128194   -0.0014912    1.7406791  
