46
5B 10B 22B 32A 41B 13 16 29 42 44 7 4 7 3 4 2 1 2 0 nosym
C    4.7161325   -0.0005435   -1.6923264  
C    5.7254240   -0.0020826   -0.7575559  
C    6.9579233   -0.0022075   -1.4755700  
C    6.6349842   -0.0004069   -2.8567410  
N    5.2655550   -0.0013827   -2.9530733  
C    7.6078556    0.0002912   -3.8608875  
C    8.9308324   -0.0005422   -3.4635106  
O    9.9212226    0.0004353   -4.4027329  
C    9.2730454   -0.0027137   -2.0903018  
O   10.6326707   -0.0037267   -1.8562876  
C    8.3138092   -0.0036767   -1.0991453  
H    5.5899958   -0.0041074    0.3104555  
H    4.7441078    0.0100378   -3.8109451  
H    7.3682586    0.0015183   -4.9153041  
H   10.7569961   -0.0006922   -3.9182263  
H   10.7775869   -0.0051582   -0.9051824  
H    8.6062648   -0.0055250   -0.0556201  
C    3.2573665   -0.0002920   -1.5109385  
C    2.5379463   -0.0001709   -0.3591964  
C    1.1435038    0.0000331   -0.7338500  
C    1.1092599   -0.0000083   -2.2088477  
N    2.4227553    0.0001909   -2.6182613  
C   -0.0265539   -0.0002524   -2.9515660  
C   -1.3003040   -0.0002640   -2.2514977  
O   -2.3786790   -0.0004133   -2.8306421  
C   -1.2877727    0.0000311   -0.6895603  
O   -2.3539959    0.0003306   -0.0892030  
C    0.0000000    0.0000000    0.0000000  
H    2.9384091   -0.0000367    0.6389234  
H   -0.0296303   -0.0004086   -4.0327229  
H    2.7280482   -0.0013407   -3.5742119  
C    0.8681109    0.7263879    2.2709268  
C    0.6127770    0.5096195    3.5869401  
C   -0.4920590   -0.4175482    3.6542670  
C   -0.8620974   -0.7254003    2.2596025  
N    0.0000000    0.0000000    1.4700000  
C   -1.8641242   -1.5660088    1.8976294  
C   -2.6293522   -2.2103885    2.9520183  
O   -3.5512764   -2.9839180    2.7283916  
C   -2.2549728   -1.8987399    4.4361073  
O   -2.8923672   -2.4351063    5.3323774  
C   -1.1543735   -0.9755647    4.7012123  
H    1.1382914    0.9492124    4.4159191  
H   -2.1192137   -1.7782617    0.8686553  
H   -0.9013378   -0.7652422    5.7314848  
H    1.6172880    1.3558399    1.8188057  
