48
5B 10B 38B 43B 13 16 45 46 7 4 7 4 2 0 2 0 nosym
C    1.6628973    0.0337773   -3.2649299  
C    3.0380384    0.0327237   -3.3030581  
C    3.4164368    0.0452332   -4.6782879  
C    2.2194498    0.0538855   -5.4392567  
N    1.1735138    0.0446617   -4.5501279  
C    2.2121576    0.0673888   -6.8373102  
C    3.4355022    0.0725531   -7.4788538  
O    3.4861478    0.0860287   -8.8427702  
C    4.6406913    0.0637063   -6.7370602  
O    5.7759400    0.0699862   -7.5209706  
C    4.6486396    0.0501106   -5.3578295  
H    3.6884154    0.0229057   -2.4452081  
H    0.2007640    0.0582587   -4.7982289  
H    1.3033121    0.0738916   -7.4231088  
H    4.4223079    0.0871784   -9.0812408  
H    6.5448574    0.0633347   -6.9427617  
H    5.5876367    0.0433996   -4.8167956  
C    1.1243418    0.0099159   -0.7919003  
C    0.7474092    0.0234036   -2.1148542  
C   -0.6787365    0.0234950   -2.1414698  
C   -1.1201738    0.0099353   -0.7935546  
N    0.0000000    0.0000000    0.0000000  
C   -2.4730813    0.0065388   -0.4408240  
C   -3.3971946    0.0173288   -1.4675058  
O   -4.7313507    0.0149473   -1.1793467  
C   -2.9763626    0.0305528   -2.8186323  
O   -4.0166448    0.0397846   -3.7247623  
C   -1.6418539    0.0336375   -3.1673480  
H   -2.8160169   -0.0039199    0.5845966  
H   -5.1938803    0.0234395   -2.0274386  
H   -3.6464640    0.0484770   -4.6127344  
H   -1.3497438    0.0436785   -4.2109234  
H    2.1062470    0.0051388   -0.3505405  
C    0.0000000    0.0000000    1.4700000  
C    1.0541688    0.0001722    2.3260392  
C    0.5103138    0.0000454    3.6635956  
C   -0.9576371   -0.0002459    3.5155732  
N   -1.2018458    0.0001392    2.1615969  
C   -1.8348311   -0.0008317    4.5510609  
C   -1.2972847   -0.0009736    5.9014604  
O   -2.0050672   -0.0014265    6.9001319  
C    0.2542623   -0.0004184    6.0817573  
O    0.7184670   -0.0002256    7.2139121  
C    1.0974552   -0.0000873    4.8889129  
H    2.0940752    0.0005483    2.0517982  
H   -2.9081052   -0.0011668    4.4207061  
H    2.1707277    0.0000911    5.0223670  
H   -2.1128194   -0.0014912    1.7406791  
