46
0A 4A 5B 36B 16 12 13 42 2 1 7 7 3 0 1 0 nosym
C    4.6682618   -2.1172866   -2.8277193  
C    3.4958459   -1.6563516   -2.2750466  
C    2.9089036   -0.7682632   -3.2244664  
C    3.7754714   -0.7267195   -4.3466338  
N    4.8347781   -1.5555984   -4.0719573  
C    3.5106792    0.0504922   -5.4782768  
C    2.3497946    0.7991735   -5.4772019  
O    2.0423546    1.5755998   -6.5568581  
C    1.4727450    0.7712269   -4.3668779  
O    0.3590763    1.5713895   -4.5179568  
C    1.7334694    0.0049281   -3.2500363  
H    3.1115401   -1.9260780   -1.3062585  
H    5.6057553   -1.7360369   -4.6892218  
H    4.1671631    0.0866125   -6.3367208  
H    1.2031064    2.0080288   -6.3520826  
H   -0.1801490    1.4950404   -3.7248549  
H    5.3995988   -2.8011643   -2.4322241  
C    1.1319246    0.0015678   -0.8009269  
C    0.7969914    0.0034958   -2.1169402  
C   -0.6453340    0.0035696   -2.1842669  
C   -1.1266833    0.0015410   -0.7896025  
N    0.0000000    0.0000000    0.0000000  
C   -2.4346130    0.0013912   -0.4276293  
C   -3.4350112    0.0031335   -1.4820181  
O   -4.6384613    0.0030876   -1.2583913  
C   -2.9478960    0.0050441   -2.9661073  
O   -3.7809383    0.0062138   -3.8623774  
C   -1.5113825    0.0053055   -3.2312121  
H   -2.7664565    0.0000174    0.6013448  
H   -1.1823532    0.0068381   -4.2614847  
H    2.1104315    0.0009436   -0.3488059  
C    0.8175213    0.6860729    2.3021913  
C    0.0000000    0.0000000    1.4700000  
C   -0.8887526   -0.7456559    2.3478473  
C   -0.4549825   -0.3816753    3.7138435  
N    0.5448156    0.4573574    3.6934124  
C   -1.0945674   -0.9182058    4.8835240  
C   -2.1210866   -1.7789155    4.6970523  
O   -2.8083856   -2.3554314    5.6976972  
C   -2.5824069   -2.1655116    3.3310774  
O   -3.5227682   -2.9541547    3.2362962  
C   -1.9100805   -1.6015804    2.1470656  
H   -0.7567140   -0.6349833    5.8697035  
H   -3.4728268   -2.9124471    5.2533954  
H   -2.2742832   -1.9066565    1.1752040  
H    1.6189533    1.3585343    2.0405121  
