46
0A 1A 10B 17A 36B 41B 16 11 15 29 43 45 2 3 4 2 7 4 3 1 2 0 nosym
C    2.4938373   -2.1214408   -5.9023410  
C    1.8951717   -1.6223090   -7.0358902  
C    0.8534344   -0.7479142   -6.6059868  
C    0.8643861   -0.7532635   -5.1876154  
N    1.8712176   -1.5989403   -4.7929780  
C   -0.0307352   -0.0004646   -4.4215603  
C   -0.9535289    0.7720379   -5.0996973  
O   -1.8506797    1.5268337   -4.4008286  
C   -0.9804607    0.7903152   -6.5145322  
O   -1.9581554    1.6088088   -7.0413378  
C   -0.0978794    0.0477030   -7.2709076  
H    2.1741832   -1.8601295   -8.0481093  
H    2.1244786   -1.7955405   -3.8415641  
H   -2.3948804    1.9813036   -5.0570049  
H   -1.9079155    1.5637769   -8.0010523  
H   -0.1426916    0.0817549   -8.3531783  
H    3.3147722   -2.8099245   -5.7973912  
C    3.2573670   -0.0002920   -1.5109380  
C    2.5379468   -0.0001709   -0.3591961  
C    1.1435043    0.0000332   -0.7338500  
C    1.1092609   -0.0000082   -2.2088477  
N    2.4227562    0.0001909   -2.6182613  
C   -0.0265532   -0.0002522   -2.9515663  
C   -1.3003035   -0.0002639   -2.2514981  
O   -2.3786784   -0.0004131   -2.8306429  
C   -1.2877725    0.0000312   -0.6895608  
O   -2.3539958    0.0003307   -0.0892036  
C    0.0000000    0.0000000    0.0000000  
H    2.9384091   -0.0000369    0.6389239  
H    4.3270394   -0.0004765   -1.6439446  
H    2.7280494   -0.0013406   -3.5742113  
C    0.0000000    0.0000000    1.4700000  
C    1.0662921    0.0000102    2.3034270  
C    0.4961870   -0.0000064    3.6418889  
C   -0.9663858    0.0000850    3.4240247  
N   -1.2632773    0.0000084    2.1528658  
C   -1.8985362    0.0000517    4.5177257  
C   -1.3925775   -0.0004564    5.7720543  
O   -2.1456383   -0.0005410    6.8851312  
C    0.0786232   -0.0009323    6.0245000  
O    0.4683759   -0.0012588    7.1921102  
C    1.0143166   -0.0008442    4.8859032  
H    2.1107198   -0.0000632    2.0421868  
H   -2.9622183    0.0003270    4.3293377  
H   -1.5042274   -0.0009692    7.6184419  
H    2.0724152   -0.0013148    5.1109744  
