46
5B 10B 35A 36B 13 16 45 42 7 4 1 7 2 0 2 0 nosym
C    1.7334696    0.0049245   -3.2500362  
C    3.1090793    0.0045671   -3.2628649  
C    3.5126985    0.0058536   -4.6309622  
C    2.3299041    0.0072577   -5.4138552  
N    1.2677986    0.0046985   -4.5440606  
C    2.3483170    0.0090624   -6.8118705  
C    3.5832502    0.0097639   -7.4308350  
O    3.6589625    0.0118693   -8.7936541  
C    4.7745982    0.0080110   -6.6669608  
O    5.9240672    0.0085724   -7.4298910  
C    4.7571873    0.0059569   -5.2877513  
H    3.7435755    0.0024041   -2.3931507  
H    0.2997685    0.0155020   -4.8101093  
H    1.4503949    0.0099948   -7.4143135  
H    4.5993491    0.0117154   -9.0148740  
H    6.6822245    0.0073245   -6.8376075  
H    5.6860792    0.0044642   -4.7295077  
C    1.1319246    0.0015655   -0.8009268  
C    0.7969915    0.0034942   -2.1169401  
C   -0.6453340    0.0035709   -2.1842669  
C   -1.1266832    0.0015433   -0.7896025  
N    0.0000000    0.0000000    0.0000000  
C   -2.4346130    0.0013964   -0.4276293  
C   -3.4350112    0.0031409   -1.4820183  
O   -4.6384613    0.0030974   -1.2583915  
C   -2.9478958    0.0050505   -2.9661074  
O   -3.7809383    0.0062217   -3.8623776  
C   -1.5113824    0.0053089   -3.2312122  
H   -2.7664564    0.0000233    0.6013448  
H   -1.1823530    0.0068406   -4.2614847  
H    2.1104315    0.0009390   -0.3488058  
C    0.8400945    0.7047457    2.2710304  
C    0.0000000    0.0000000    1.4700000  
C   -0.8844236   -0.7423113    2.3369512  
C   -0.4878984   -0.4098547    3.7186280  
N    0.5629682    0.4714286    3.6095011  
C   -1.0836927   -0.9095027    4.8308716  
C   -2.1891196   -1.8367527    4.6554461  
O   -2.7906899   -2.3413415    5.5944904  
C   -2.6257283   -2.2031529    3.2011665  
O   -3.5549479   -2.9829990    3.0410059  
C   -1.9068976   -1.5999348    2.0816745  
H   -0.7774656   -0.6525820    5.8354244  
H   -2.2155208   -1.8586617    1.0779135  
H    1.6384792    1.3747609    1.9961646  
H    1.0518368    0.8833920    4.3830260  
