46
0A 1A 10B 31A 36B 16 11 15 45 43 2 3 4 2 7 3 0 2 0 nosym
C    2.0234327   -2.1203368   -5.1612091  
C    1.8898403   -1.6210652   -6.4361004  
C    0.7628120   -0.7468330   -6.4249089  
C    0.2448267   -0.7524211   -5.1044598  
N    1.0324261   -1.5980776   -4.3633998  
C   -0.8712826    0.0001710   -4.7267111  
C   -1.4753121    0.7727082   -5.6995997  
O   -2.5682874    1.5273083   -5.3849613  
C   -0.9734766    0.7912225   -7.0227156  
O   -1.6848158    1.6097204   -7.8755929  
C    0.1273886    0.0488143   -7.3961488  
H    2.5257349   -1.8586905   -7.2716634  
H    0.9132304   -1.7948166   -3.3861243  
H   -2.8290818    1.9818423   -6.1965339  
H   -1.2808195    1.5648549   -8.7475894  
H    0.4887927    0.0830452   -8.4172721  
H    2.7463504   -2.8087670   -4.7582060  
C    1.0965514    0.0001359   -0.8010305  
C    0.0000000    0.0000000    0.0000000  
C   -1.1546563    0.0001470   -0.8669513  
C   -0.6372014    0.0003519   -2.2486282  
N    0.7342871    0.0007337   -2.1395014  
C   -1.4147739    0.0001352   -3.3608717  
C   -2.8576049   -0.0001048   -3.1854462  
O   -3.6427779   -0.0002494   -4.1244907  
C   -3.4275840   -0.0000725   -1.7311666  
O   -4.6406831    0.0000333   -1.5710060  
C   -2.4891867   -0.0001091   -0.6116744  
H   -2.8919122   -0.0002918    0.3920866  
H    2.1388272    0.0000663   -0.5261648  
H    1.3735872   -0.0006099   -2.9130262  
C    2.3971438    2.0127888    3.1728260  
C    1.9431056    1.6308205    1.9564670  
C    0.8496017    0.7127664    2.2356185  
C    0.7794028    0.6545384    3.7115134  
N    1.6840587    1.4146091    4.2663826  
C   -0.1885723   -0.1578550    4.3957118  
C   -1.0476298   -0.8789867    3.6398520  
O   -2.0015663   -1.6796266    4.1448486  
C   -1.0022026   -0.8410666    2.1483229  
O   -1.8147390   -1.5232959    1.5241687  
C    0.0000000    0.0000000    1.4700000  
H    2.3054237    1.9346118    0.9892483  
H   -0.2170646   -0.1815267    5.4753125  
H   -2.4487139   -2.0549881    3.3649027  
H    3.2048689    2.6911772    3.3971983  
