48
4A 5B 17A 33A 34A 43B 11 12 32 46 44 45 1 7 2 2 3 4 2 1 3 0 nosym
C    0.6675608   -0.7200182   -5.1594010  
C   -0.1496417   -0.0015611   -4.3176961  
C   -1.0591320    0.7259468   -5.1412006  
C   -0.7463745    0.4086512   -6.4878379  
N    0.3079391   -0.4702277   -6.4630979  
C   -1.4437227    0.9473695   -7.5733229  
C   -2.4757921    1.8220995   -7.2942917  
O   -3.1898672    2.3769430   -8.3166713  
C   -2.8026928    2.1513154   -5.9572919  
O   -3.8548525    3.0364719   -5.8441468  
C   -2.1149942    1.6204447   -4.8859503  
H    0.7413920   -0.8795052   -7.2709294  
H   -1.2101805    0.7096727   -8.6019915  
H   -3.8527232    2.9486467   -7.9079640  
H   -4.0107583    3.2057913   -4.9100011  
H   -2.3881056    1.8914036   -3.8728019  
H    1.4794305   -1.3897672   -4.9329881  
C    3.3003542    0.0005275   -1.4738988  
C    2.5232813    0.0003498   -2.6090748  
C    1.1623199   -0.0001318   -2.1820103  
C    1.1711883    0.0000584   -0.7636141  
N    2.4852299   -0.0014919   -0.3662361  
C    0.0000000    0.0000000    0.0000000  
C   -1.2020384    0.0000520   -0.6806476  
O   -2.3759249    0.0003494    0.0157744  
C   -1.2314658   -0.0005112   -2.0955509  
O   -2.5054393   -0.0008037   -2.6250179  
C   -0.0764518   -0.0007271   -2.8495194  
H    2.8919952   -0.0005618   -3.6205305  
H    2.8036266    0.0088182    0.5858661  
H   -3.0835640    0.0000347   -0.6418816  
H   -2.4360050   -0.0011526   -3.5845920  
H    4.3715548    0.0004895   -1.3667138  
C    2.5128556    2.1077716    2.9199648  
C    1.9592212    1.6432552    4.0696553  
C    0.8915788    0.7479214    3.6910360  
C    0.8684491    0.7287414    2.2159470  
N    1.8754542    1.5738793    1.8102719  
C    0.0000000    0.0000000    1.4700000  
C   -0.9772830   -0.8200135    2.1664417  
O   -1.8021297   -1.5120829    1.5842315  
C   -0.9711318   -0.8147624    3.7284083  
O   -1.7894187   -1.5009653    4.3257297  
C    0.0140216    0.0115358    4.4216297  
H    2.2638494    1.8988021    5.0689105  
H    0.0117648    0.0094386    5.5031631  
H    3.3327358    2.7953732    2.7900019  
H    2.1123206    1.7707734    0.8551938  
