48
1A 10B 17A 31A 32A 41B 11 15 30 47 42 46 3 4 2 2 3 4 2 1 3 0 nosym
C    0.9407942   -0.7075078   -5.2230669  
C    0.6134859   -0.4569318   -6.5355261  
C   -0.4865817    0.4509911   -6.5242558  
C   -0.7892285    0.7213084   -5.1651162  
N    0.0950452    0.0004352   -4.4015596  
C   -1.8220582    1.5798545   -4.7765924  
C   -2.5626673    2.1766200   -5.7783645  
O   -3.5826122    3.0240229   -5.4548940  
C   -2.2762259    1.9191609   -7.1401587  
O   -3.1032304    2.5886541   -8.0183309  
C   -1.2576378    1.0720860   -7.5241746  
H    1.1062033   -0.8777279   -7.3952665  
H   -2.0578699    1.7899155   -3.7424411  
H   -3.9627899    3.3251531   -6.2903880  
H   -2.8428295    2.3598632   -8.9157994  
H   -1.0618888    0.8940603   -8.5751111  
H    1.7097008   -1.3363238   -4.8079381  
C    3.3321174    0.0004718   -1.3379334  
C    2.6974185    0.0000117   -2.5332310  
C    1.2800440   -0.0002117   -2.2052839  
C    1.2395036    0.0000644   -0.7271297  
N    2.4394063    0.0005460   -0.2131035  
C    0.0000000    0.0000000    0.0000000  
C   -1.1468700    0.0000635   -0.7169545  
O   -2.3742202    0.0000073   -0.1695490  
C   -1.1388767    0.0001607   -2.2096357  
O   -2.2206230    0.0000904   -2.7970414  
C    0.1454526    0.0001816   -2.9324241  
H    3.1367988   -0.0000648   -3.5160946  
H   -2.9844344    0.0001025   -0.9290171  
H    4.3940040    0.0007621   -1.1498634  
C    2.5285572    2.1210227    2.9438989  
C    1.9331703    1.6216660    4.0790748  
C    0.8903039    0.7472258    3.6520102  
C    0.8972198    0.7527806    2.2336141  
N    1.9028376    1.5986179    1.8362361  
C    0.0000000    0.0000000    1.4700000  
C   -0.9207814   -0.7726952    2.1506477  
O   -1.8198395   -1.5274828    1.4542253  
C   -0.9436862   -0.7911793    3.5655508  
O   -1.9197945   -1.6098497    4.0950179  
C   -0.0590329   -0.0485852    4.3195194  
H    2.2150357    1.8593692    5.0905303  
H    2.1533708    1.7953814    0.8841339  
H   -2.3621246   -1.9821033    2.1118817  
H   -1.8668290   -1.5649508    5.0545920  
H   -0.1007624   -0.0827977    5.4019087  
H    3.3491200    2.8096064    2.8367138  
