46
5B 10B 22B 31A 35A 36B 13 16 29 44 45 43 7 4 7 2 1 7 2 1 3 0 nosym
C    2.5562217   -0.0001550   -3.6003003  
C    3.5655131   -0.0006160   -2.6655287  
C    4.7980131   -0.0013041   -3.3835423  
C    4.4750732   -0.0009423   -4.7647139  
N    3.1056445   -0.0021962   -4.8610459  
C    5.4479446   -0.0011310   -5.7688610  
C    6.7709219   -0.0013881   -5.3714832  
O    7.7613126   -0.0012295   -6.3107063  
C    7.1131349   -0.0021263   -3.9982730  
O    8.4727598   -0.0027234   -3.7642577  
C    6.1538991   -0.0022139   -3.0071160  
H    3.4300850   -0.0015789   -1.5975158  
H    2.5841959    0.0082882   -5.7189282  
H    5.2083487   -0.0010015   -6.8232780  
H    8.5970861   -0.0017569   -5.8261986  
H    8.6176770   -0.0031742   -2.8131517  
H    6.4463537   -0.0029686   -1.9635895  
C    0.0000000    0.0000000    0.0000000  
C    1.0541688   -0.0001721   -0.8560392  
C    0.5103141   -0.0000453   -2.1935956  
C   -0.9576367    0.0002460   -2.0455735  
N   -1.2018459   -0.0001391   -0.6915971  
C   -1.8348307    0.0008318   -3.0810613  
C   -1.2972842    0.0009738   -4.4314606  
O   -2.0050665    0.0014267   -5.4301324  
C    0.2542628    0.0004186   -4.6117571  
O    0.7184677    0.0002259   -5.7439121  
C    1.0974556    0.0000875   -3.4189129  
H    2.0940752   -0.0005483   -0.5817982  
H   -2.9081051    0.0011669   -2.9507066  
H   -2.1128195    0.0014912   -0.2706794  
C    3.2573670    0.0002920    2.9809380  
C    2.5379467    0.0001709    1.8291961  
C    1.1435042   -0.0000331    2.2038498  
C    1.1092607    0.0000083    3.6788474  
N    2.4227561   -0.0001909    4.0882609  
C   -0.0265533    0.0002524    4.4215661  
C   -1.3003036    0.0002640    3.7214979  
O   -2.3786784    0.0004133    4.3006425  
C   -1.2877726   -0.0000311    2.1595606  
O   -2.3539958   -0.0003306    1.5592035  
C    0.0000000    0.0000000    1.4700000  
H    2.9384090    0.0000368    0.8310761  
H   -0.0296291    0.0004086    5.5027230  
H    4.3270393    0.0004765    3.1139444  
H    2.7280493    0.0013407    5.0442112  
