46
0A 1A 10B 27B 31A 32A 41B 16 11 15 29 45 42 44 2 3 4 4 2 3 4 3 1 3 0 nosym
C    6.6001506    0.0019433   -4.3713018  
C    7.6333543    0.0021446   -3.4630303  
C    7.0453157    0.0020498   -2.1634878  
C    5.6383364    0.0015002   -2.3433062  
N    5.4022893    0.0034000   -3.6956728  
C    4.7390840    0.0009613   -1.2727298  
C    5.2698382    0.0006706    0.0026046  
O    4.4369620   -0.0002077    1.0839604  
C    6.6708713    0.0015854    0.2024108  
O    7.0428739    0.0015759    1.5309276  
C    7.5585984    0.0023905   -0.8532721  
H    8.6818864    0.0034412   -3.7071045  
H    4.4955245   -0.0070442   -4.1265437  
H    5.0045013    0.0000321    1.8657301  
H    8.0038195    0.0021939    1.5776948  
H    8.6265853    0.0032635   -0.6692050  
H    6.6229005    0.0023217   -5.4476104  
C    3.2798077    0.0005856   -1.4499661  
C    2.5571132    0.0005565   -2.5996564  
C    1.1637425    0.0001547   -2.2210366  
C    1.1336959   -0.0000200   -0.7459475  
N    2.4483509   -0.0001429   -0.3402730  
C    0.0000000    0.0000000    0.0000000  
C   -1.2757370   -0.0000187   -0.6964411  
O   -2.3524597   -0.0000640   -0.1142306  
C   -1.2676502   -0.0000874   -2.2584078  
O   -2.3355774   -0.0004102   -2.8557287  
C    0.0181551    0.0001758   -2.9516297  
H    2.9547342    0.0006074   -3.5989118  
H    0.0150776    0.0003317   -4.0331632  
H    2.7563626    0.0012823    0.6148051  
C    2.5528530    2.1414826    2.8079335  
C    2.0663498    1.7338582    4.0032312  
C    0.9804344    0.8229586    3.6752840  
C    0.9495562    0.7966882    2.1971295  
N    1.8690446    1.5676019    1.6831036  
C    0.0000000    0.0000000    1.4700000  
C   -0.8785127   -0.7372425    2.1869543  
O   -1.8187535   -1.5261249    1.6395491  
C   -0.8723269   -0.7321790    3.6796354  
O   -1.7010379   -1.4274584    4.2670412  
C    0.1115397    0.0933559    4.4024240  
H    2.4028853    2.0163452    4.9860947  
H   -2.2861435   -1.9184361    2.3990168  
H    0.0832434    0.0693689    5.4835595  
H    3.3664920    2.8238276    2.6198634  
