46
0A 4A 5B 17A 31A 32A 41B 16 12 13 30 45 42 44 2 1 7 2 2 3 4 3 1 3 0 nosym
C    2.5739603   -2.1205420   -6.0299297  
C    2.0624117   -1.6592059   -4.8391508  
C    0.9926086   -0.7724386   -5.1612766  
C    0.8970790   -0.7320770   -6.5759043  
N    1.8729616   -1.5603575   -7.0721121  
C   -0.0523136    0.0436657   -7.2479647  
C   -0.9212931    0.7920662   -6.4779331  
O   -1.8681343    1.5670778   -7.0827994  
C   -0.8414765    0.7652845   -5.0652306  
O   -1.7760614    1.5649887   -4.4404367  
C    0.0950452    0.0004352   -4.4015596  
H    2.4174430   -1.9278234   -3.8589517  
H    2.0409134   -1.7413748   -8.0452541  
H   -0.1302095    0.0788801   -8.3258765  
H   -2.3609689    1.9995568   -6.3733345  
H   -1.6536848    1.4894931   -3.4891600  
H    3.3843236   -2.8037510   -6.2183329  
C    3.3321174    0.0004718   -1.3379334  
C    2.6974185    0.0000117   -2.5332310  
C    1.2800440   -0.0002117   -2.2052839  
C    1.2395036    0.0000644   -0.7271297  
N    2.4394063    0.0005460   -0.2131035  
C    0.0000000    0.0000000    0.0000000  
C   -1.1468700    0.0000635   -0.7169545  
O   -2.3742202    0.0000073   -0.1695490  
C   -1.1388767    0.0001607   -2.2096357  
O   -2.2206230    0.0000904   -2.7970414  
C    0.1454526    0.0001816   -2.9324241  
H    3.1367988   -0.0000648   -3.5160946  
H   -2.9844344    0.0001025   -0.9290171  
H    4.3940040    0.0007621   -1.1498634  
C    2.5528530    2.1414826    2.8079335  
C    2.0663498    1.7338582    4.0032312  
C    0.9804344    0.8229586    3.6752840  
C    0.9495562    0.7966882    2.1971295  
N    1.8690446    1.5676019    1.6831036  
C    0.0000000    0.0000000    1.4700000  
C   -0.8785127   -0.7372425    2.1869543  
O   -1.8187535   -1.5261249    1.6395491  
C   -0.8723269   -0.7321790    3.6796354  
O   -1.7010379   -1.4274584    4.2670412  
C    0.1115397    0.0933559    4.4024240  
H    2.4028853    2.0163452    4.9860947  
H   -2.2861435   -1.9184361    2.3990168  
H    0.0832434    0.0693689    5.4835595  
H    3.3664920    2.8238276    2.6198634  
