46
5B 10B 22B 31A 36B 13 16 29 45 43 7 4 7 2 7 2 1 2 0 nosym
C    2.4521484    0.0014841   -3.7217480  
C    3.5379003    0.0014491   -2.8769937  
C    4.7042702    0.0016044   -3.6980792  
C    4.2640502    0.0020179   -5.0464608  
N    2.8914065   -0.0000176   -5.0249744  
C    5.1472052    0.0025710   -6.1303544  
C    6.4993918    0.0030162   -5.8479204  
O    7.4055695    0.0039155   -6.8686328  
C    6.9581315    0.0022388   -4.5091247  
O    8.3328179    0.0023938   -4.3925941  
C    6.0874476    0.0014197   -3.4393419  
H    3.4945813    0.0002215   -1.8013009  
H    2.2982886    0.0103118   -5.8349657  
H    4.8180487    0.0027441   -7.1603347  
H    8.2798217    0.0037912   -6.4575996  
H    8.5587827    0.0018622   -3.4574238  
H    6.4683340    0.0006541   -2.4247469  
C    0.0000000    0.0000000    0.0000000  
C    1.0662924   -0.0000101   -0.8334268  
C    0.4961874    0.0000066   -2.1718888  
C   -0.9663853   -0.0000848   -1.9540251  
N   -1.2632772   -0.0000083   -0.6828659  
C   -1.8985358   -0.0000514   -3.0477261  
C   -1.3925768    0.0004568   -4.3020545  
O   -2.1456376    0.0005413   -5.4151313  
C    0.0786241    0.0009326   -4.5545000  
O    0.4683768    0.0012593   -5.7221102  
C    1.0143172    0.0008444   -3.4159030  
H    2.1107200    0.0000634   -0.5721863  
H   -2.9622180   -0.0003268   -2.8593381  
H   -1.5042264    0.0009696   -6.1484423  
C    3.1301144    0.0010313    3.1728260  
C    2.5367765    0.0002768    1.9564670  
C    1.1089900   -0.0001027    2.2356185  
C    1.0177864    0.0004150    3.7115134  
N    2.1993570    0.0011613    4.2663826  
C   -0.2459220    0.0002880    4.3957118  
C   -1.3675327    0.0000606    3.6398520  
O   -2.6129319   -0.0000866    4.1448486  
C   -1.3083589   -0.0000910    2.1483229  
O   -2.3693264   -0.0004206    1.5241687  
C    0.0000000    0.0000000    1.4700000  
H    3.0096015    0.0001008    0.9892483  
H   -0.2829642    0.0004689    5.4753125  
H   -3.1967446   -0.0002093    3.3649027  
H    4.1849273    0.0015113    3.3971983  
