50
33A 34A 43B 0A 16A 20B 21A 49 44 48 15 32 28 29 2 3 4 2 2 1 7 3 1 3 0 nosym
C    3.3003543    0.0005277   -1.4738990  
C    2.5232811    0.0003499   -2.6090749  
C    1.1623199   -0.0001317   -2.1820104  
C    1.1711881    0.0000584   -0.7636144  
N    2.4852300   -0.0014918   -0.3662360  
C    0.0000000    0.0000000    0.0000000  
C   -1.2020384    0.0000520   -0.6806478  
O   -2.3759250    0.0003494    0.0157748  
C   -1.2314658   -0.0005111   -2.0955509  
O   -2.5054391   -0.0008036   -2.6250178  
C   -0.0764518   -0.0007271   -2.8495195  
H    2.8919951   -0.0005617   -3.6205306  
H    2.8036264    0.0088181    0.5858657  
H   -3.0835640    0.0000348   -0.6418817  
H   -2.4360050   -0.0011525   -3.5845919  
H    4.3715549    0.0004896   -1.3667139  
C    2.3021905   -2.1255949   -5.9826736  
C    1.8095066   -1.6629741   -4.7844618  
C    0.7354732   -0.7756719   -5.0906435  
C    0.6180408   -0.7363232   -6.5036502  
N    1.5855133   -1.5656960   -7.0142916  
C   -0.3411044    0.0395987   -7.1615057  
C   -1.1974967    0.7892232   -6.3786692  
O   -2.1530487    1.5644634   -6.9693773  
C   -1.0957953    0.7634644   -4.9673539  
O   -2.0200014    1.5643297   -4.3287604  
C   -0.1496418   -0.0015610   -4.3176961  
H    2.1795063   -1.9311006   -3.8096793  
H    1.7382194   -1.7475809   -7.9897812  
H   -0.4356858    0.0740451   -8.2381066  
H   -2.6345084    1.9978455   -6.2526899  
H   -1.8829376    1.4894724   -3.3794379  
H    3.1090426   -2.8095402   -6.1830927  
C    2.5285572    2.1210227    2.9438989  
C    1.9331703    1.6216660    4.0790748  
C    0.8903039    0.7472258    3.6520102  
C    0.8972198    0.7527806    2.2336141  
N    1.9028376    1.5986179    1.8362361  
C    0.0000000    0.0000000    1.4700000  
C   -0.9207814   -0.7726952    2.1506477  
O   -1.8198395   -1.5274828    1.4542253  
C   -0.9436862   -0.7911793    3.5655508  
O   -1.9197945   -1.6098497    4.0950179  
C   -0.0590329   -0.0485852    4.3195194  
H    2.2150357    1.8593692    5.0905303  
H    2.1533708    1.7953814    0.8841339  
H   -2.3621246   -1.9821033    2.1118817  
H   -1.8668290   -1.5649508    5.0545920  
H   -0.1007624   -0.0827977    5.4019087  
H    3.3491200    2.8096064    2.8367138  
