46
0A 4A 5B 22B 36B 41B 16 12 13 29 43 44 2 1 7 7 7 4 3 1 2 0 nosym
C    6.6540977   -0.0011649    1.3962729  
C    5.4018071   -0.0014566    0.8268552  
C    5.5874904   -0.0008421   -0.5874014  
C    6.9861179   -0.0004712   -0.8235503  
N    7.6043962    0.0012709    0.4021523  
C    7.5360617   -0.0001420   -2.1089885  
C    6.6581043   -0.0004950   -3.1754633  
O    7.1413991   -0.0005482   -4.4519588  
C    5.2593677   -0.0004920   -2.9601678  
O    4.5179012   -0.0004426   -4.1235984  
C    4.7161325   -0.0005435   -1.6923264  
H    4.4691981   -0.0009350    1.3646588  
H    8.5971749   -0.0086541    0.5513881  
H    8.6011206    0.0002855   -2.2956728  
H    6.3714452   -0.0005123   -5.0354277  
H    3.5847242   -0.0004712   -3.8895380  
H    6.9446145   -0.0010560    2.4328822  
C    3.2573665   -0.0002920   -1.5109385  
C    2.5379463   -0.0001709   -0.3591964  
C    1.1435038    0.0000331   -0.7338500  
C    1.1092599   -0.0000083   -2.2088477  
N    2.4227553    0.0001909   -2.6182613  
C   -0.0265539   -0.0002524   -2.9515660  
C   -1.3003040   -0.0002640   -2.2514977  
O   -2.3786790   -0.0004133   -2.8306421  
C   -1.2877727    0.0000311   -0.6895603  
O   -2.3539959    0.0003306   -0.0892030  
C    0.0000000    0.0000000    0.0000000  
H    2.9384091   -0.0000367    0.6389234  
H   -0.0296303   -0.0004086   -4.0327229  
H    2.7280482   -0.0013407   -3.5742119  
C    0.0000000    0.0000000    1.4700000  
C    1.0541688    0.0001722    2.3260392  
C    0.5103138    0.0000454    3.6635956  
C   -0.9576371   -0.0002459    3.5155732  
N   -1.2018458    0.0001392    2.1615969  
C   -1.8348311   -0.0008317    4.5510609  
C   -1.2972847   -0.0009736    5.9014604  
O   -2.0050672   -0.0014265    6.9001319  
C    0.2542623   -0.0004184    6.0817573  
O    0.7184670   -0.0002256    7.2139121  
C    1.0974552   -0.0000873    4.8889129  
H    2.0940752    0.0005483    2.0517982  
H   -2.9081052   -0.0011668    4.4207061  
H    2.1707277    0.0000911    5.0223670  
H   -2.1128194   -0.0014912    1.7406791  
