46
0A 4A 5B 36B 16 12 13 42 2 1 7 7 3 0 1 0 nosym
C    1.8180630   -2.1129497   -5.3329859  
C    0.9354851   -1.6527937   -4.3833644  
C    0.0367045   -0.7650452   -5.0457060  
C    0.4230765   -0.7228967   -6.4098414  
N    1.5089683   -1.5511034   -6.5495950  
C   -0.2445092    0.0541902   -7.3612902  
C   -1.3219475    0.8021224   -6.9278137  
O   -2.0097561    1.5783945   -7.8151330  
C   -1.7224656    0.7735648   -5.5707632  
O   -2.8127701    1.5730149   -5.2960654  
C   -1.0641730    0.0073887   -4.6315340  
H    0.9397145   -1.9228074   -3.3412189  
H    1.9947608   -1.7310194   -7.4096044  
H    0.0450909    0.0907690   -8.4024413  
H   -2.7126526    2.0102736   -7.3124581  
H   -3.0178516    1.4962858   -4.3592318  
H    2.6444742   -2.7963717   -5.2384451  
C    1.1319249    0.0015673   -0.8009268  
C    0.7969919    0.0034954   -2.1169403  
C   -0.6453335    0.0035697   -2.1842672  
C   -1.1266831    0.0015413   -0.7896029  
N    0.0000000    0.0000000    0.0000000  
C   -2.4346128    0.0013921   -0.4276299  
C   -3.4350109    0.0031346   -1.4820187  
O   -4.6384610    0.0030891   -1.2583924  
C   -2.9478954    0.0050451   -2.9661078  
O   -3.7809375    0.0062147   -3.8623779  
C   -1.5113818    0.0053061   -3.2312126  
H    1.4821242    0.0045430   -2.9459191  
H   -2.7664565    0.0000184    0.6013444  
H    2.1104318    0.0009428   -0.3488057  
C    0.8175213    0.6860729    2.3021913  
C    0.0000000    0.0000000    1.4700000  
C   -0.8887526   -0.7456559    2.3478473  
C   -0.4549825   -0.3816753    3.7138435  
N    0.5448156    0.4573574    3.6934124  
C   -1.0945674   -0.9182058    4.8835240  
C   -2.1210866   -1.7789155    4.6970523  
O   -2.8083856   -2.3554314    5.6976972  
C   -2.5824069   -2.1655116    3.3310774  
O   -3.5227682   -2.9541547    3.2362962  
C   -1.9100805   -1.6015804    2.1470656  
H   -0.7567140   -0.6349833    5.8697035  
H   -3.4728268   -2.9124471    5.2533954  
H   -2.2742832   -1.9066565    1.1752040  
H    1.6189533    1.3585343    2.0405121  
