46
0A 4A 5B 27B 32A 41B 16 12 13 30 42 44 2 1 7 4 3 4 3 1 2 0 nosym
C   -4.4234274    2.1222537   -0.0293809  
C   -3.3650429    1.6606156   -0.7771641  
C   -3.9025165    0.7730544   -1.7559171  
C   -5.3060543    0.7325421   -1.5550037  
N   -5.5885349    1.5615012   -0.4978143  
C   -6.1607759   -0.0439274   -2.3432515  
C   -5.5882382   -0.7929133   -3.3529040  
O   -6.3767045   -1.5686461   -4.1526375  
C   -4.1898491   -0.7659926   -3.5687767  
O   -3.7730105   -1.5663382   -4.6123452  
C   -3.3460097   -0.0004262   -2.7913647  
H   -2.3324822    1.9295467   -0.6340279  
H   -6.5054755    1.7425840   -0.1311943  
H   -7.2312988   -0.0792605   -2.1951503  
H   -5.7852137   -2.0014414   -4.7819952  
H   -2.8171049   -1.4906988   -4.6906196  
H   -4.4392464    2.8060391    0.8019711  
C    0.0000000    0.0000000    0.0000000  
C    1.0662919   -0.0000103   -0.8334272  
C    0.4961868    0.0000066   -2.1718889  
C   -0.9663860   -0.0000849   -1.9540248  
N   -1.2632775   -0.0000084   -0.6828659  
C   -1.8985364   -0.0000515   -3.0477258  
C   -1.3925778    0.0004567   -4.3020543  
O   -2.1456385    0.0005412   -5.4151314  
C    0.0786229    0.0009326   -4.5544999  
O    0.4683756    0.0012594   -5.7221104  
C    1.0143162    0.0008443   -3.4159034  
H    2.1107195    0.0000631   -0.5721869  
H   -1.5042277    0.0009692   -6.1484420  
H    2.0724151    0.0013151   -3.6409746  
C    1.1319247   -0.0015655    2.2709268  
C    0.7969915   -0.0034943    3.5869401  
C   -0.6453339   -0.0035710    3.6542670  
C   -1.1266833   -0.0015433    2.2596025  
N    0.0000000    0.0000000    1.4700000  
C   -2.4346130   -0.0013964    1.8976294  
C   -3.4350110   -0.0031408    2.9520183  
O   -4.6384611   -0.0030974    2.7283916  
C   -2.9478959   -0.0050506    4.4361073  
O   -3.7809380   -0.0062218    5.3323774  
C   -1.5113823   -0.0053090    4.7012123  
H    1.4821238   -0.0045407    4.4159191  
H   -2.7664565   -0.0000232    0.8686553  
H   -1.1823530   -0.0068408    5.7314848  
H    2.1104316   -0.0009391    1.8188057  
