46
0A 1A 10B 36B 16 11 15 42 2 3 4 7 3 0 1 0 nosym
C    1.7947392   -2.1104190   -5.2688958  
C    1.5724938   -1.6097192   -6.5307887  
C    0.4483886   -0.7363488   -6.4401710  
C    0.0234717   -0.7439103   -5.0869104  
N    0.8612548   -1.5898625   -4.4034617  
C   -1.0641730    0.0073887   -4.6315340  
C   -1.7349008    0.7806379   -5.5591049  
O   -2.8038571    1.5340381   -5.1682921  
C   -1.3262885    0.8011163   -6.9138868  
O   -2.0957529    1.6201017   -7.7142185  
C   -0.2535579    0.0599847   -7.3638851  
H    2.1489111   -1.8458639   -7.4088394  
H    0.8104288   -1.7878631   -3.4205102  
H   -3.1207518    1.9893486   -5.9591995  
H   -1.7533344    1.5765860   -8.6122501  
H    0.0359499    0.0957122   -8.4076228  
H    2.5443873   -2.7987884   -4.9179924  
C    1.1319249    0.0015673   -0.8009268  
C    0.7969919    0.0034954   -2.1169403  
C   -0.6453335    0.0035697   -2.1842672  
C   -1.1266831    0.0015413   -0.7896029  
N    0.0000000    0.0000000    0.0000000  
C   -2.4346128    0.0013921   -0.4276299  
C   -3.4350109    0.0031346   -1.4820187  
O   -4.6384610    0.0030891   -1.2583924  
C   -2.9478954    0.0050451   -2.9661078  
O   -3.7809375    0.0062147   -3.8623779  
C   -1.5113818    0.0053061   -3.2312126  
H    1.4821242    0.0045430   -2.9459191  
H   -2.7664565    0.0000184    0.6013444  
H    2.1104318    0.0009428   -0.3488057  
C    0.8175213    0.6860729    2.3021913  
C    0.0000000    0.0000000    1.4700000  
C   -0.8887526   -0.7456559    2.3478473  
C   -0.4549825   -0.3816753    3.7138435  
N    0.5448156    0.4573574    3.6934124  
C   -1.0945674   -0.9182058    4.8835240  
C   -2.1210866   -1.7789155    4.6970523  
O   -2.8083856   -2.3554314    5.6976972  
C   -2.5824069   -2.1655116    3.3310774  
O   -3.5227682   -2.9541547    3.2362962  
C   -1.9100805   -1.6015804    2.1470656  
H   -0.7567140   -0.6349833    5.8697035  
H   -3.4728268   -2.9124471    5.2533954  
H   -2.2742832   -1.9066565    1.1752040  
H    1.6189533    1.3585343    2.0405121  
