50
1A 10B 17A 33A 34A 43B 11 15 32 49 44 48 3 4 2 2 3 4 2 1 3 0 nosym
C    0.6936363   -0.7066091   -5.1527423  
C    0.3462071   -0.4553038   -6.4598787  
C   -0.7528353    0.4534783   -6.4312302  
C   -1.0341492    0.7235440   -5.0674656  
N   -0.1387079    0.0017019   -4.3179684  
C   -2.0601488    1.5827606   -4.6626686  
C   -2.8157360    2.1804680   -5.6526242  
O   -3.8298705    3.0285550   -5.3130766  
C   -2.5506566    1.9232744   -7.0187869  
O   -3.3906541    2.5937328   -7.8837921  
C   -1.5388178    1.0755383   -7.4188520  
H    0.8251963   -0.8761771   -7.3273054  
H   -2.2797244    1.7926345   -3.6249109  
H   -4.2227242    3.3302844   -6.1424684  
H   -3.1443868    2.3650606   -8.7852714  
H   -1.3595351    0.8977373   -8.4727608  
H    1.4683923   -1.3361779   -4.7498094  
C    3.3041273    0.0001178   -1.5420428  
C    2.5845373   -0.0004780   -0.3695851  
C    1.2040007   -0.0000007   -0.7283589  
C    1.1422374    0.0006038   -2.1454372  
N    2.4348641    0.0026111   -2.6077464  
C   -0.0655179    0.0008799   -2.8497918  
C   -1.2321766    0.0002325   -2.1101402  
O   -2.4392814    0.0001148   -2.7472522  
C   -1.1911209   -0.0000007   -0.6955266  
O   -2.4371528   -0.0002320   -0.1032862  
C    0.0000000    0.0000000    0.0000000  
H    3.0031533   -0.0000660    0.6222584  
H    2.7054631   -0.0071097   -3.5745261  
H   -3.1132988   -0.0000648   -2.0551787  
H   -2.3200282   -0.0004072    0.8516409  
H    4.3686625    0.0004073   -1.7024290  
C    2.5285572    2.1210227    2.9438989  
C    1.9331703    1.6216660    4.0790748  
C    0.8903039    0.7472258    3.6520102  
C    0.8972198    0.7527806    2.2336141  
N    1.9028376    1.5986179    1.8362361  
C    0.0000000    0.0000000    1.4700000  
C   -0.9207814   -0.7726952    2.1506477  
O   -1.8198395   -1.5274828    1.4542253  
C   -0.9436862   -0.7911793    3.5655508  
O   -1.9197945   -1.6098497    4.0950179  
C   -0.0590329   -0.0485852    4.3195194  
H    2.2150357    1.8593692    5.0905303  
H    2.1533708    1.7953814    0.8841339  
H   -2.3621246   -1.9821033    2.1118817  
H   -1.8668290   -1.5649508    5.0545920  
H   -0.1007624   -0.0827977    5.4019087  
H    3.3491200    2.8096064    2.8367138  
