46
0A 1A 10B 36B 41B 16 11 15 43 44 2 3 4 7 4 3 0 2 0 nosym
C    5.7263111   -2.1250318   -4.6502146  
C    5.5046683   -1.6274764   -5.9134566  
C    4.3816203   -0.7525056   -5.8252013  
C    3.9566978   -0.7558948   -4.4719255  
N    4.7934588   -1.6010090   -3.7861918  
C    2.8699635   -0.0020528   -4.0185828  
C    2.2001692    0.7694967   -4.9482412  
O    1.1321258    1.5252427   -4.5594673  
C    2.6088027    0.7858186   -6.3030731  
O    1.8403276    1.6035674   -7.1056164  
C    3.6806352    0.0421765   -6.7510653  
H    6.0807973   -1.8666906   -6.7908654  
H    4.7423957   -1.7962902   -2.8027086  
H    0.8157799    1.9787966   -5.3516030  
H    2.1826911    1.5572102   -8.0035268  
H    3.9701834    0.0747322   -7.7948955  
H    6.4751266   -2.8133559   -4.2974511  
C    3.2573667   -0.0002919   -1.5109386  
C    2.5379468   -0.0001709   -0.3591965  
C    1.1435041    0.0000331   -0.7338500  
C    1.1092604   -0.0000084   -2.2088475  
N    2.4227558    0.0001908   -2.6182613  
C   -0.0265536   -0.0002526   -2.9515663  
C   -1.3003039   -0.0002641   -2.2514979  
O   -2.3786786   -0.0004135   -2.8306422  
C   -1.2877726    0.0000311   -0.6895607  
O   -2.3539957    0.0003306   -0.0892033  
C    0.0000000    0.0000000    0.0000000  
H    2.9384090   -0.0000368    0.6389236  
H   -0.0296296   -0.0004089   -4.0327231  
H    4.3270391   -0.0004765   -1.6439450  
C    0.0000000    0.0000000    1.4700000  
C    1.0541688    0.0001722    2.3260392  
C    0.5103138    0.0000454    3.6635956  
C   -0.9576371   -0.0002459    3.5155732  
N   -1.2018458    0.0001392    2.1615969  
C   -1.8348311   -0.0008317    4.5510609  
C   -1.2972847   -0.0009736    5.9014604  
O   -2.0050672   -0.0014265    6.9001319  
C    0.2542623   -0.0004184    6.0817573  
O    0.7184670   -0.0002256    7.2139121  
C    1.0974552   -0.0000873    4.8889129  
H    2.0940752    0.0005483    2.0517982  
H   -2.9081052   -0.0011668    4.4207061  
H    2.1707277    0.0000911    5.0223670  
H   -2.1128194   -0.0014912    1.7406791  
