46
1A 10B 31A 36B 11 15 45 43 3 4 2 7 2 0 2 0 nosym
C    3.9420067   -0.7120701   -4.5063815  
C    4.0760568   -0.4635061   -5.8527519  
C    3.0376219    0.4452895   -6.2137833  
C    2.2953676    0.7181881   -5.0362809  
N    2.8699635   -0.0020528   -4.0185828  
C    1.1931549    1.5782059   -5.0193800  
C    0.8338811    2.1738164   -6.2128408  
O   -0.2343100    3.0225690   -6.2528411  
C    1.5617868    1.9137842   -7.3983165  
O    1.0796407    2.5824028   -8.5045842  
C    2.6490869    1.0652563   -7.4157840  
H    4.8289333   -0.8861686   -6.4958128  
H    0.6231804    1.7902352   -4.1253027  
H   -0.3105739    3.3225516   -7.1679692  
H    1.6267216    2.3518606   -9.2616551  
H    3.1870320    0.8852644   -8.3392000  
H    4.5254118   -1.3407657   -3.8557364  
C    3.2573667   -0.0002919   -1.5109386  
C    2.5379468   -0.0001709   -0.3591965  
C    1.1435041    0.0000331   -0.7338500  
C    1.1092604   -0.0000084   -2.2088475  
N    2.4227558    0.0001908   -2.6182613  
C   -0.0265536   -0.0002526   -2.9515663  
C   -1.3003039   -0.0002641   -2.2514979  
O   -2.3786786   -0.0004135   -2.8306422  
C   -1.2877726    0.0000311   -0.6895607  
O   -2.3539957    0.0003306   -0.0892033  
C    0.0000000    0.0000000    0.0000000  
H    2.9384090   -0.0000368    0.6389236  
H   -0.0296296   -0.0004089   -4.0327231  
H    4.3270391   -0.0004765   -1.6439450  
C    2.3971438    2.0127888    3.1728260  
C    1.9431056    1.6308205    1.9564670  
C    0.8496017    0.7127664    2.2356185  
C    0.7794028    0.6545384    3.7115134  
N    1.6840587    1.4146091    4.2663826  
C   -0.1885723   -0.1578550    4.3957118  
C   -1.0476298   -0.8789867    3.6398520  
O   -2.0015663   -1.6796266    4.1448486  
C   -1.0022026   -0.8410666    2.1483229  
O   -1.8147390   -1.5232959    1.5241687  
C    0.0000000    0.0000000    1.4700000  
H    2.3054237    1.9346118    0.9892483  
H   -0.2170646   -0.1815267    5.4753125  
H   -2.4487139   -2.0549881    3.3649027  
H    3.2048689    2.6911772    3.3971983  
