46
0A 4A 5B 22B 31A 32A 41B 16 12 13 29 44 42 43 2 1 7 7 2 3 4 3 1 3 0 nosym
C    6.7636934   -0.0009529    0.9023170  
C    5.4671766   -0.0013102    0.4424134  
C    5.5308677   -0.0015362   -0.9825580  
C    6.9040853   -0.0015867   -1.3378043  
N    7.6252196    0.0007237   -0.1696528  
C    7.3417428   -0.0020997   -2.6656761  
C    6.3755446   -0.0028772   -3.6529135  
O    6.7475666   -0.0037539   -4.9661587  
C    5.0004300   -0.0024647   -3.3184349  
O    4.1619027   -0.0029229   -4.4139782  
C    4.5679461   -0.0016854   -2.0086701  
H    4.5841350   -0.0002919    1.0582291  
H    8.6271391   -0.0093207   -0.1061171  
H    8.3868637   -0.0019970   -2.9430282  
H    5.9304036   -0.0038907   -5.4814347  
H    3.2522415   -0.0026270   -4.1007370  
H    7.1420552   -0.0003157    1.9101865  
C    3.1301149   -0.0010311   -1.7028252  
C    2.5367768   -0.0002767   -0.4864665  
C    1.1089904    0.0001028   -0.7656183  
C    1.0177872   -0.0004148   -2.2415132  
N    2.1993578   -0.0011611   -2.7963820  
C   -0.2459209   -0.0002877   -2.9257118  
C   -1.3675319   -0.0000605   -2.1698524  
O   -2.6129313    0.0000867   -2.6748490  
C   -1.3083584    0.0000910   -0.6783232  
O   -2.3693261    0.0004206   -0.0541692  
C    0.0000000    0.0000000    0.0000000  
H    3.0096017   -0.0001007    0.4807525  
H   -0.2829630   -0.0004687   -4.0053125  
H   -3.1967441    0.0002094   -1.8949034  
C    2.5128556    2.1077716    2.9199648  
C    1.9592212    1.6432552    4.0696553  
C    0.8915788    0.7479214    3.6910360  
C    0.8684491    0.7287414    2.2159470  
N    1.8754542    1.5738793    1.8102719  
C    0.0000000    0.0000000    1.4700000  
C   -0.9772830   -0.8200135    2.1664417  
O   -1.8021297   -1.5120829    1.5842315  
C   -0.9711318   -0.8147624    3.7284083  
O   -1.7894187   -1.5009653    4.3257297  
C    0.0140216    0.0115358    4.4216297  
H    2.2638494    1.8988021    5.0689105  
H    0.0117648    0.0094386    5.5031631  
H    3.3327358    2.7953732    2.7900019  
H    2.1123206    1.7707734    0.8551938  
