46
0A 1A 10B 17A 31A 35A 36B 16 11 15 29 44 45 43 2 3 4 2 2 1 7 3 1 3 0 nosym
C    2.5407179   -2.1175684   -5.9030226  
C    1.9415409   -1.6187197   -7.0364263  
C    0.8989084   -0.7455181   -6.6062679  
C    0.9098659   -0.7512698   -5.1878982  
N    1.9175634   -1.5960296   -4.7935073  
C    0.0139740    0.0003882   -4.4216236  
C   -0.9096109    0.7721425   -5.0995354  
O   -1.8075345    1.5258148   -4.4004467  
C   -0.9365618    0.7908048   -6.5143649  
O   -1.9150947    1.6084498   -7.0409318  
C   -0.0532203    0.0493178   -7.2709567  
H    2.2207957   -1.8559590   -8.0487146  
H    2.1710260   -1.7926476   -3.8421507  
H   -2.3522007    1.9799183   -5.0564904  
H   -1.8648090    1.5637492   -8.0006594  
H   -0.0980676    0.0836394   -8.3532174  
H    3.3623578   -2.8052412   -5.7982735  
C    3.2798084    0.0005857   -1.4499648  
C    2.5571144    0.0005567   -2.5996554  
C    1.1637435    0.0001550   -2.2210360  
C    1.1336965   -0.0000199   -0.7459471  
N    2.4483512   -0.0001427   -0.3402718  
C    0.0000000    0.0000000    0.0000000  
C   -1.2757368   -0.0000186   -0.6964414  
O   -2.3524597   -0.0000639   -0.1142313  
C   -1.2676495   -0.0000872   -2.2584081  
O   -2.3355764   -0.0004099   -2.8557294  
C    0.0181561    0.0001761   -2.9516296  
H    2.9547355    0.0006077   -3.5989105  
H    4.3498548    0.0008614   -1.3200022  
H    2.7563628    0.0012824    0.6148063  
C    2.4951002    2.0940188    2.9809380  
C    1.9440701    1.6314916    1.8291961  
C    0.8759964    0.7350050    2.2038498  
C    0.8497377    0.7130254    3.6788474  
N    1.8560616    1.5571714    4.0882609  
C   -0.0205033   -0.0168748    4.4215661  
C   -0.9962600   -0.8356168    3.7214979  
O   -1.8224391   -1.5286685    4.3006425  
C   -0.9864710   -0.8277881    2.1595606  
O   -1.8030528   -1.5133726    1.5592035  
C    0.0000000    0.0000000    1.4700000  
H    2.2509283    1.8888011    0.8310761  
H   -0.0229599   -0.0187323    5.5027230  
H    3.3143982    2.7817323    3.1139444  
H    2.0889452    1.7545833    5.0442112  
