46
1A 10B 17A 31A 36B 11 15 29 45 43 3 4 2 2 7 2 1 2 0 nosym
C    0.8398293   -0.7093993   -5.2158384  
C    0.5541686   -0.4590034   -6.5380215  
C   -0.5449395    0.4498437   -6.5616412  
C   -0.8899486    0.7208845   -5.2127777  
N   -0.0307352   -0.0004646   -4.4215603  
C   -1.9337575    1.5804289   -4.8572001  
C   -2.6419913    2.1774677   -5.8819576  
O   -3.6708855    3.0258357   -5.5909925  
C   -2.3130853    1.9192980   -7.2339882  
O   -3.1114969    2.5891793   -8.1379461  
C   -1.2836430    1.0712380   -7.5855115  
H    1.0733219   -0.8805091   -7.3817075  
H   -2.2017956    1.7910450   -3.8310432  
H   -4.0243458    3.3269951   -6.4381250  
H   -2.8231961    2.3598603   -9.0267096  
H   -1.0550927    0.8926851   -8.6297154  
H    1.5947677   -1.3387150   -4.7765340  
C    3.2573670   -0.0002920   -1.5109380  
C    2.5379468   -0.0001709   -0.3591961  
C    1.1435043    0.0000332   -0.7338500  
C    1.1092609   -0.0000082   -2.2088477  
N    2.4227562    0.0001909   -2.6182613  
C   -0.0265532   -0.0002522   -2.9515663  
C   -1.3003035   -0.0002639   -2.2514981  
O   -2.3786784   -0.0004131   -2.8306429  
C   -1.2877725    0.0000312   -0.6895608  
O   -2.3539958    0.0003307   -0.0892036  
C    0.0000000    0.0000000    0.0000000  
H    2.9384091   -0.0000369    0.6389239  
H    4.3270394   -0.0004765   -1.6439446  
H    2.7280494   -0.0013406   -3.5742113  
C    2.3971438    2.0127888    3.1728260  
C    1.9431056    1.6308205    1.9564670  
C    0.8496017    0.7127664    2.2356185  
C    0.7794028    0.6545384    3.7115134  
N    1.6840587    1.4146091    4.2663826  
C   -0.1885723   -0.1578550    4.3957118  
C   -1.0476298   -0.8789867    3.6398520  
O   -2.0015663   -1.6796266    4.1448486  
C   -1.0022026   -0.8410666    2.1483229  
O   -1.8147390   -1.5232959    1.5241687  
C    0.0000000    0.0000000    1.4700000  
H    2.3054237    1.9346118    0.9892483  
H   -0.2170646   -0.1815267    5.4753125  
H   -2.4487139   -2.0549881    3.3649027  
H    3.2048689    2.6911772    3.3971983  
