46
4A 5B 36B 41B 11 12 43 45 1 7 7 4 2 0 2 0 nosym
C    4.1944218   -0.7165773   -4.3917018  
C    3.1006056    0.0006265   -3.9654949  
C    2.6147708    0.7278982   -5.0922782  
C    3.4591430    0.4117567   -6.1872741  
N    4.4087712   -0.4662363   -5.7268918  
C    3.2753264    0.9505928   -7.4642458  
C    2.2197112    1.8242559   -7.6390812  
O    1.9944416    2.3791613   -8.8655998  
C    1.3664667    2.1523121   -6.5587255  
O    0.3614966    3.0364934   -6.8927932  
C    1.5473748    1.6213245   -5.2986260  
H    5.1391358   -0.8746112   -6.2816702  
H    3.9154385    0.7137730   -8.3029196  
H    1.2210913    2.9500286   -8.7691408  
H   -0.1686503    3.2050644   -6.1078525  
H    0.8776854    1.8913829   -4.4905030  
H    4.8395078   -1.3857804   -3.8485720  
C    3.2798083    0.0005856   -1.4499650  
C    2.5571143    0.0005567   -2.5996555  
C    1.1637433    0.0001550   -2.2210361  
C    1.1336964   -0.0000198   -0.7459472  
N    2.4483513   -0.0001427   -0.3402721  
C    0.0000000    0.0000000    0.0000000  
C   -1.2757369   -0.0000185   -0.6964416  
O   -2.3524597   -0.0000637   -0.1142312  
C   -1.2676495   -0.0000871   -2.2584083  
O   -2.3355763   -0.0004098   -2.8557295  
C    0.0181559    0.0001761   -2.9516296  
H    0.0150790    0.0003322   -4.0331631  
H    4.3498547    0.0008612   -1.3200024  
H    2.7563627    0.0012823    0.6148060  
C    0.0000000    0.0000000    1.4700000  
C    1.0662921    0.0000102    2.3034270  
C    0.4961870   -0.0000064    3.6418889  
C   -0.9663858    0.0000850    3.4240247  
N   -1.2632773    0.0000084    2.1528658  
C   -1.8985362    0.0000517    4.5177257  
C   -1.3925775   -0.0004564    5.7720543  
O   -2.1456383   -0.0005410    6.8851312  
C    0.0786232   -0.0009323    6.0245000  
O    0.4683759   -0.0012588    7.1921102  
C    1.0143166   -0.0008442    4.8859032  
H    2.1107198   -0.0000632    2.0421868  
H   -2.9622183    0.0003270    4.3293377  
H   -1.5042274   -0.0009692    7.6184419  
H    2.0724152   -0.0013148    5.1109744  
