50
5B 10B 37A 38B 13 16 44 45 7 4 1 7 2 0 2 0 nosym
C   -1.2456305    0.0472573   -4.5828764  
C    0.0064701    0.0513568   -5.1526962  
C   -0.1796822    0.0650600   -6.5668248  
C   -1.5783872    0.0690962   -6.8024816  
N   -2.1962608    0.0560943   -5.5766434  
C   -2.1287558    0.0823423   -8.0876696  
C   -1.2511526    0.0919910   -9.1543918  
O   -1.7348694    0.1054325  -10.4306567  
C    0.1476542    0.0877880   -8.9395912  
O    0.8887339    0.0981984  -10.1032211  
C    0.6913085    0.0744488   -7.6719996  
H    0.9392556    0.0441199   -4.6152466  
H   -3.1889751    0.0660008   -5.4269732  
H   -3.1938762    0.0853389   -8.2739810  
H   -0.9651098    0.1100554  -11.0143641  
H    1.8219876    0.0945268   -9.8694951  
H    1.7668026    0.0713498   -7.5386544  
C    1.1243415    0.0099154   -0.7919005  
C    0.7474088    0.0234032   -2.1148544  
C   -0.6787370    0.0234950   -2.1414699  
C   -1.1201740    0.0099356   -0.7935545  
N    0.0000000    0.0000000    0.0000000  
C   -2.4730813    0.0065397   -0.4408236  
C   -3.3971949    0.0173298   -1.4675052  
O   -4.7313510    0.0149489   -1.1793464  
C   -2.9763633    0.0305535   -2.8186320  
O   -4.0166457    0.0397857   -3.7247617  
C   -1.6418545    0.0336378   -3.1673479  
H    1.4178731    0.0310000   -2.9571212  
H   -2.8160169   -0.0039188    0.5845970  
H   -5.1938804    0.0234411   -2.0274375  
H   -3.6464653    0.0484778   -4.6127338  
H    2.1062467    0.0051380   -0.3505411  
C    0.8576279    0.7185626    2.2703808  
C    0.0000000    0.0000000    1.4700000  
C   -0.8668858   -0.7285659    2.3373528  
C   -0.4876752   -0.4117774    3.6669281  
N    0.5635254    0.4678311    3.5902241  
C   -1.1297612   -0.9515493    4.7854808  
C   -2.1738724   -1.8268314    4.5576857  
O   -2.8357962   -2.3827064    5.6140350  
C   -2.5667212   -2.1555554    3.2384331  
O   -3.6226318   -3.0413663    3.1773122  
C   -1.9335634   -1.6236449    2.1344818  
H    1.0363952    0.8769718    4.3757045  
H   -0.8454472   -0.7142436    5.8013813  
H   -3.5178062   -2.9546422    5.2385129  
H   -3.8247440   -3.2102924    2.2519915  
H   -2.2566033   -1.8942483    1.1360343  
H    1.6567807    1.3889844    2.0042067  
