48
4A 5B 22B 31A 35A 36B 11 12 29 47 43 44 1 7 7 2 1 7 2 1 3 0 nosym
C    5.6484569    0.0004439   -0.6807742  
C    4.7161325   -0.0005435   -1.6923264  
C    5.4371285   -0.0001079   -2.9230842  
C    6.8175139    0.0008760   -2.5968008  
N    6.9105274    0.0031396   -1.2271437  
C    7.8240133    0.0012220   -3.5672375  
C    7.4298416    0.0002555   -4.8911732  
O    8.3714601    0.0001894   -5.8792860  
C    6.0574641   -0.0003586   -5.2367110  
O    5.8267421   -0.0008767   -6.5968984  
C    5.0639870   -0.0004269   -4.2798782  
H    7.7671524   -0.0062908   -0.7036122  
H    8.8778471    0.0021151   -3.3250885  
H    7.8889790   -0.0002465   -6.7162301  
H    4.8759897   -0.0013000   -6.7441179  
H    4.0211715   -0.0007219   -4.5748592  
H    5.5130313    0.0008845    0.3872233  
C    3.2573665   -0.0002920   -1.5109385  
C    2.5379463   -0.0001709   -0.3591964  
C    1.1435038    0.0000331   -0.7338500  
C    1.1092599   -0.0000083   -2.2088477  
N    2.4227553    0.0001909   -2.6182613  
C   -0.0265539   -0.0002524   -2.9515660  
C   -1.3003040   -0.0002640   -2.2514977  
O   -2.3786790   -0.0004133   -2.8306421  
C   -1.2877727    0.0000311   -0.6895603  
O   -2.3539959    0.0003306   -0.0892030  
C    0.0000000    0.0000000    0.0000000  
H    2.9384091   -0.0000367    0.6389234  
H   -0.0296303   -0.0004086   -4.0327229  
H    2.7280482   -0.0013407   -3.5742119  
C    2.5311839    2.1237619    3.0120429  
C    1.9795631    1.6616747    1.8395852  
C    0.9223175    0.7739173    2.1983588  
C    0.8753926    0.7337535    3.6154372  
N    1.8668922    1.5631002    4.0777464  
C   -0.0496243   -0.0427881    4.3197917  
C   -0.9437528   -0.7922060    3.5801400  
O   -1.8685244   -1.5680278    4.2172520  
C   -0.9124520   -0.7656372    2.1655264  
O   -1.8671164   -1.5663939    1.5732860  
C    0.0000000    0.0000000    1.4700000  
H    2.3005065    1.9304404    0.8477417  
H    2.0679347    1.7444845    5.0445261  
H   -0.0904770   -0.0778569    5.3997470  
H   -2.3849669   -2.0011402    3.5251786  
H   -1.7775064   -1.4909735    0.6183591  
H    3.3468514    2.8078103    3.1724291  
