46
0A 4A 5B 17A 31A 32A 41B 16 12 13 30 44 42 43 2 1 7 2 2 3 4 3 1 3 0 nosym
C    2.5739603   -2.1205420   -6.0299297  
C    2.0624117   -1.6592059   -4.8391508  
C    0.9926086   -0.7724386   -5.1612766  
C    0.8970790   -0.7320770   -6.5759043  
N    1.8729616   -1.5603575   -7.0721121  
C   -0.0523136    0.0436657   -7.2479647  
C   -0.9212931    0.7920662   -6.4779331  
O   -1.8681343    1.5670778   -7.0827994  
C   -0.8414765    0.7652845   -5.0652306  
O   -1.7760614    1.5649887   -4.4404367  
C    0.0950452    0.0004352   -4.4015596  
H    2.4174430   -1.9278234   -3.8589517  
H    2.0409134   -1.7413748   -8.0452541  
H   -0.1302095    0.0788801   -8.3258765  
H   -2.3609689    1.9995568   -6.3733345  
H   -1.6536848    1.4894931   -3.4891600  
H    3.3843236   -2.8037510   -6.2183329  
C    3.3321174    0.0004718   -1.3379334  
C    2.6974185    0.0000117   -2.5332310  
C    1.2800440   -0.0002117   -2.2052839  
C    1.2395036    0.0000644   -0.7271297  
N    2.4394063    0.0005460   -0.2131035  
C    0.0000000    0.0000000    0.0000000  
C   -1.1468700    0.0000635   -0.7169545  
O   -2.3742202    0.0000073   -0.1695490  
C   -1.1388767    0.0001607   -2.2096357  
O   -2.2206230    0.0000904   -2.7970414  
C    0.1454526    0.0001816   -2.9324241  
H    3.1367988   -0.0000648   -3.5160946  
H   -2.9844344    0.0001025   -0.9290171  
H    4.3940040    0.0007621   -1.1498634  
C    2.5128556    2.1077716    2.9199648  
C    1.9592212    1.6432552    4.0696553  
C    0.8915788    0.7479214    3.6910360  
C    0.8684491    0.7287414    2.2159470  
N    1.8754542    1.5738793    1.8102719  
C    0.0000000    0.0000000    1.4700000  
C   -0.9772830   -0.8200135    2.1664417  
O   -1.8021297   -1.5120829    1.5842315  
C   -0.9711318   -0.8147624    3.7284083  
O   -1.7894187   -1.5009653    4.3257297  
C    0.0140216    0.0115358    4.4216297  
H    2.2638494    1.8988021    5.0689105  
H    0.0117648    0.0094386    5.5031631  
H    3.3327358    2.7953732    2.7900019  
H    2.1123206    1.7707734    0.8551938  
