46
0A 4A 5B 22B 36B 41B 16 12 13 29 43 44 2 1 7 7 7 4 3 1 2 0 nosym
C    6.7636934   -0.0009529    0.9023170  
C    5.4671766   -0.0013102    0.4424134  
C    5.5308677   -0.0015362   -0.9825580  
C    6.9040853   -0.0015867   -1.3378043  
N    7.6252196    0.0007237   -0.1696528  
C    7.3417428   -0.0020997   -2.6656761  
C    6.3755446   -0.0028772   -3.6529135  
O    6.7475666   -0.0037539   -4.9661587  
C    5.0004300   -0.0024647   -3.3184349  
O    4.1619027   -0.0029229   -4.4139782  
C    4.5679461   -0.0016854   -2.0086701  
H    4.5841350   -0.0002919    1.0582291  
H    8.6271391   -0.0093207   -0.1061171  
H    8.3868637   -0.0019970   -2.9430282  
H    5.9304036   -0.0038907   -5.4814347  
H    3.2522415   -0.0026270   -4.1007370  
H    7.1420552   -0.0003157    1.9101865  
C    3.1301149   -0.0010311   -1.7028252  
C    2.5367768   -0.0002767   -0.4864665  
C    1.1089904    0.0001028   -0.7656183  
C    1.0177872   -0.0004148   -2.2415132  
N    2.1993578   -0.0011611   -2.7963820  
C   -0.2459209   -0.0002877   -2.9257118  
C   -1.3675319   -0.0000605   -2.1698524  
O   -2.6129313    0.0000867   -2.6748490  
C   -1.3083584    0.0000910   -0.6783232  
O   -2.3693261    0.0004206   -0.0541692  
C    0.0000000    0.0000000    0.0000000  
H    3.0096017   -0.0001007    0.4807525  
H   -0.2829630   -0.0004687   -4.0053125  
H   -3.1967441    0.0002094   -1.8949034  
C    0.0000000    0.0000000    1.4700000  
C    1.0541688    0.0001722    2.3260392  
C    0.5103138    0.0000454    3.6635956  
C   -0.9576371   -0.0002459    3.5155732  
N   -1.2018458    0.0001392    2.1615969  
C   -1.8348311   -0.0008317    4.5510609  
C   -1.2972847   -0.0009736    5.9014604  
O   -2.0050672   -0.0014265    6.9001319  
C    0.2542623   -0.0004184    6.0817573  
O    0.7184670   -0.0002256    7.2139121  
C    1.0974552   -0.0000873    4.8889129  
H    2.0940752    0.0005483    2.0517982  
H   -2.9081052   -0.0011668    4.4207061  
H    2.1707277    0.0000911    5.0223670  
H   -2.1128194   -0.0014912    1.7406791  
