48
0A 4A 5B 27B 31A 32A 41B 16 12 13 30 47 42 46 2 1 7 4 2 3 4 3 1 3 0 nosym
C    6.8742265    0.0003231   -4.0661422  
C    5.5942422    0.0007865   -3.5620504  
C    5.7067592    0.0007575   -2.1401011  
C    7.0913504    0.0005504   -1.8321526  
N    7.7720040   -0.0016616   -3.0243453  
C    7.5742853    0.0007717   -0.5200691  
C    6.6425079    0.0015172    0.4997194  
O    7.0593435    0.0021141    1.7994356  
C    5.2567325    0.0013590    0.2125911  
O    4.4562654    0.0017482    1.3362440  
C    4.7795901    0.0008674   -1.0815733  
H    4.6906031    0.0000007   -4.1472242  
H    8.7711565    0.0082505   -3.1221989  
H    8.6283021    0.0004717   -0.2787181  
H    6.2603298    0.0022789    2.3424296  
H    3.5363981    0.0016363    1.0543799  
H    7.2178047   -0.0001944   -5.0863935  
C    3.3321168    0.0004716   -1.3379341  
C    2.6974177    0.0000118   -2.5332316  
C    1.2800432   -0.0002116   -2.2052842  
C    1.2395033    0.0000644   -0.7271298  
N    2.4394059    0.0005460   -0.2131041  
C    0.0000000    0.0000000    0.0000000  
C   -1.1468704    0.0000635   -0.7169542  
O   -2.3742206    0.0000074   -0.1695488  
C   -1.1388774    0.0001608   -2.2096352  
O   -2.2206238    0.0000906   -2.7970409  
C    0.1454514    0.0001818   -2.9324241  
H    3.1367978   -0.0000649   -3.5160956  
H   -2.9844350    0.0001027   -0.9290164  
H    0.1083567    0.0003684   -4.0135594  
C    2.5285572    2.1210227    2.9438989  
C    1.9331703    1.6216660    4.0790748  
C    0.8903039    0.7472258    3.6520102  
C    0.8972198    0.7527806    2.2336141  
N    1.9028376    1.5986179    1.8362361  
C    0.0000000    0.0000000    1.4700000  
C   -0.9207814   -0.7726952    2.1506477  
O   -1.8198395   -1.5274828    1.4542253  
C   -0.9436862   -0.7911793    3.5655508  
O   -1.9197945   -1.6098497    4.0950179  
C   -0.0590329   -0.0485852    4.3195194  
H    2.2150357    1.8593692    5.0905303  
H    2.1533708    1.7953814    0.8841339  
H   -2.3621246   -1.9821033    2.1118817  
H   -1.8668290   -1.5649508    5.0545920  
H   -0.1007624   -0.0827977    5.4019087  
H    3.3491200    2.8096064    2.8367138  
