46
1A 10B 31A 32A 41B 11 15 44 42 43 3 4 2 3 4 2 0 3 0 nosym
C    0.2913987   -0.7084427   -5.1223474  
C    0.5739114   -0.4576449   -6.4451305  
C   -0.4187661    0.4510450   -6.9178608  
C   -1.2874029    0.7215800   -5.8296476  
N   -0.8287665    0.0000939   -4.7555305  
C   -2.3853878    1.5808478   -5.9339392  
C   -2.6104142    2.1781250   -7.1590112  
O   -3.6682603    3.0262404   -7.3160913  
C   -1.7551623    1.9204596   -8.2567226  
O   -2.1120438    2.5905254   -9.4086738  
C   -0.6719446    1.0726728   -8.1546323  
H    1.3938856   -0.8787885   -7.0012543  
H   -3.0512890    1.7910783   -5.1083604  
H   -3.6426880    3.3276317   -8.2335737  
H   -1.4840920    2.3615487  -10.1006640  
H   -0.0346438    0.8945055   -9.0128760  
H    0.7994703   -1.3377927   -4.4118966  
C    1.0672569   -0.0000698   -0.8321910  
C    0.0000000    0.0000000    0.0000000  
C   -1.1601223   -0.0000736   -0.8778472  
C   -0.5938729   -0.0000768   -2.2438435  
N    0.7113367   -0.0001553   -2.2234123  
C   -1.4286985   -0.0001877   -3.4135239  
C   -2.7683113   -0.0006798   -3.2270524  
O   -3.6653902   -0.0008302   -4.2276970  
C   -3.3702024   -0.0010610   -1.8610774  
O   -4.5974910   -0.0013779   -1.7662963  
C   -2.4926825   -0.0008943   -0.6770658  
H   -4.5324245   -0.0012258   -3.7833954  
H   -2.9677772   -0.0012974    0.2947961  
H    2.1134391   -0.0000547   -0.5705119  
C    2.5128556    2.1077716    2.9199648  
C    1.9592212    1.6432552    4.0696553  
C    0.8915788    0.7479214    3.6910360  
C    0.8684491    0.7287414    2.2159470  
N    1.8754542    1.5738793    1.8102719  
C    0.0000000    0.0000000    1.4700000  
C   -0.9772830   -0.8200135    2.1664417  
O   -1.8021297   -1.5120829    1.5842315  
C   -0.9711318   -0.8147624    3.7284083  
O   -1.7894187   -1.5009653    4.3257297  
C    0.0140216    0.0115358    4.4216297  
H    2.2638494    1.8988021    5.0689105  
H    0.0117648    0.0094386    5.5031631  
H    3.3327358    2.7953732    2.7900019  
H    2.1123206    1.7707734    0.8551938  
