46
4A 5B 32A 41B 11 12 42 44 1 7 3 4 2 0 2 0 nosym
C   -0.0027742   -0.7092648   -5.1338368  
C   -1.0641730    0.0073887   -4.6315340  
C   -1.6270393    0.7363997   -5.7207193  
C   -0.8609060    0.4218375   -6.8722470  
N    0.1182679   -0.4569294   -6.4803227  
C   -1.1329637    0.9626137   -8.1325383  
C   -2.1980144    1.8366293   -8.2322452  
O   -2.5079139    2.3934022   -9.4392988  
C   -2.9740145    2.1631290   -7.0946870  
O   -3.9996123    3.0478985   -7.3567453  
C   -2.7060300    1.6302271   -5.8510126  
H    0.8082133   -0.8645296   -7.0851516  
H   -0.5527586    0.7270041   -9.0140443  
H   -3.2725772    2.9641893   -9.2884472  
H   -4.4738671    3.2153311   -6.5365914  
H   -3.3178583    1.8991236   -4.9978779  
H    0.6783875   -1.3793410   -4.6378776  
C    1.1319249    0.0015673   -0.8009268  
C    0.7969919    0.0034954   -2.1169403  
C   -0.6453335    0.0035697   -2.1842672  
C   -1.1266831    0.0015413   -0.7896029  
N    0.0000000    0.0000000    0.0000000  
C   -2.4346128    0.0013921   -0.4276299  
C   -3.4350109    0.0031346   -1.4820187  
O   -4.6384610    0.0030891   -1.2583924  
C   -2.9478954    0.0050451   -2.9661078  
O   -3.7809375    0.0062147   -3.8623779  
C   -1.5113818    0.0053061   -3.2312126  
H    1.4821242    0.0045430   -2.9459191  
H   -2.7664565    0.0000184    0.6013444  
H    2.1104318    0.0009428   -0.3488057  
C    0.8681109    0.7263879    2.2709268  
C    0.6127770    0.5096195    3.5869401  
C   -0.4920590   -0.4175482    3.6542670  
C   -0.8620974   -0.7254003    2.2596025  
N    0.0000000    0.0000000    1.4700000  
C   -1.8641242   -1.5660088    1.8976294  
C   -2.6293522   -2.2103885    2.9520183  
O   -3.5512764   -2.9839180    2.7283916  
C   -2.2549728   -1.8987399    4.4361073  
O   -2.8923672   -2.4351063    5.3323774  
C   -1.1543735   -0.9755647    4.7012123  
H    1.1382914    0.9492124    4.4159191  
H   -2.1192137   -1.7782617    0.8686553  
H   -0.9013378   -0.7652422    5.7314848  
H    1.6172880    1.3558399    1.8188057  
