46
5B 10B 27B 31A 32A 41B 13 16 30 44 42 43 7 4 4 2 3 4 2 1 3 0 nosym
C    4.7795901    0.0008674   -1.0815733  
C    5.8357360    0.0020741   -1.9630616  
C    7.0295750    0.0025512   -1.1824547  
C    6.6358520    0.0012980    0.1802289  
N    5.2632773    0.0022470    0.2058248  
C    7.5556553    0.0010562    1.2332014  
C    8.8973612    0.0017914    0.9045659  
O    9.8380075    0.0012447    1.8936042  
C    9.3099220    0.0034196   -0.4491726  
O   10.6798046    0.0044028   -0.6127733  
C    8.4030660    0.0039323   -1.4884696  
H    5.7555549    0.0036569   -3.0366359  
H    4.6982920   -0.0088488    1.0356739  
H    7.2620111    0.0002475    2.2738623  
H   10.6976506    0.0022149    1.4528342  
H   10.8735673    0.0054535   -1.5551419  
H    8.7489369    0.0053692   -2.5155283  
C    3.3321168    0.0004716   -1.3379341  
C    2.6974177    0.0000118   -2.5332316  
C    1.2800432   -0.0002116   -2.2052842  
C    1.2395033    0.0000644   -0.7271298  
N    2.4394059    0.0005460   -0.2131041  
C    0.0000000    0.0000000    0.0000000  
C   -1.1468704    0.0000635   -0.7169542  
O   -2.3742206    0.0000074   -0.1695488  
C   -1.1388774    0.0001608   -2.2096352  
O   -2.2206238    0.0000906   -2.7970409  
C    0.1454514    0.0001818   -2.9324241  
H    3.1367978   -0.0000649   -3.5160956  
H   -2.9844350    0.0001027   -0.9290164  
H    0.1083567    0.0003684   -4.0135594  
C    2.5128556    2.1077716    2.9199648  
C    1.9592212    1.6432552    4.0696553  
C    0.8915788    0.7479214    3.6910360  
C    0.8684491    0.7287414    2.2159470  
N    1.8754542    1.5738793    1.8102719  
C    0.0000000    0.0000000    1.4700000  
C   -0.9772830   -0.8200135    2.1664417  
O   -1.8021297   -1.5120829    1.5842315  
C   -0.9711318   -0.8147624    3.7284083  
O   -1.7894187   -1.5009653    4.3257297  
C    0.0140216    0.0115358    4.4216297  
H    2.2638494    1.8988021    5.0689105  
H    0.0117648    0.0094386    5.5031631  
H    3.3327358    2.7953732    2.7900019  
H    2.1123206    1.7707734    0.8551938  
