46
0A 1A 10B 31A 36B 16 11 15 45 43 2 3 4 2 7 3 0 2 0 nosym
C    5.7263111   -2.1250318   -4.6502146  
C    5.5046683   -1.6274764   -5.9134566  
C    4.3816203   -0.7525056   -5.8252013  
C    3.9566978   -0.7558948   -4.4719255  
N    4.7934588   -1.6010090   -3.7861918  
C    2.8699635   -0.0020528   -4.0185828  
C    2.2001692    0.7694967   -4.9482412  
O    1.1321258    1.5252427   -4.5594673  
C    2.6088027    0.7858186   -6.3030731  
O    1.8403276    1.6035674   -7.1056164  
C    3.6806352    0.0421765   -6.7510653  
H    6.0807973   -1.8666906   -6.7908654  
H    4.7423957   -1.7962902   -2.8027086  
H    0.8157799    1.9787966   -5.3516030  
H    2.1826911    1.5572102   -8.0035268  
H    3.9701834    0.0747322   -7.7948955  
H    6.4751266   -2.8133559   -4.2974511  
C    3.2573667   -0.0002919   -1.5109386  
C    2.5379468   -0.0001709   -0.3591965  
C    1.1435041    0.0000331   -0.7338500  
C    1.1092604   -0.0000084   -2.2088475  
N    2.4227558    0.0001908   -2.6182613  
C   -0.0265536   -0.0002526   -2.9515663  
C   -1.3003039   -0.0002641   -2.2514979  
O   -2.3786786   -0.0004135   -2.8306422  
C   -1.2877726    0.0000311   -0.6895607  
O   -2.3539957    0.0003306   -0.0892033  
C    0.0000000    0.0000000    0.0000000  
H    2.9384090   -0.0000368    0.6389236  
H   -0.0296296   -0.0004089   -4.0327231  
H    4.3270391   -0.0004765   -1.6439450  
C    2.3971438    2.0127888    3.1728260  
C    1.9431056    1.6308205    1.9564670  
C    0.8496017    0.7127664    2.2356185  
C    0.7794028    0.6545384    3.7115134  
N    1.6840587    1.4146091    4.2663826  
C   -0.1885723   -0.1578550    4.3957118  
C   -1.0476298   -0.8789867    3.6398520  
O   -2.0015663   -1.6796266    4.1448486  
C   -1.0022026   -0.8410666    2.1483229  
O   -1.8147390   -1.5232959    1.5241687  
C    0.0000000    0.0000000    1.4700000  
H    2.3054237    1.9346118    0.9892483  
H   -0.2170646   -0.1815267    5.4753125  
H   -2.4487139   -2.0549881    3.3649027  
H    3.2048689    2.6911772    3.3971983  
