48
4A 5B 27B 34A 43B 11 12 32 44 46 1 7 4 3 4 2 1 2 0 nosym
C   -3.9681725    0.7212990   -2.0574931  
C   -3.2578655    0.0024282   -2.9908505  
C   -4.2079360   -0.7248753   -3.7673781  
C   -5.4928369   -0.4070346   -3.2575411  
N   -5.3109864    0.4719585   -2.2188310  
C   -6.6702913   -0.9454248   -3.7852967  
C   -6.5484456   -1.8203808   -4.8472677  
O   -7.6659971   -2.3749223   -5.4009621  
C   -5.2751860   -2.1501405   -5.3696526  
O   -5.3203719   -3.0354628   -6.4267738  
C   -4.1131573   -1.6195933   -4.8493304  
H   -6.0450797    0.8815921   -1.6699340  
H   -7.6526021   -0.7073120   -3.4011487  
H   -7.3608081   -2.9468580   -6.1172119  
H   -4.4199386   -3.2051531   -6.7200813  
H   -3.1521009   -1.8909672   -5.2702880  
H   -3.6230945    1.3910577   -1.2885307  
C    0.0000000    0.0000000    0.0000000  
C    1.0521666   -0.0011982   -0.8862343  
C    0.4917215   -0.0011996   -2.1979132  
C   -0.9187429    0.0003215   -2.0478682  
N   -1.1833171   -0.0009323   -0.7007913  
C   -1.7951703    0.0010483   -3.1372089  
C   -1.2375841    0.0005313   -4.4010422  
O   -2.0474218    0.0015510   -5.4997578  
C    0.1673576   -0.0013585   -4.5711963  
O    0.5673520   -0.0020735   -5.8915554  
C    1.0325768   -0.0023493   -3.4969892  
H    2.0953056   -0.0030808   -0.6200564  
H   -2.0989778    0.0102529   -0.2891822  
H   -1.4634888    0.0006601   -6.2693595  
H    1.5290707   -0.0033271   -5.9180047  
H    2.1042146   -0.0039770   -3.6584456  
C    1.1319247   -0.0015655    2.2709268  
C    0.7969915   -0.0034943    3.5869401  
C   -0.6453339   -0.0035710    3.6542670  
C   -1.1266833   -0.0015433    2.2596025  
N    0.0000000    0.0000000    1.4700000  
C   -2.4346130   -0.0013964    1.8976294  
C   -3.4350110   -0.0031408    2.9520183  
O   -4.6384611   -0.0030974    2.7283916  
C   -2.9478959   -0.0050506    4.4361073  
O   -3.7809380   -0.0062218    5.3323774  
C   -1.5113823   -0.0053090    4.7012123  
H    1.4821238   -0.0045407    4.4159191  
H   -2.7664565   -0.0000232    0.8686553  
H   -1.1823530   -0.0068408    5.7314848  
H    2.1104316   -0.0009391    1.8188057  
