46
5B 10B 27B 31A 36B 13 16 29 45 43 7 4 4 2 7 2 1 2 0 nosym
C    4.7390840    0.0009613   -1.2727298  
C    5.7457113    0.0027392   -2.2103681  
C    6.9802492    0.0028875   -1.4958641  
C    6.6612408    0.0008545   -0.1137802  
N    5.2920916    0.0016753   -0.0135511  
C    7.6369656    0.0001119    0.8875938  
C    8.9588062    0.0011389    0.4864543  
O    9.9518660    0.0001281    1.4228548  
C    9.2971111    0.0035436   -0.8877222  
O   10.6560639    0.0047305   -1.1256044  
C    8.3350583    0.0045507   -1.8761451  
H    5.6072444    0.0049039   -3.2779895  
H    4.7730888   -0.0099225    0.8457991  
H    7.4003710   -0.0012919    1.9426879  
H   10.7862573    0.0014115    0.9359720  
H   10.7982740    0.0063140   -2.0771177  
H    8.6245422    0.0065795   -2.9204982  
C    3.2798077    0.0005856   -1.4499661  
C    2.5571132    0.0005565   -2.5996564  
C    1.1637425    0.0001547   -2.2210366  
C    1.1336959   -0.0000200   -0.7459475  
N    2.4483509   -0.0001429   -0.3402730  
C    0.0000000    0.0000000    0.0000000  
C   -1.2757370   -0.0000187   -0.6964411  
O   -2.3524597   -0.0000640   -0.1142306  
C   -1.2676502   -0.0000874   -2.2584078  
O   -2.3355774   -0.0004102   -2.8557287  
C    0.0181551    0.0001758   -2.9516297  
H    2.9547342    0.0006074   -3.5989118  
H    0.0150776    0.0003317   -4.0331632  
H    2.7563626    0.0012823    0.6148051  
C    2.3971438    2.0127888    3.1728260  
C    1.9431056    1.6308205    1.9564670  
C    0.8496017    0.7127664    2.2356185  
C    0.7794028    0.6545384    3.7115134  
N    1.6840587    1.4146091    4.2663826  
C   -0.1885723   -0.1578550    4.3957118  
C   -1.0476298   -0.8789867    3.6398520  
O   -2.0015663   -1.6796266    4.1448486  
C   -1.0022026   -0.8410666    2.1483229  
O   -1.8147390   -1.5232959    1.5241687  
C    0.0000000    0.0000000    1.4700000  
H    2.3054237    1.9346118    0.9892483  
H   -0.2170646   -0.1815267    5.4753125  
H   -2.4487139   -2.0549881    3.3649027  
H    3.2048689    2.6911772    3.3971983  
