48
5B 10B 17A 33A 37A 38B 13 16 32 46 47 45 7 4 2 2 1 7 2 1 3 0 nosym
C   -0.1387078    0.0017019   -4.3179684  
C    0.8680293    0.0011953   -5.2554904  
C    0.2429721    0.0018231   -6.5376379  
C   -1.1582728    0.0029977   -6.3175531  
N   -1.3554490    0.0009412   -4.9589749  
C   -2.0878504    0.0041704   -7.3619062  
C   -1.5938807    0.0044642   -8.6519335  
O   -2.4574181    0.0059475   -9.7089639  
C   -0.1991530    0.0029313   -8.8918278  
O    0.1346059    0.0030290  -10.2304649  
C    0.7184769    0.0015007   -7.8620318  
H    1.9231275   -0.0006419   -5.0415804  
H   -2.2494821    0.0117257   -4.5022806  
H   -3.1570794    0.0049249   -7.2008116  
H   -1.9125271    0.0055958  -10.5066850  
H    1.0938150    0.0019691  -10.3047650  
H    1.7807470    0.0001627   -8.0766453  
C    3.3041272    0.0001178   -1.5420428  
C    2.5845372   -0.0004779   -0.3695851  
C    1.2040007   -0.0000007   -0.7283589  
C    1.1422375    0.0006038   -2.1454371  
N    2.4348641    0.0026111   -2.6077464  
C   -0.0655179    0.0008799   -2.8497918  
C   -1.2321766    0.0002325   -2.1101402  
O   -2.4392816    0.0001148   -2.7472523  
C   -1.1911209   -0.0000007   -0.6955266  
O   -2.4371527   -0.0002320   -0.1032863  
C    0.0000000    0.0000000    0.0000000  
H    3.0031533   -0.0000660    0.6222584  
H    2.7054632   -0.0071097   -3.5745261  
H   -3.1132986   -0.0000648   -2.0551788  
H   -2.3200284   -0.0004071    0.8516409  
H    4.3686626    0.0004072   -1.7024289  
C    2.4951002    2.0940188    2.9809380  
C    1.9440701    1.6314916    1.8291961  
C    0.8759964    0.7350050    2.2038498  
C    0.8497377    0.7130254    3.6788474  
N    1.8560616    1.5571714    4.0882609  
C   -0.0205033   -0.0168748    4.4215661  
C   -0.9962600   -0.8356168    3.7214979  
O   -1.8224391   -1.5286685    4.3006425  
C   -0.9864710   -0.8277881    2.1595606  
O   -1.8030528   -1.5133726    1.5592035  
C    0.0000000    0.0000000    1.4700000  
H    2.2509283    1.8888011    0.8310761  
H   -0.0229599   -0.0187323    5.5027230  
H    3.3143982    2.7817323    3.1139444  
H    2.0889452    1.7545833    5.0442112  
