48
4A 5B 22B 31A 32A 41B 11 12 29 47 42 46 1 7 7 2 3 4 2 1 3 0 nosym
C    3.4563079   -0.7177417   -2.8470538  
C    2.5562217   -0.0001540   -3.6003003  
C    3.3099816    0.7271500   -4.5685328  
C    4.6761867    0.4106317   -4.3558684  
N    4.7297758   -0.4676073   -3.3020935  
C    5.7069651    0.9493908   -5.1317706  
C    5.3520782    1.8233625   -6.1409315  
O    6.3186809    2.3782094   -6.9288650  
C    3.9944347    2.1517972   -6.3684194  
O    3.8034928    3.0362551   -7.4098694  
C    2.9770447    1.6208856   -5.6031892  
H    5.5676005   -0.8762671   -2.9292287  
H    6.7501830    0.7122842   -4.9746755  
H    5.8618763    2.9493267   -7.5600694  
H    2.8603050    3.2050728   -7.4964789  
H    1.9463678    1.8912367   -5.8009109  
H    3.2907746   -1.3870880   -2.0202932  
C    0.0000000    0.0000000    0.0000000  
C    1.0541688   -0.0001718   -0.8560391  
C    0.5103141   -0.0000448   -2.1935955  
C   -0.9576367    0.0002462   -2.0455732  
N   -1.2018459   -0.0001391   -0.6915971  
C   -1.8348307    0.0008319   -3.0810611  
C   -1.2972843    0.0009743   -4.4314607  
O   -2.0050666    0.0014272   -5.4301322  
C    0.2542627    0.0004194   -4.6117573  
O    0.7184676    0.0002268   -5.7439121  
C    1.0974555    0.0000882   -3.4189128  
H    2.0940752   -0.0005478   -0.5817980  
H   -2.9081051    0.0011669   -2.9507063  
H   -2.1128195    0.0014909   -0.2706793  
C    3.3003543   -0.0005276    2.9438989  
C    2.5232812   -0.0003497    4.0790748  
C    1.1623199    0.0001319    3.6520102  
C    1.1711883   -0.0000583    2.2336141  
N    2.4852299    0.0014920    1.8362361  
C    0.0000000    0.0000000    1.4700000  
C   -1.2020384   -0.0000520    2.1506477  
O   -2.3759250   -0.0003494    1.4542253  
C   -1.2314658    0.0005113    3.5655508  
O   -2.5054393    0.0008037    4.0950179  
C   -0.0764518    0.0007272    4.3195194  
H    2.8919952    0.0005619    5.0905303  
H    2.8036267   -0.0088181    0.8841339  
H   -3.0835639   -0.0000348    2.1118817  
H   -2.4360050    0.0011527    5.0545920  
H   -0.1304098    0.0013421    5.4019087  
H    4.3715549   -0.0004895    2.8367138  
