46
5B 10B 27B 35A 36B 13 16 30 45 42 7 4 4 1 7 2 1 2 0 nosym
C   -3.3460096   -0.0004265   -2.7913646  
C   -4.0351702    0.0002975   -1.6007663  
C   -5.4244873    0.0000966   -1.9238723  
C   -5.5227199   -0.0010536   -3.3388900  
N   -4.2424270    0.0006061   -3.8343331  
C   -6.7482123   -0.0018514   -4.0119107  
C   -7.8954377   -0.0017883   -3.2424625  
O   -9.1185480   -0.0028970   -3.8482791  
C   -7.8179689   -0.0002734   -1.8293760  
O   -9.0483375    0.0000108   -1.2052466  
C   -6.6093336    0.0007875   -1.1647523  
H   -3.5911529    0.0020019   -0.6200324  
H   -3.9968103   -0.0102582   -4.8077478  
H   -6.8298400   -0.0025852   -5.0901217  
H   -9.7745212   -0.0023403   -3.1390794  
H   -8.9066633    0.0010310   -0.2536526  
H   -6.5814276    0.0021213   -0.0813789  
C    0.0000000    0.0000000    0.0000000  
C    1.0662919   -0.0000103   -0.8334269  
C    0.4961869    0.0000064   -2.1718889  
C   -0.9663859   -0.0000850   -1.9540246  
N   -1.2632774   -0.0000084   -0.6828657  
C   -1.8985363   -0.0000518   -3.0477257  
C   -1.3925778    0.0004564   -4.3020545  
O   -2.1456384    0.0005409   -5.4151311  
C    0.0786230    0.0009323   -4.5544998  
O    0.4683758    0.0012588   -5.7221098  
C    1.0143164    0.0008442   -3.4159030  
H    2.1107195    0.0000633   -0.5721867  
H   -1.5042275    0.0009691   -6.1484418  
H    2.0724152    0.0013148   -3.6409744  
C    1.0965515   -0.0001358    2.2710304  
C    0.0000000    0.0000000    1.4700000  
C   -1.1546562   -0.0001469    2.3369512  
C   -0.6372014   -0.0003519    3.7186280  
N    0.7342871   -0.0007337    3.6095011  
C   -1.4147739   -0.0001353    4.8308716  
C   -2.8576048    0.0001048    4.6554461  
O   -3.6427778    0.0002493    5.5944904  
C   -3.4275839    0.0000726    3.2011665  
O   -4.6406829   -0.0000333    3.0410059  
C   -2.4891866    0.0001091    2.0816745  
H   -1.0150448   -0.0001615    5.8354244  
H   -2.8919121    0.0002919    1.0779135  
H    2.1388271   -0.0000662    1.9961646  
H    1.3735872    0.0006099    4.3830260  
