50
37A 38B 5A 16A 20B 21B 44 45 13 32 28 29 1 7 7 2 1 7 2 1 3 0 nosym
C    3.3041269    0.0001177   -1.5420434  
C    2.5845370   -0.0004780   -0.3695856  
C    1.2040006   -0.0000007   -0.7283591  
C    1.1422372    0.0006038   -2.1454374  
N    2.4348634    0.0026110   -2.6077469  
C   -0.0655187    0.0008799   -2.8497915  
C   -1.2321772    0.0002326   -2.1101397  
O   -2.4392820    0.0001149   -2.7472517  
C   -1.1911209   -0.0000007   -0.6955263  
O   -2.4371523   -0.0002319   -0.1032858  
C    0.0000000    0.0000000    0.0000000  
H    3.0031535   -0.0000661    0.6222578  
H    2.7054623   -0.0071098   -3.5745264  
H   -0.1193555    0.0014846   -3.9297470  
H   -3.1132995   -0.0000646   -2.0551782  
H   -2.3200286   -0.0004070    0.8516413  
C    6.7748111   -0.0036707    1.2764664  
C    5.5082317   -0.0035546    0.7395821  
C    5.6573263   -0.0010105   -0.6789963  
C    7.0493884    0.0000630   -0.9511883  
N    7.6991164    0.0003496    0.2581384  
C    7.5659486    0.0022522   -2.2503994  
C    6.6607403    0.0030711   -3.2938433  
O    7.1109048    0.0048475   -4.5823935  
C    5.2680305    0.0023991   -3.0424940  
O    4.4967632    0.0037871   -4.1863859  
C    4.7577216    0.0005129   -1.7610467  
H    4.5898238   -0.0040067    1.3012931  
H    8.6954216   -0.0094975    0.3816704  
H    8.6258305    0.0032239   -2.4645281  
H    6.3261386    0.0054439   -5.1457821  
H    3.5699423    0.0031881   -3.9283025  
H    7.0920039   -0.0048576    2.3052260  
C    0.8576279    0.7185626    2.2703808  
C    0.0000000    0.0000000    1.4700000  
C   -0.8668858   -0.7285659    2.3373528  
C   -0.4876752   -0.4117774    3.6669281  
N    0.5635254    0.4678311    3.5902241  
C   -1.1297612   -0.9515493    4.7854808  
C   -2.1738724   -1.8268314    4.5576857  
O   -2.8357962   -2.3827064    5.6140350  
C   -2.5667212   -2.1555554    3.2384331  
O   -3.6226318   -3.0413663    3.1773122  
C   -1.9335634   -1.6236449    2.1344818  
H    1.0363952    0.8769718    4.3757045  
H   -0.8454472   -0.7142436    5.8013813  
H   -3.5178062   -2.9546422    5.2385129  
H   -3.8247440   -3.2102924    2.2519915  
H   -2.2566033   -1.8942483    1.1360343  
H    1.6567807    1.3889844    2.0042067  
