46
4A 5B 22B 36B 11 12 29 42 1 7 7 7 2 1 1 0 nosym
C    5.5836006   -0.0003157   -1.0808169  
C    4.5679461   -0.0016854   -2.0086701  
C    5.1807166   -0.0020961   -3.2967354  
C    6.5840017   -0.0012107   -3.0900579  
N    6.7941553    0.0018107   -1.7334283  
C    7.5035528   -0.0016221   -4.1432508  
C    6.9972721   -0.0032586   -5.4284959  
O    7.8506656   -0.0040788   -6.4937345  
C    5.6003143   -0.0037867   -5.6550440  
O    5.2537722   -0.0050290   -6.9904282  
C    4.6925710   -0.0031081   -4.6165223  
H    7.6925282   -0.0074987   -1.2852981  
H    8.5742733   -0.0008082   -3.9923871  
H    7.2981727   -0.0048903   -7.2862087  
H    4.2938960   -0.0053405   -7.0555540  
H    3.6282967   -0.0033562   -4.8209687  
H    5.5402818    0.0007586   -0.0051398  
C    3.1301149   -0.0010311   -1.7028252  
C    2.5367768   -0.0002767   -0.4864665  
C    1.1089904    0.0001028   -0.7656183  
C    1.0177872   -0.0004148   -2.2415132  
N    2.1993578   -0.0011611   -2.7963820  
C   -0.2459209   -0.0002877   -2.9257118  
C   -1.3675319   -0.0000605   -2.1698524  
O   -2.6129313    0.0000867   -2.6748490  
C   -1.3083584    0.0000910   -0.6783232  
O   -2.3693261    0.0004206   -0.0541692  
C    0.0000000    0.0000000    0.0000000  
H    3.0096017   -0.0001007    0.4807525  
H   -0.2829630   -0.0004687   -4.0053125  
H   -3.1967441    0.0002094   -1.8949034  
C    0.8175213    0.6860729    2.3021913  
C    0.0000000    0.0000000    1.4700000  
C   -0.8887526   -0.7456559    2.3478473  
C   -0.4549825   -0.3816753    3.7138435  
N    0.5448156    0.4573574    3.6934124  
C   -1.0945674   -0.9182058    4.8835240  
C   -2.1210866   -1.7789155    4.6970523  
O   -2.8083856   -2.3554314    5.6976972  
C   -2.5824069   -2.1655116    3.3310774  
O   -3.5227682   -2.9541547    3.2362962  
C   -1.9100805   -1.6015804    2.1470656  
H   -0.7567140   -0.6349833    5.8697035  
H   -3.4728268   -2.9124471    5.2533954  
H   -2.2742832   -1.9066565    1.1752040  
H    1.6189533    1.3585343    2.0405121  
