48
4A 5B 33A 37A 38B 11 12 46 47 45 1 7 2 1 7 2 0 3 0 nosym
C    0.1067692   -0.7134240   -5.1553160  
C   -0.9736297    0.0040464   -4.6965763  
C   -1.4915497    0.7330071   -5.8078705  
C   -0.6796782    0.4175740   -6.9273759  
N    0.2823082   -0.4616415   -6.4958906  
C   -0.9002251    0.9580644   -8.1978164  
C   -1.9598363    1.8326844   -8.3407931  
O   -2.2203364    2.3892131   -9.5595751  
C   -2.7809937    2.1600557   -7.2356489  
O   -3.7946135    3.0453483   -7.5392537  
C   -2.5638404    1.6274365   -5.9819797  
H    0.9958930   -0.8698719   -7.0721943  
H   -0.2849988    0.7217916   -9.0550637  
H   -2.9901226    2.9605134   -9.4399527  
H   -4.3015377    3.2133583   -6.7390010  
H   -3.2094966    1.8970049   -5.1543693  
H    0.7669092   -1.3837327   -4.6319993  
C    1.1188642    0.0008222   -0.8003808  
C    0.0000000    0.0000000    0.0000000  
C   -1.1323862    0.0008899   -0.8673528  
C   -0.6382663    0.0019679   -2.1969280  
N    0.7324016    0.0038481   -2.1202242  
C   -1.4770914    0.0027318   -3.3154808  
C   -2.8395473    0.0020945   -3.0876857  
O   -3.7039201    0.0024425   -4.1440349  
C   -3.3517868    0.0013931   -1.7684331  
O   -4.7300497    0.0012366   -1.7073121  
C   -2.5248543    0.0009123   -0.6644817  
H    1.3576314   -0.0056167   -2.9057046  
H   -4.5940032    0.0021826   -3.7685128  
H   -4.9934602    0.0007259   -0.7819913  
H   -2.9462577    0.0005603    0.3339659  
H    2.1619895    0.0009355   -0.5342068  
C    2.4951002    2.0940188    2.9809380  
C    1.9440701    1.6314916    1.8291961  
C    0.8759964    0.7350050    2.2038498  
C    0.8497377    0.7130254    3.6788474  
N    1.8560616    1.5571714    4.0882609  
C   -0.0205033   -0.0168748    4.4215661  
C   -0.9962600   -0.8356168    3.7214979  
O   -1.8224391   -1.5286685    4.3006425  
C   -0.9864710   -0.8277881    2.1595606  
O   -1.8030528   -1.5133726    1.5592035  
C    0.0000000    0.0000000    1.4700000  
H    2.2509283    1.8888011    0.8310761  
H   -0.0229599   -0.0187323    5.5027230  
H    3.3143982    2.7817323    3.1139444  
H    2.0889452    1.7545833    5.0442112  
