46
0A 1A 10B 27B 31A 32A 41B 16 11 15 29 45 42 44 2 3 4 4 2 3 4 3 1 3 0 nosym
C   -4.4516594    2.1220212   -0.2154633  
C   -5.6505107    1.6231920   -0.6697672  
C   -5.3525998    0.7489273   -1.7567402  
C   -3.9437154    0.7540403   -1.9208883  
N   -3.4276990    1.5994578   -0.9703020  
C   -3.2941076    0.0012878   -2.9038237  
C   -4.0810733   -0.7709245   -3.7360201  
O   -3.4983892   -1.5256626   -4.7126798  
C   -5.4884225   -0.7889630   -3.5881687  
O   -6.1319964   -1.6071808   -4.4935274  
C   -6.1299739   -0.0463964   -2.6188736  
H   -6.6205216    1.8611259   -0.2679466  
H   -2.4522686    1.7958519   -0.8363405  
H   -4.2167867   -1.9799191   -5.1718316  
H   -7.0781689   -1.5620001   -4.3252418  
H   -7.2095096   -0.0802611   -2.5298046  
H   -4.2460849    2.8103289    0.5863655  
C    0.0000000    0.0000000    0.0000000  
C    1.0541688   -0.0001723   -0.8560392  
C    0.5103136   -0.0000455   -2.1935956  
C   -0.9576373    0.0002461   -2.0455730  
N   -1.2018460   -0.0001389   -0.6915968  
C   -1.8348314    0.0008319   -3.0810607  
C   -1.2972851    0.0009739   -4.4314603  
O   -2.0050676    0.0014268   -5.4301316  
C    0.2542619    0.0004184   -4.6117572  
O    0.7184666    0.0002257   -5.7439122  
C    1.0974551    0.0000873   -3.4189129  
H    2.0940752   -0.0005484   -0.5817983  
H    2.1707276   -0.0000912   -3.5523673  
H   -2.1128194    0.0014915   -0.2706789  
C    3.3321173   -0.0004715    2.8079335  
C    2.6974184   -0.0000116    4.0032312  
C    1.2800439    0.0002118    3.6752840  
C    1.2395035   -0.0000644    2.1971295  
N    2.4394063   -0.0005460    1.6831036  
C    0.0000000    0.0000000    1.4700000  
C   -1.1468701   -0.0000635    2.1869543  
O   -2.3742202   -0.0000073    1.6395491  
C   -1.1388768   -0.0001607    3.6796354  
O   -2.2206231   -0.0000905    4.2670412  
C    0.1454524   -0.0001816    4.4024240  
H    3.1367986    0.0000651    4.9860947  
H   -2.9844344   -0.0001026    2.3990168  
H    0.1083576   -0.0003682    5.4835595  
H    4.3940039   -0.0007619    2.6198634  
