48
4A 5B 31A 32A 41B 11 12 47 42 46 1 7 2 3 4 2 0 3 0 nosym
C    4.4076293   -0.7178010   -4.2555580  
C    3.2973504   -0.0000931   -3.8752375  
C    2.8592410    0.7274892   -5.0212237  
C    3.7483539    0.4110089   -6.0801119  
N    4.6775493   -0.4674764   -5.5806352  
C    3.6181674    0.9500184   -7.3635875  
C    2.5711767    1.8242066   -7.5821820  
O    2.3974785    2.3793024   -8.8169743  
C    1.6738148    2.1526069   -6.5382899  
O    0.6840654    3.0372992   -6.9138672  
C    1.8018023    1.6214484   -5.2717924  
H    5.4301988   -0.8761702   -6.1045335  
H    4.2925555    0.7129424   -8.1748806  
H    1.6210567    2.9505396   -8.7527744  
H    0.1217530    3.2060765   -6.1516843  
H    1.0991518    1.8917795   -4.4922531  
H    5.0291998   -1.3873538   -3.6860777  
C    3.3321173    0.0004715   -1.3379333  
C    2.6974184    0.0000117   -2.5332310  
C    1.2800439   -0.0002118   -2.2052839  
C    1.2395035    0.0000643   -0.7271293  
N    2.4394063    0.0005460   -0.2131035  
C    0.0000000    0.0000000    0.0000000  
C   -1.1468702    0.0000634   -0.7169541  
O   -2.3742202    0.0000072   -0.1695491  
C   -1.1388767    0.0001606   -2.2096353  
O   -2.2206230    0.0000901   -2.7970412  
C    0.1454525    0.0001815   -2.9324239  
H   -2.9844345    0.0001024   -0.9290167  
H    0.1083577    0.0003682   -4.0135594  
H    4.3940039    0.0007620   -1.1498632  
C    2.5285572    2.1210227    2.9438989  
C    1.9331703    1.6216660    4.0790748  
C    0.8903039    0.7472258    3.6520102  
C    0.8972198    0.7527806    2.2336141  
N    1.9028376    1.5986179    1.8362361  
C    0.0000000    0.0000000    1.4700000  
C   -0.9207814   -0.7726952    2.1506477  
O   -1.8198395   -1.5274828    1.4542253  
C   -0.9436862   -0.7911793    3.5655508  
O   -1.9197945   -1.6098497    4.0950179  
C   -0.0590329   -0.0485852    4.3195194  
H    2.2150357    1.8593692    5.0905303  
H    2.1533708    1.7953814    0.8841339  
H   -2.3621246   -1.9821033    2.1118817  
H   -1.8668290   -1.5649508    5.0545920  
H   -0.1007624   -0.0827977    5.4019087  
H    3.3491200    2.8096064    2.8367138  
