48
1A 10B 22B 31A 35A 36B 11 15 29 47 43 44 3 4 7 2 1 7 2 1 3 0 nosym
C    3.4087107   -0.7064436   -3.0324169  
C    4.6439233   -0.4554586   -3.5835284  
C    4.4407876    0.4527125   -4.6645285  
C    3.0496391    0.7227526   -4.7254374  
N    2.4521485    0.0014830   -3.7217479  
C    2.4867670    1.5814353   -5.6744518  
C    3.3439027    2.1786250   -6.5782552  
O    2.8473368    3.0261782   -7.5259303  
C    4.7348369    1.9214475   -6.5337629  
O    5.4551847    2.5913536   -7.5010632  
C    5.2907837    1.0742382   -5.5979825  
H    5.5765057   -0.8761479   -3.2484096  
H    1.4272946    1.7912867   -5.7262423  
H    3.6036632    3.3276080   -8.0459072  
H    6.3843611    2.3627320   -7.4012286  
H    6.3597906    0.8964356   -5.5885594  
H    3.1341698   -1.3355408   -2.2030662  
C    0.0000000    0.0000000    0.0000000  
C    1.0662923   -0.0000105   -0.8334269  
C    0.4961874    0.0000060   -2.1718887  
C   -0.9663853   -0.0000854   -1.9540249  
N   -1.2632772   -0.0000086   -0.6828660  
C   -1.8985357   -0.0000523   -3.0477261  
C   -1.3925768    0.0004559   -4.3020546  
O   -2.1456376    0.0005405   -5.4151317  
C    0.0786242    0.0009317   -4.5545000  
O    0.4683768    0.0012580   -5.7221103  
C    1.0143173    0.0008436   -3.4159030  
H    2.1107200    0.0000630   -0.5721863  
H   -2.9622180   -0.0003275   -2.8593382  
H   -1.5042263    0.0009682   -6.1484421  
C    3.3041272   -0.0001177    3.0120429  
C    2.5845372    0.0004780    1.8395852  
C    1.2040006    0.0000008    2.1983588  
C    1.1422373   -0.0006037    3.6154372  
N    2.4348639   -0.0026109    4.0777464  
C   -0.0655181   -0.0008797    4.3197917  
C   -1.2321768   -0.0002324    3.5801400  
O   -2.4392816   -0.0001146    4.2172520  
C   -1.1911209    0.0000007    2.1655264  
O   -2.4371527    0.0002320    1.5732860  
C    0.0000000    0.0000000    1.4700000  
H    3.0031534    0.0000661    0.8477417  
H    2.7054629    0.0071099    5.0445261  
H   -0.1193549   -0.0014844    5.3997470  
H   -3.1132988    0.0000648    3.5251786  
H   -2.3200282    0.0004071    0.6183591  
H    4.3686625   -0.0004071    3.1724291  
