48
4A 5B 31A 35A 36B 11 12 47 43 44 1 7 2 1 7 2 0 3 0 nosym
C    3.9304935   -0.7213446   -4.5189455  
C    2.8699635   -0.0020528   -4.0185828  
C    2.3079767    0.7246913   -5.1097353  
C    3.0737263    0.4060911   -6.2604077  
N    4.0518377   -0.4727966   -5.8661085  
C    2.8023199    0.9437871   -7.5221565  
C    1.7383267    1.8188173   -7.6242267  
O    1.4290978    2.3726998   -8.8327813  
C    0.9627248    2.1493291   -6.4875559  
O   -0.0618031    3.0346268   -6.7520061  
C    1.2300674    1.6194674   -5.2424453  
H    4.7412882   -0.8828644   -6.4698327  
H    3.3822376    0.7050939   -8.4030219  
H    0.6651259    2.9448170   -8.6834744  
H   -0.5358532    3.2048493   -5.9323082  
H    0.6185667    1.8914091   -4.3900412  
H    4.6108457   -1.3909010   -4.0211761  
C    3.2573667   -0.0002919   -1.5109386  
C    2.5379468   -0.0001709   -0.3591965  
C    1.1435041    0.0000331   -0.7338500  
C    1.1092604   -0.0000084   -2.2088475  
N    2.4227558    0.0001908   -2.6182613  
C   -0.0265536   -0.0002526   -2.9515663  
C   -1.3003039   -0.0002641   -2.2514979  
O   -2.3786786   -0.0004135   -2.8306422  
C   -1.2877726    0.0000311   -0.6895607  
O   -2.3539957    0.0003306   -0.0892033  
C    0.0000000    0.0000000    0.0000000  
H    2.9384090   -0.0000368    0.6389236  
H   -0.0296296   -0.0004089   -4.0327231  
H    4.3270391   -0.0004765   -1.6439450  
C    2.5311839    2.1237619    3.0120429  
C    1.9795631    1.6616747    1.8395852  
C    0.9223175    0.7739173    2.1983588  
C    0.8753926    0.7337535    3.6154372  
N    1.8668922    1.5631002    4.0777464  
C   -0.0496243   -0.0427881    4.3197917  
C   -0.9437528   -0.7922060    3.5801400  
O   -1.8685244   -1.5680278    4.2172520  
C   -0.9124520   -0.7656372    2.1655264  
O   -1.8671164   -1.5663939    1.5732860  
C    0.0000000    0.0000000    1.4700000  
H    2.3005065    1.9304404    0.8477417  
H    2.0679347    1.7444845    5.0445261  
H   -0.0904770   -0.0778569    5.3997470  
H   -2.3849669   -2.0011402    3.5251786  
H   -1.7775064   -1.4909735    0.6183591  
H    3.3468514    2.8078103    3.1724291  
