46
5B 10B 22B 36B 41B 13 16 29 43 44 7 4 7 7 4 2 1 2 0 nosym
C    2.4521484    0.0014841   -3.7217480  
C    3.5379003    0.0014491   -2.8769937  
C    4.7042702    0.0016044   -3.6980792  
C    4.2640502    0.0020179   -5.0464608  
N    2.8914065   -0.0000176   -5.0249744  
C    5.1472052    0.0025710   -6.1303544  
C    6.4993918    0.0030162   -5.8479204  
O    7.4055695    0.0039155   -6.8686328  
C    6.9581315    0.0022388   -4.5091247  
O    8.3328179    0.0023938   -4.3925941  
C    6.0874476    0.0014197   -3.4393419  
H    3.4945813    0.0002215   -1.8013009  
H    2.2982886    0.0103118   -5.8349657  
H    4.8180487    0.0027441   -7.1603347  
H    8.2798217    0.0037912   -6.4575996  
H    8.5587827    0.0018622   -3.4574238  
H    6.4683340    0.0006541   -2.4247469  
C    0.0000000    0.0000000    0.0000000  
C    1.0662924   -0.0000101   -0.8334268  
C    0.4961874    0.0000066   -2.1718888  
C   -0.9663853   -0.0000848   -1.9540251  
N   -1.2632772   -0.0000083   -0.6828659  
C   -1.8985358   -0.0000514   -3.0477261  
C   -1.3925768    0.0004568   -4.3020545  
O   -2.1456376    0.0005413   -5.4151313  
C    0.0786241    0.0009326   -4.5545000  
O    0.4683768    0.0012593   -5.7221102  
C    1.0143172    0.0008444   -3.4159030  
H    2.1107200    0.0000634   -0.5721863  
H   -2.9622180   -0.0003268   -2.8593381  
H   -1.5042264    0.0009696   -6.1484423  
C    0.0000000    0.0000000    1.4700000  
C    1.0541688    0.0001722    2.3260392  
C    0.5103138    0.0000454    3.6635956  
C   -0.9576371   -0.0002459    3.5155732  
N   -1.2018458    0.0001392    2.1615969  
C   -1.8348311   -0.0008317    4.5510609  
C   -1.2972847   -0.0009736    5.9014604  
O   -2.0050672   -0.0014265    6.9001319  
C    0.2542623   -0.0004184    6.0817573  
O    0.7184670   -0.0002256    7.2139121  
C    1.0974552   -0.0000873    4.8889129  
H    2.0940752    0.0005483    2.0517982  
H   -2.9081052   -0.0011668    4.4207061  
H    2.1707277    0.0000911    5.0223670  
H   -2.1128194   -0.0014912    1.7406791  
