46
5B 10B 31A 35A 36B 13 16 44 45 43 7 4 2 1 7 2 0 3 0 nosym
C    1.7334696    0.0049245   -3.2500362  
C    3.1090793    0.0045671   -3.2628649  
C    3.5126985    0.0058536   -4.6309622  
C    2.3299041    0.0072577   -5.4138552  
N    1.2677986    0.0046985   -4.5440606  
C    2.3483170    0.0090624   -6.8118705  
C    3.5832502    0.0097639   -7.4308350  
O    3.6589625    0.0118693   -8.7936541  
C    4.7745982    0.0080110   -6.6669608  
O    5.9240672    0.0085724   -7.4298910  
C    4.7571873    0.0059569   -5.2877513  
H    3.7435755    0.0024041   -2.3931507  
H    0.2997685    0.0155020   -4.8101093  
H    1.4503949    0.0099948   -7.4143135  
H    4.5993491    0.0117154   -9.0148740  
H    6.6822245    0.0073245   -6.8376075  
H    5.6860792    0.0044642   -4.7295077  
C    1.1319246    0.0015655   -0.8009268  
C    0.7969915    0.0034942   -2.1169401  
C   -0.6453340    0.0035709   -2.1842669  
C   -1.1266832    0.0015433   -0.7896025  
N    0.0000000    0.0000000    0.0000000  
C   -2.4346130    0.0013964   -0.4276293  
C   -3.4350112    0.0031409   -1.4820183  
O   -4.6384613    0.0030974   -1.2583915  
C   -2.9478958    0.0050505   -2.9661074  
O   -3.7809383    0.0062217   -3.8623776  
C   -1.5113824    0.0053089   -3.2312122  
H   -2.7664564    0.0000233    0.6013448  
H   -1.1823530    0.0068406   -4.2614847  
H    2.1104315    0.0009390   -0.3488058  
C    2.4951002    2.0940188    2.9809380  
C    1.9440701    1.6314916    1.8291961  
C    0.8759964    0.7350050    2.2038498  
C    0.8497377    0.7130254    3.6788474  
N    1.8560616    1.5571714    4.0882609  
C   -0.0205033   -0.0168748    4.4215661  
C   -0.9962600   -0.8356168    3.7214979  
O   -1.8224391   -1.5286685    4.3006425  
C   -0.9864710   -0.8277881    2.1595606  
O   -1.8030528   -1.5133726    1.5592035  
C    0.0000000    0.0000000    1.4700000  
H    2.2509283    1.8888011    0.8310761  
H   -0.0229599   -0.0187323    5.5027230  
H    3.3143982    2.7817323    3.1139444  
H    2.0889452    1.7545833    5.0442112  
