46
1A 10B 36B 11 15 42 3 4 7 2 0 1 0 nosym
C    4.4176665   -0.7085316   -4.2417829  
C    4.7001260   -0.4581803   -5.5646620  
C    3.7072550    0.4501167   -6.0377405  
C    2.8385605    0.7208836   -4.9496310  
N    3.2973504   -0.0000931   -3.8752375  
C    1.7403925    1.5798775   -5.0542519  
C    1.5152389    2.1766372   -6.2795527  
O    0.4572121    3.0244670   -6.4369578  
C    2.3705457    1.9187335   -7.3771653  
O    2.0135222    2.5882814   -8.5293734  
C    3.4539441    1.0712166   -7.2747500  
H    5.5201900   -0.8793625   -6.1206243  
H    1.0744465    1.7902824   -4.2287537  
H    0.4827203    3.3255122   -7.3545556  
H    2.6415226    2.3591734   -9.2212755  
H    4.0912830    0.8928563   -8.1329255  
H    4.9258723   -1.3375011   -3.5310909  
C    3.3321173    0.0004715   -1.3379333  
C    2.6974184    0.0000117   -2.5332310  
C    1.2800439   -0.0002118   -2.2052839  
C    1.2395035    0.0000643   -0.7271293  
N    2.4394063    0.0005460   -0.2131035  
C    0.0000000    0.0000000    0.0000000  
C   -1.1468702    0.0000634   -0.7169541  
O   -2.3742202    0.0000072   -0.1695491  
C   -1.1388767    0.0001606   -2.2096353  
O   -2.2206230    0.0000901   -2.7970412  
C    0.1454525    0.0001815   -2.9324239  
H   -2.9844345    0.0001024   -0.9290167  
H    0.1083577    0.0003682   -4.0135594  
H    4.3940039    0.0007620   -1.1498632  
C    0.8175213    0.6860729    2.3021913  
C    0.0000000    0.0000000    1.4700000  
C   -0.8887526   -0.7456559    2.3478473  
C   -0.4549825   -0.3816753    3.7138435  
N    0.5448156    0.4573574    3.6934124  
C   -1.0945674   -0.9182058    4.8835240  
C   -2.1210866   -1.7789155    4.6970523  
O   -2.8083856   -2.3554314    5.6976972  
C   -2.5824069   -2.1655116    3.3310774  
O   -3.5227682   -2.9541547    3.2362962  
C   -1.9100805   -1.6015804    2.1470656  
H   -0.7567140   -0.6349833    5.8697035  
H   -3.4728268   -2.9124471    5.2533954  
H   -2.2742832   -1.9066565    1.1752040  
H    1.6189533    1.3585343    2.0405121  
