46
0A 1A 10B 22B 31A 35A 36B 16 11 15 29 44 45 43 2 3 4 7 2 1 7 3 1 3 0 nosym
C    4.4211035   -2.1170479   -1.5538550  
C    5.4072743   -1.6176329   -2.3727071  
C    4.7720748   -0.7441419   -3.3044444  
C    3.3861602   -0.7503087   -3.0025678  
N    3.2071930   -1.5955831   -1.9357502  
C    2.4521485    0.0014830   -3.7217479  
C    2.9258795    0.7738005   -4.7644765  
O    2.0572053    1.5276268   -5.4994354  
C    4.3050436    0.7928831   -5.0812732  
O    4.6193641    1.6110693   -6.1466918  
C    5.2270000    0.0512646   -4.3723841  
H    6.4553776   -1.8546901   -2.3073025  
H    2.3281654   -1.7925772   -1.4924844  
H    2.5873808    1.9821368   -6.1669682  
H    5.5689851    1.5666267   -6.2945044  
H    6.2770004    0.0859176   -4.6384213  
H    4.4873861   -2.8050772   -0.7285186  
C    0.0000000    0.0000000    0.0000000  
C    1.0662923   -0.0000105   -0.8334269  
C    0.4961874    0.0000060   -2.1718887  
C   -0.9663853   -0.0000854   -1.9540249  
N   -1.2632772   -0.0000086   -0.6828660  
C   -1.8985357   -0.0000523   -3.0477261  
C   -1.3925768    0.0004559   -4.3020546  
O   -2.1456376    0.0005405   -5.4151317  
C    0.0786242    0.0009317   -4.5545000  
O    0.4683768    0.0012580   -5.7221103  
C    1.0143173    0.0008436   -3.4159030  
H    2.1107200    0.0000630   -0.5721863  
H   -2.9622180   -0.0003275   -2.8593382  
H   -1.5042263    0.0009682   -6.1484421  
C    3.2573670    0.0002920    2.9809380  
C    2.5379467    0.0001709    1.8291961  
C    1.1435042   -0.0000331    2.2038498  
C    1.1092607    0.0000083    3.6788474  
N    2.4227561   -0.0001909    4.0882609  
C   -0.0265533    0.0002524    4.4215661  
C   -1.3003036    0.0002640    3.7214979  
O   -2.3786784    0.0004133    4.3006425  
C   -1.2877726   -0.0000311    2.1595606  
O   -2.3539958   -0.0003306    1.5592035  
C    0.0000000    0.0000000    1.4700000  
H    2.9384090    0.0000368    0.8310761  
H   -0.0296291    0.0004086    5.5027230  
H    4.3270393    0.0004765    3.1139444  
H    2.7280493    0.0013407    5.0442112  
