46
1A 10B 17A 31A 32A 41B 11 15 30 44 42 43 3 4 2 2 3 4 2 1 3 0 nosym
C    0.5486490   -0.7097066   -5.2160869  
C    0.2216131   -0.4592703   -6.5286406  
C   -0.8774665    0.4498526   -6.5177133  
C   -1.1798188    0.7210120   -5.1586759  
N   -0.2963293   -0.0005341   -4.3948471  
C   -2.2117140    1.5808272   -4.7704764  
C   -2.9516739    2.1780196   -5.7724738  
O   -3.9706969    3.0266535   -5.4493234  
C   -2.6655131    1.9197351   -7.1341707  
O   -3.4917895    2.5897959   -8.0125958  
C   -1.6478469    1.0714082   -7.5178666  
H    0.7138724   -0.8809265   -7.3882220  
H   -2.4472968    1.7915350   -3.7364045  
H   -4.3505471    3.3278816   -6.2849311  
H   -3.2316376    2.3603830   -8.9099778  
H   -1.4522919    0.8927730   -8.5687358  
H    1.3168713   -1.3392015   -4.8007206  
C    3.1301146   -0.0010313   -1.7028256  
C    2.5367765   -0.0002766   -0.4864669  
C    1.1089901    0.0001027   -0.7656184  
C    1.0177865   -0.0004150   -2.2415133  
N    2.1993571   -0.0011612   -2.7963824  
C   -0.2459219   -0.0002879   -2.9257116  
C   -1.3675326   -0.0000606   -2.1698520  
O   -2.6129318    0.0000865   -2.6748483  
C   -1.3083588    0.0000910   -0.6783229  
O   -2.3693264    0.0004206   -0.0541685  
C    0.0000000    0.0000000    0.0000000  
H    3.0096016   -0.0001007    0.4807518  
H   -3.1967444    0.0002093   -1.8949026  
H    4.1849275   -0.0015114   -1.9271979  
C    2.5128556    2.1077716    2.9199648  
C    1.9592212    1.6432552    4.0696553  
C    0.8915788    0.7479214    3.6910360  
C    0.8684491    0.7287414    2.2159470  
N    1.8754542    1.5738793    1.8102719  
C    0.0000000    0.0000000    1.4700000  
C   -0.9772830   -0.8200135    2.1664417  
O   -1.8021297   -1.5120829    1.5842315  
C   -0.9711318   -0.8147624    3.7284083  
O   -1.7894187   -1.5009653    4.3257297  
C    0.0140216    0.0115358    4.4216297  
H    2.2638494    1.8988021    5.0689105  
H    0.0117648    0.0094386    5.5031631  
H    3.3327358    2.7953732    2.7900019  
H    2.1123206    1.7707734    0.8551938  
