46
4A 5B 36B 41B 11 12 43 44 1 7 7 4 2 0 2 0 nosym
C    3.9304935   -0.7213446   -4.5189455  
C    2.8699635   -0.0020528   -4.0185828  
C    2.3079767    0.7246913   -5.1097353  
C    3.0737263    0.4060911   -6.2604077  
N    4.0518377   -0.4727966   -5.8661085  
C    2.8023199    0.9437871   -7.5221565  
C    1.7383267    1.8188173   -7.6242267  
O    1.4290978    2.3726998   -8.8327813  
C    0.9627248    2.1493291   -6.4875559  
O   -0.0618031    3.0346268   -6.7520061  
C    1.2300674    1.6194674   -5.2424453  
H    4.7412882   -0.8828644   -6.4698327  
H    3.3822376    0.7050939   -8.4030219  
H    0.6651259    2.9448170   -8.6834744  
H   -0.5358532    3.2048493   -5.9323082  
H    0.6185667    1.8914091   -4.3900412  
H    4.6108457   -1.3909010   -4.0211761  
C    3.2573667   -0.0002919   -1.5109386  
C    2.5379468   -0.0001709   -0.3591965  
C    1.1435041    0.0000331   -0.7338500  
C    1.1092604   -0.0000084   -2.2088475  
N    2.4227558    0.0001908   -2.6182613  
C   -0.0265536   -0.0002526   -2.9515663  
C   -1.3003039   -0.0002641   -2.2514979  
O   -2.3786786   -0.0004135   -2.8306422  
C   -1.2877726    0.0000311   -0.6895607  
O   -2.3539957    0.0003306   -0.0892033  
C    0.0000000    0.0000000    0.0000000  
H    2.9384090   -0.0000368    0.6389236  
H   -0.0296296   -0.0004089   -4.0327231  
H    4.3270391   -0.0004765   -1.6439450  
C    0.0000000    0.0000000    1.4700000  
C    1.0541688    0.0001722    2.3260392  
C    0.5103138    0.0000454    3.6635956  
C   -0.9576371   -0.0002459    3.5155732  
N   -1.2018458    0.0001392    2.1615969  
C   -1.8348311   -0.0008317    4.5510609  
C   -1.2972847   -0.0009736    5.9014604  
O   -2.0050672   -0.0014265    6.9001319  
C    0.2542623   -0.0004184    6.0817573  
O    0.7184670   -0.0002256    7.2139121  
C    1.0974552   -0.0000873    4.8889129  
H    2.0940752    0.0005483    2.0517982  
H   -2.9081052   -0.0011668    4.4207061  
H    2.1707277    0.0000911    5.0223670  
H   -2.1128194   -0.0014912    1.7406791  
