48
5B 10B 31A 32A 41B 13 16 47 42 46 7 4 2 3 4 2 0 3 0 nosym
C    2.8699642   -0.0020523   -4.0185824  
C    4.1418714   -0.0044740   -4.5427134  
C    4.0070339   -0.0065458   -5.9627182  
C    2.6177779   -0.0049686   -6.2488843  
N    1.9559319   -0.0041991   -5.0461472  
C    2.1142957   -0.0060117   -7.5532208  
C    3.0299398   -0.0083890   -8.5875162  
O    2.5927426   -0.0091453   -9.8805245  
C    4.4200523   -0.0103660   -8.3221857  
O    5.2027707   -0.0130471   -9.4582707  
C    4.9174617   -0.0096117   -7.0356750  
H    5.0545882   -0.0058225   -3.9718023  
H    0.9584560    0.0075020   -4.9326308  
H    1.0566184   -0.0049643   -7.7779879  
H    3.3831278   -0.0111390  -10.4359996  
H    6.1269506   -0.0142234   -9.1908872  
H    5.9874229   -0.0113545   -6.8634594  
C    3.2573670   -0.0002919   -1.5109381  
C    2.5379468   -0.0001709   -0.3591962  
C    1.1435042    0.0000332   -0.7338498  
C    1.1092608   -0.0000081   -2.2088474  
N    2.4227562    0.0001911   -2.6182609  
C   -0.0265531   -0.0002522   -2.9515663  
C   -1.3003034   -0.0002638   -2.2514980  
O   -2.3786783   -0.0004131   -2.8306426  
C   -1.2877724    0.0000312   -0.6895608  
O   -2.3539957    0.0003306   -0.0892036  
C    0.0000000    0.0000000    0.0000000  
H    2.9384090   -0.0000367    0.6389241  
H   -0.0296290   -0.0004083   -4.0327231  
H    4.3270393   -0.0004763   -1.6439444  
C    2.5285572    2.1210227    2.9438989  
C    1.9331703    1.6216660    4.0790748  
C    0.8903039    0.7472258    3.6520102  
C    0.8972198    0.7527806    2.2336141  
N    1.9028376    1.5986179    1.8362361  
C    0.0000000    0.0000000    1.4700000  
C   -0.9207814   -0.7726952    2.1506477  
O   -1.8198395   -1.5274828    1.4542253  
C   -0.9436862   -0.7911793    3.5655508  
O   -1.9197945   -1.6098497    4.0950179  
C   -0.0590329   -0.0485852    4.3195194  
H    2.2150357    1.8593692    5.0905303  
H    2.1533708    1.7953814    0.8841339  
H   -2.3621246   -1.9821033    2.1118817  
H   -1.8668290   -1.5649508    5.0545920  
H   -0.1007624   -0.0827977    5.4019087  
H    3.3491200    2.8096064    2.8367138  
