48
5B 10B 33A 34A 43B 13 16 47 44 46 7 4 2 3 4 2 0 3 0 nosym
C   -0.9736295    0.0040466   -4.6965763  
C    0.3184309    0.0036279   -5.1688550  
C    0.2411191    0.0048062   -6.5931519  
C   -1.1354317    0.0062105   -6.9352514  
N   -1.8453660    0.0037555   -5.7602606  
C   -1.5857639    0.0079220   -8.2588778  
C   -0.6290481    0.0085283   -9.2553081  
O   -1.0136081    0.0105402  -10.5649348  
C    0.7492004    0.0067736   -8.9339917  
O    1.5772149    0.0072340  -10.0375026  
C    1.1941862    0.0048114   -7.6284236  
H    1.2073188    0.0014946   -4.5615109  
H   -2.8466241    0.0145839   -5.6871420  
H   -2.6334891    0.0088539   -8.5262249  
H   -0.2014089    0.0103304  -11.0880006  
H    2.4898291    0.0059920   -9.7329740  
H    2.2563102    0.0033149   -7.4130899  
C    1.1188642    0.0008216   -0.8003808  
C    0.0000000    0.0000000    0.0000000  
C   -1.1323861    0.0008904   -0.8673528  
C   -0.6382661    0.0019681   -2.1969280  
N    0.7324017    0.0038477   -2.1202241  
C   -1.4770913    0.0027323   -3.3154808  
C   -2.8395472    0.0020956   -3.0876858  
O   -3.7039201    0.0024441   -4.1440350  
C   -3.3517867    0.0013945   -1.7684332  
O   -4.7300494    0.0012387   -1.7073122  
C   -2.5248543    0.0009134   -0.6644817  
H    1.3576316   -0.0056175   -2.9057045  
H   -4.5940031    0.0021847   -3.7685129  
H   -4.9934602    0.0007284   -0.7819915  
H   -2.9462576    0.0005617    0.3339659  
H    2.1619896    0.0009343   -0.5342067  
C    2.5528530    2.1414826    2.8079335  
C    2.0663498    1.7338582    4.0032312  
C    0.9804344    0.8229586    3.6752840  
C    0.9495562    0.7966882    2.1971295  
N    1.8690446    1.5676019    1.6831036  
C    0.0000000    0.0000000    1.4700000  
C   -0.8785127   -0.7372425    2.1869543  
O   -1.8187535   -1.5261249    1.6395491  
C   -0.8723269   -0.7321790    3.6796354  
O   -1.7010379   -1.4274584    4.2670412  
C    0.1115397    0.0933559    4.4024240  
H    2.4028853    2.0163452    4.9860947  
H   -2.2861435   -1.9184361    2.3990168  
H    0.0832434    0.0693689    5.4835595  
H    3.3664920    2.8238276    2.6198634  
