46
1A 10B 31A 36B 11 15 45 43 3 4 2 7 2 0 2 0 nosym
C    0.2325388   -0.7085543   -5.1397918  
C    0.4597180   -0.4579596   -6.4732310  
C   -0.5516847    0.4507965   -6.9043069  
C   -1.3741899    0.7215795   -5.7808796  
N   -0.8712826    0.0001710   -4.7267111  
C   -2.4754622    1.5809735   -5.8394421  
C   -2.7512675    2.1781242   -7.0541523  
O   -3.8146373    3.0263545   -7.1671287  
C   -1.9425302    1.9202116   -8.1865136  
O   -2.3470202    2.5901768   -9.3226816  
C   -0.8561022    1.0722999   -8.1295364  
H    1.2557560   -0.8792778   -7.0629835  
H   -3.1063587    1.7913929   -4.9868608  
H   -3.8272808    3.3276265   -8.0849195  
H   -1.7484758    2.3610328  -10.0402066  
H   -0.2551386    0.8939433   -9.0135668  
H    0.7696961   -1.3378790   -4.4510458  
C    1.0965514    0.0001359   -0.8010305  
C    0.0000000    0.0000000    0.0000000  
C   -1.1546563    0.0001470   -0.8669513  
C   -0.6372014    0.0003519   -2.2486282  
N    0.7342871    0.0007337   -2.1395014  
C   -1.4147739    0.0001352   -3.3608717  
C   -2.8576049   -0.0001048   -3.1854462  
O   -3.6427779   -0.0002494   -4.1244907  
C   -3.4275840   -0.0000725   -1.7311666  
O   -4.6406831    0.0000333   -1.5710060  
C   -2.4891867   -0.0001091   -0.6116744  
H   -2.8919122   -0.0002918    0.3920866  
H    2.1388272    0.0000663   -0.5261648  
H    1.3735872   -0.0006099   -2.9130262  
C    2.3971438    2.0127888    3.1728260  
C    1.9431056    1.6308205    1.9564670  
C    0.8496017    0.7127664    2.2356185  
C    0.7794028    0.6545384    3.7115134  
N    1.6840587    1.4146091    4.2663826  
C   -0.1885723   -0.1578550    4.3957118  
C   -1.0476298   -0.8789867    3.6398520  
O   -2.0015663   -1.6796266    4.1448486  
C   -1.0022026   -0.8410666    2.1483229  
O   -1.8147390   -1.5232959    1.5241687  
C    0.0000000    0.0000000    1.4700000  
H    2.3054237    1.9346118    0.9892483  
H   -0.2170646   -0.1815267    5.4753125  
H   -2.4487139   -2.0549881    3.3649027  
H    3.2048689    2.6911772    3.3971983  
