46
0A 4A 5B 31A 32A 41B 16 12 13 45 42 44 2 1 7 2 3 4 3 0 3 0 nosym
C    6.0248187   -2.1202135   -4.4616489  
C    5.0783100   -1.6588027   -3.5763868  
C    4.2276820   -0.7722182   -4.3009554  
C    4.7079645   -0.7320399   -5.6349872  
N    5.8010155   -1.5602488   -5.6976512  
C    4.1080824    0.0434942   -6.6317203  
C    3.0030484    0.7918705   -6.2753359  
O    2.3785341    1.5666819   -7.2095005  
C    2.5091459    0.7652698   -4.9493763  
O    1.4023121    1.5649237   -4.7523579  
C    3.1006056    0.0006265   -3.9654949  
H    5.0100915   -1.9272544   -2.5360634  
H    6.3454447   -1.7413608   -6.5215297  
H    4.4693702    0.0785683   -7.6502697  
H    1.6423509    1.9991801   -6.7575668  
H    1.1325952    1.4895590   -3.8319362  
H    6.8427146   -2.8033362   -4.3088466  
C    3.2798083    0.0005856   -1.4499650  
C    2.5571143    0.0005567   -2.5996555  
C    1.1637433    0.0001550   -2.2210361  
C    1.1336964   -0.0000198   -0.7459472  
N    2.4483513   -0.0001427   -0.3402721  
C    0.0000000    0.0000000    0.0000000  
C   -1.2757369   -0.0000185   -0.6964416  
O   -2.3524597   -0.0000637   -0.1142312  
C   -1.2676495   -0.0000871   -2.2584083  
O   -2.3355763   -0.0004098   -2.8557295  
C    0.0181559    0.0001761   -2.9516296  
H    0.0150790    0.0003322   -4.0331631  
H    4.3498547    0.0008612   -1.3200024  
H    2.7563627    0.0012823    0.6148060  
C    2.5528530    2.1414826    2.8079335  
C    2.0663498    1.7338582    4.0032312  
C    0.9804344    0.8229586    3.6752840  
C    0.9495562    0.7966882    2.1971295  
N    1.8690446    1.5676019    1.6831036  
C    0.0000000    0.0000000    1.4700000  
C   -0.8785127   -0.7372425    2.1869543  
O   -1.8187535   -1.5261249    1.6395491  
C   -0.8723269   -0.7321790    3.6796354  
O   -1.7010379   -1.4274584    4.2670412  
C    0.1115397    0.0933559    4.4024240  
H    2.4028853    2.0163452    4.9860947  
H   -2.2861435   -1.9184361    2.3990168  
H    0.0832434    0.0693689    5.4835595  
H    3.3664920    2.8238276    2.6198634  
