46
0A 4A 5B 22B 35A 36B 16 12 13 29 45 42 2 1 7 7 1 7 3 1 2 0 nosym
C    4.3986923   -2.1219529   -1.2768494  
C    3.1671544   -1.6601558   -1.6799926  
C    3.3927787   -0.7733834   -2.7742177  
C    4.7932398   -0.7334942   -2.9956771  
N    5.3743142   -1.5620487   -2.0680630  
C    5.3781139    0.0421212   -4.0012271  
C    4.5338271    0.7908778   -4.7979210  
O    5.0520031    1.5657848   -5.7949302  
C    3.1338850    0.7645696   -4.5922827  
O    2.4284163    1.5645874   -5.4672845  
C    2.5562217   -0.0001540   -3.6003003  
H    2.2224780   -1.9284768   -1.2388767  
H    6.3585023   -1.7434158   -1.9876896  
H    6.4447768    0.0769765   -4.1750578  
H    4.3015173    1.9985588   -6.2224138  
H    1.4918401    1.4894028   -5.2604611  
H    4.6584628   -2.8053131   -0.4865982  
C    0.0000000    0.0000000    0.0000000  
C    1.0541688   -0.0001718   -0.8560391  
C    0.5103141   -0.0000448   -2.1935955  
C   -0.9576367    0.0002462   -2.0455732  
N   -1.2018459   -0.0001391   -0.6915971  
C   -1.8348307    0.0008319   -3.0810611  
C   -1.2972843    0.0009743   -4.4314607  
O   -2.0050666    0.0014272   -5.4301322  
C    0.2542627    0.0004194   -4.6117573  
O    0.7184676    0.0002268   -5.7439121  
C    1.0974555    0.0000882   -3.4189128  
H    2.0940752   -0.0005478   -0.5817980  
H   -2.9081051    0.0011669   -2.9507063  
H   -2.1128195    0.0014909   -0.2706793  
C    1.0965515   -0.0001358    2.2710304  
C    0.0000000    0.0000000    1.4700000  
C   -1.1546562   -0.0001469    2.3369512  
C   -0.6372014   -0.0003519    3.7186280  
N    0.7342871   -0.0007337    3.6095011  
C   -1.4147739   -0.0001353    4.8308716  
C   -2.8576048    0.0001048    4.6554461  
O   -3.6427778    0.0002493    5.5944904  
C   -3.4275839    0.0000726    3.2011665  
O   -4.6406829   -0.0000333    3.0410059  
C   -2.4891866    0.0001091    2.0816745  
H   -1.0150448   -0.0001615    5.8354244  
H   -2.8919121    0.0002919    1.0779135  
H    2.1388271   -0.0000662    1.9961646  
H    1.3735872    0.0006099    4.3830260  
