46
0A 4A 5B 31A 32A 41B 16 12 13 44 42 43 2 1 7 2 3 4 3 0 3 0 nosym
C    4.6682618   -2.1172866   -2.8277193  
C    3.4958459   -1.6563516   -2.2750466  
C    2.9089036   -0.7682632   -3.2244664  
C    3.7754714   -0.7267195   -4.3466338  
N    4.8347781   -1.5555984   -4.0719573  
C    3.5106792    0.0504922   -5.4782768  
C    2.3497946    0.7991735   -5.4772019  
O    2.0423546    1.5755998   -6.5568581  
C    1.4727450    0.7712269   -4.3668779  
O    0.3590763    1.5713895   -4.5179568  
C    1.7334694    0.0049281   -3.2500363  
H    3.1115401   -1.9260780   -1.3062585  
H    5.6057553   -1.7360369   -4.6892218  
H    4.1671631    0.0866125   -6.3367208  
H    1.2031064    2.0080288   -6.3520826  
H   -0.1801490    1.4950404   -3.7248549  
H    5.3995988   -2.8011643   -2.4322241  
C    1.1319246    0.0015678   -0.8009269  
C    0.7969914    0.0034958   -2.1169402  
C   -0.6453340    0.0035696   -2.1842669  
C   -1.1266833    0.0015410   -0.7896025  
N    0.0000000    0.0000000    0.0000000  
C   -2.4346130    0.0013912   -0.4276293  
C   -3.4350112    0.0031335   -1.4820181  
O   -4.6384613    0.0030876   -1.2583913  
C   -2.9478960    0.0050441   -2.9661073  
O   -3.7809383    0.0062138   -3.8623774  
C   -1.5113825    0.0053055   -3.2312121  
H   -2.7664565    0.0000174    0.6013448  
H   -1.1823532    0.0068381   -4.2614847  
H    2.1104315    0.0009436   -0.3488059  
C    2.5128556    2.1077716    2.9199648  
C    1.9592212    1.6432552    4.0696553  
C    0.8915788    0.7479214    3.6910360  
C    0.8684491    0.7287414    2.2159470  
N    1.8754542    1.5738793    1.8102719  
C    0.0000000    0.0000000    1.4700000  
C   -0.9772830   -0.8200135    2.1664417  
O   -1.8021297   -1.5120829    1.5842315  
C   -0.9711318   -0.8147624    3.7284083  
O   -1.7894187   -1.5009653    4.3257297  
C    0.0140216    0.0115358    4.4216297  
H    2.2638494    1.8988021    5.0689105  
H    0.0117648    0.0094386    5.5031631  
H    3.3327358    2.7953732    2.7900019  
H    2.1123206    1.7707734    0.8551938  
