46
1A 10B 27B 31A 32A 41B 11 15 29 45 42 44 3 4 4 2 3 4 2 1 3 0 nosym
C   -3.9747611    0.7101856   -1.9417825  
C   -5.3221354    0.4600631   -2.0621548  
C   -5.4813673   -0.4485679   -3.1501045  
C   -4.1854348   -0.7197647   -3.6589637  
N   -3.2941076    0.0012878   -2.9038237  
C   -3.9615344   -1.5791666   -4.7388187  
C   -5.0659635   -2.1758990   -5.3152941  
O   -4.9043396   -3.0241169   -6.3723739  
C   -6.3670286   -1.9175698   -4.8220266  
O   -7.3627229   -2.5871479   -5.5029093  
C   -6.5886805   -1.0696504   -3.7569305  
H   -6.0952349    0.8816080   -1.4427920  
H   -2.9763329   -1.7899000   -5.1314647  
H   -5.7886692   -3.3250681   -6.6186545  
H   -8.2090766   -2.3577378   -5.1071051  
H   -7.5966695   -0.8909694   -3.4012489  
H   -3.4455417    1.3392830   -1.2467128  
C    0.0000000    0.0000000    0.0000000  
C    1.0541688   -0.0001723   -0.8560392  
C    0.5103136   -0.0000455   -2.1935956  
C   -0.9576373    0.0002461   -2.0455730  
N   -1.2018460   -0.0001389   -0.6915968  
C   -1.8348314    0.0008319   -3.0810607  
C   -1.2972851    0.0009739   -4.4314603  
O   -2.0050676    0.0014268   -5.4301316  
C    0.2542619    0.0004184   -4.6117572  
O    0.7184666    0.0002257   -5.7439122  
C    1.0974551    0.0000873   -3.4189129  
H    2.0940752   -0.0005484   -0.5817983  
H    2.1707276   -0.0000912   -3.5523673  
H   -2.1128194    0.0014915   -0.2706789  
C    3.3321173   -0.0004715    2.8079335  
C    2.6974184   -0.0000116    4.0032312  
C    1.2800439    0.0002118    3.6752840  
C    1.2395035   -0.0000644    2.1971295  
N    2.4394063   -0.0005460    1.6831036  
C    0.0000000    0.0000000    1.4700000  
C   -1.1468701   -0.0000635    2.1869543  
O   -2.3742202   -0.0000073    1.6395491  
C   -1.1388768   -0.0001607    3.6796354  
O   -2.2206231   -0.0000905    4.2670412  
C    0.1454524   -0.0001816    4.4024240  
H    3.1367986    0.0000651    4.9860947  
H   -2.9844344   -0.0001026    2.3990168  
H    0.1083576   -0.0003682    5.4835595  
H    4.3940039   -0.0007619    2.6198634  
