46
4A 5B 36B 41B 11 12 43 45 1 7 7 4 2 0 2 0 nosym
C    3.9304935   -0.7213446   -4.5189455  
C    2.8699635   -0.0020528   -4.0185828  
C    2.3079767    0.7246913   -5.1097353  
C    3.0737263    0.4060911   -6.2604077  
N    4.0518377   -0.4727966   -5.8661085  
C    2.8023199    0.9437871   -7.5221565  
C    1.7383267    1.8188173   -7.6242267  
O    1.4290978    2.3726998   -8.8327813  
C    0.9627248    2.1493291   -6.4875559  
O   -0.0618031    3.0346268   -6.7520061  
C    1.2300674    1.6194674   -5.2424453  
H    4.7412882   -0.8828644   -6.4698327  
H    3.3822376    0.7050939   -8.4030219  
H    0.6651259    2.9448170   -8.6834744  
H   -0.5358532    3.2048493   -5.9323082  
H    0.6185667    1.8914091   -4.3900412  
H    4.6108457   -1.3909010   -4.0211761  
C    3.2573667   -0.0002919   -1.5109386  
C    2.5379468   -0.0001709   -0.3591965  
C    1.1435041    0.0000331   -0.7338500  
C    1.1092604   -0.0000084   -2.2088475  
N    2.4227558    0.0001908   -2.6182613  
C   -0.0265536   -0.0002526   -2.9515663  
C   -1.3003039   -0.0002641   -2.2514979  
O   -2.3786786   -0.0004135   -2.8306422  
C   -1.2877726    0.0000311   -0.6895607  
O   -2.3539957    0.0003306   -0.0892033  
C    0.0000000    0.0000000    0.0000000  
H    2.9384090   -0.0000368    0.6389236  
H   -0.0296296   -0.0004089   -4.0327231  
H    4.3270391   -0.0004765   -1.6439450  
C    0.0000000    0.0000000    1.4700000  
C    1.0662921    0.0000102    2.3034270  
C    0.4961870   -0.0000064    3.6418889  
C   -0.9663858    0.0000850    3.4240247  
N   -1.2632773    0.0000084    2.1528658  
C   -1.8985362    0.0000517    4.5177257  
C   -1.3925775   -0.0004564    5.7720543  
O   -2.1456383   -0.0005410    6.8851312  
C    0.0786232   -0.0009323    6.0245000  
O    0.4683759   -0.0012588    7.1921102  
C    1.0143166   -0.0008442    4.8859032  
H    2.1107198   -0.0000632    2.0421868  
H   -2.9622183    0.0003270    4.3293377  
H   -1.5042274   -0.0009692    7.6184419  
H    2.0724152   -0.0013148    5.1109744  
