46
4A 5B 17A 31A 32A 41B 11 12 30 45 42 44 1 7 2 2 3 4 2 1 3 0 nosym
C    0.5335748   -0.7189657   -5.2240532  
C   -0.2963293   -0.0005341   -4.3948471  
C   -1.1926767    0.7276183   -5.2320779  
C   -0.8591814    0.4107242   -6.5738248  
N    0.1943081   -0.4685464   -6.5330746  
C   -1.5394158    0.9501102   -7.6697871  
C   -2.5753772    1.8251075   -7.4064593  
O   -3.2733096    2.3806007   -8.4395771  
C   -2.9228603    2.1539308   -6.0745636  
O   -3.9763328    3.0394255   -5.9774094  
C   -2.2520522    1.6224013   -4.9928895  
H    0.6400937   -0.8776722   -7.3342440  
H   -1.2900300    0.7127220   -8.6948015  
H   -3.9422216    2.9523885   -8.0409792  
H   -4.1466496    3.2084442   -5.0457288  
H   -2.5407497    1.8930719   -3.9839944  
H    1.3415960   -1.3890956   -4.9853339  
C    3.1301146   -0.0010313   -1.7028256  
C    2.5367765   -0.0002766   -0.4864669  
C    1.1089901    0.0001027   -0.7656184  
C    1.0177865   -0.0004150   -2.2415133  
N    2.1993571   -0.0011612   -2.7963824  
C   -0.2459219   -0.0002879   -2.9257116  
C   -1.3675326   -0.0000606   -2.1698520  
O   -2.6129318    0.0000865   -2.6748483  
C   -1.3083588    0.0000910   -0.6783229  
O   -2.3693264    0.0004206   -0.0541685  
C    0.0000000    0.0000000    0.0000000  
H    3.0096016   -0.0001007    0.4807518  
H   -3.1967444    0.0002093   -1.8949026  
H    4.1849275   -0.0015114   -1.9271979  
C    2.5528530    2.1414826    2.8079335  
C    2.0663498    1.7338582    4.0032312  
C    0.9804344    0.8229586    3.6752840  
C    0.9495562    0.7966882    2.1971295  
N    1.8690446    1.5676019    1.6831036  
C    0.0000000    0.0000000    1.4700000  
C   -0.8785127   -0.7372425    2.1869543  
O   -1.8187535   -1.5261249    1.6395491  
C   -0.8723269   -0.7321790    3.6796354  
O   -1.7010379   -1.4274584    4.2670412  
C    0.1115397    0.0933559    4.4024240  
H    2.4028853    2.0163452    4.9860947  
H   -2.2861435   -1.9184361    2.3990168  
H    0.0832434    0.0693689    5.4835595  
H    3.3664920    2.8238276    2.6198634  
