48
4A 5B 38B 43B 11 12 45 46 1 7 7 4 2 0 2 0 nosym
C   -0.2037734   -0.6658585   -5.1293021  
C   -1.2456336    0.0471730   -4.5828764  
C   -1.8468919    0.7857103   -5.6447855  
C   -1.1232374    0.4804250   -6.8259082  
N   -0.1313243   -0.4022233   -6.4771138  
C   -1.4402451    1.0320029   -8.0709214  
C   -2.5074046    1.9074824   -8.1246301  
O   -2.8602870    2.4746294   -9.3149379  
C   -3.2414136    2.2248286   -6.9570098  
O   -4.2750137    3.1124102   -7.1742967  
C   -2.9290712    1.6812681   -5.7283888  
H    0.5358984   -0.8051183   -7.1099413  
H   -0.8925489    0.8034984   -8.9748116  
H   -3.6184636    3.0445890   -9.1316934  
H   -4.7191126    3.2731938   -6.3361269  
H   -3.5093662    1.9433175   -4.8514248  
H    0.4942809   -1.3405206   -4.6639956  
C    1.1243408    0.0099924   -0.7919005  
C    0.7474073    0.0234547   -2.1148544  
C   -0.6787385    0.0234491   -2.1414699  
C   -1.1201747    0.0098593   -0.7935545  
N    0.0000000    0.0000000    0.0000000  
C   -2.4730817    0.0063708   -0.4408237  
C   -3.3971961    0.0170979   -1.4675053  
O   -4.7313517    0.0146259   -1.1793464  
C   -2.9763655    0.0303507   -2.8186320  
O   -4.0166483    0.0395117   -3.7247617  
C   -1.6418568    0.0335262   -3.1673479  
H    1.4178711    0.0310976   -2.9571212  
H   -2.8160166   -0.0041112    0.5845970  
H   -5.1938825    0.0230867   -2.0274377  
H   -3.6464683    0.0482297   -4.6127338  
H    2.1062465    0.0052822   -0.3505410  
C    0.0000000    0.0000000    1.4700000  
C    1.0541688    0.0001722    2.3260392  
C    0.5103138    0.0000454    3.6635956  
C   -0.9576371   -0.0002459    3.5155732  
N   -1.2018458    0.0001392    2.1615969  
C   -1.8348311   -0.0008317    4.5510609  
C   -1.2972847   -0.0009736    5.9014604  
O   -2.0050672   -0.0014265    6.9001319  
C    0.2542623   -0.0004184    6.0817573  
O    0.7184670   -0.0002256    7.2139121  
C    1.0974552   -0.0000873    4.8889129  
H    2.0940752    0.0005483    2.0517982  
H   -2.9081052   -0.0011668    4.4207061  
H    2.1707277    0.0000911    5.0223670  
H   -2.1128194   -0.0014912    1.7406791  
