46
0A 1A 10B 22B 31A 36B 16 11 15 29 45 43 2 3 4 7 2 7 3 1 2 0 nosym
C    4.4211035   -2.1170479   -1.5538550  
C    5.4072743   -1.6176329   -2.3727071  
C    4.7720748   -0.7441419   -3.3044444  
C    3.3861602   -0.7503087   -3.0025678  
N    3.2071930   -1.5955831   -1.9357502  
C    2.4521485    0.0014830   -3.7217479  
C    2.9258795    0.7738005   -4.7644765  
O    2.0572053    1.5276268   -5.4994354  
C    4.3050436    0.7928831   -5.0812732  
O    4.6193641    1.6110693   -6.1466918  
C    5.2270000    0.0512646   -4.3723841  
H    6.4553776   -1.8546901   -2.3073025  
H    2.3281654   -1.7925772   -1.4924844  
H    2.5873808    1.9821368   -6.1669682  
H    5.5689851    1.5666267   -6.2945044  
H    6.2770004    0.0859176   -4.6384213  
H    4.4873861   -2.8050772   -0.7285186  
C    0.0000000    0.0000000    0.0000000  
C    1.0662923   -0.0000105   -0.8334269  
C    0.4961874    0.0000060   -2.1718887  
C   -0.9663853   -0.0000854   -1.9540249  
N   -1.2632772   -0.0000086   -0.6828660  
C   -1.8985357   -0.0000523   -3.0477261  
C   -1.3925768    0.0004559   -4.3020546  
O   -2.1456376    0.0005405   -5.4151317  
C    0.0786242    0.0009317   -4.5545000  
O    0.4683768    0.0012580   -5.7221103  
C    1.0143173    0.0008436   -3.4159030  
H    2.1107200    0.0000630   -0.5721863  
H   -2.9622180   -0.0003275   -2.8593382  
H   -1.5042263    0.0009682   -6.1484421  
C    3.1301144    0.0010313    3.1728260  
C    2.5367765    0.0002768    1.9564670  
C    1.1089900   -0.0001027    2.2356185  
C    1.0177864    0.0004150    3.7115134  
N    2.1993570    0.0011613    4.2663826  
C   -0.2459220    0.0002880    4.3957118  
C   -1.3675327    0.0000606    3.6398520  
O   -2.6129319   -0.0000866    4.1448486  
C   -1.3083589   -0.0000910    2.1483229  
O   -2.3693264   -0.0004206    1.5241687  
C    0.0000000    0.0000000    1.4700000  
H    3.0096015    0.0001008    0.9892483  
H   -0.2829642    0.0004689    5.4753125  
H   -3.1967446   -0.0002093    3.3649027  
H    4.1849273    0.0015113    3.3971983  
