48
5B 10B 17A 38B 43B 13 16 32 45 46 7 4 2 7 4 2 1 2 0 nosym
C   -0.1496419   -0.0015610   -4.3176961  
C    0.8570953   -0.0030495   -5.2552170  
C    0.2320381   -0.0039080   -6.5373647  
C   -1.1692069   -0.0025865   -6.3172803  
N   -1.3663830   -0.0031296   -4.9587012  
C   -2.0987845   -0.0026545   -7.3616341  
C   -1.6048147   -0.0037758   -8.6516619  
O   -2.4683523   -0.0035428   -9.7086933  
C   -0.2100870   -0.0054783   -8.8915534  
O    0.1236720   -0.0068617  -10.2301899  
C    0.7075430   -0.0056854   -7.8617575  
H    1.9121937   -0.0045706   -5.0413050  
H   -2.2604168    0.0081043   -4.5020193  
H   -3.1680135   -0.0017956   -7.2005413  
H   -1.9234612   -0.0047522  -10.5064135  
H    1.0828811   -0.0079365  -10.3044897  
H    1.7698132   -0.0071885   -8.0763685  
C    3.3003543    0.0005277   -1.4738990  
C    2.5232811    0.0003499   -2.6090749  
C    1.1623198   -0.0001317   -2.1820104  
C    1.1711883    0.0000584   -0.7636142  
N    2.4852300   -0.0014918   -0.3662362  
C    0.0000000    0.0000000    0.0000000  
C   -1.2020384    0.0000520   -0.6806476  
O   -2.3759250    0.0003494    0.0157745  
C   -1.2314658   -0.0005111   -2.0955509  
O   -2.5054393   -0.0008036   -2.6250178  
C   -0.0764519   -0.0007271   -2.8495194  
H    2.8919951   -0.0005617   -3.6205306  
H    2.8036267    0.0088181    0.5858660  
H   -3.0835640    0.0000348   -0.6418815  
H   -2.4360053   -0.0011525   -3.5845919  
H    4.3715545    0.0004896   -1.3667140  
C    0.0000000    0.0000000    1.4700000  
C    1.0541688    0.0001722    2.3260392  
C    0.5103138    0.0000454    3.6635956  
C   -0.9576371   -0.0002459    3.5155732  
N   -1.2018458    0.0001392    2.1615969  
C   -1.8348311   -0.0008317    4.5510609  
C   -1.2972847   -0.0009736    5.9014604  
O   -2.0050672   -0.0014265    6.9001319  
C    0.2542623   -0.0004184    6.0817573  
O    0.7184670   -0.0002256    7.2139121  
C    1.0974552   -0.0000873    4.8889129  
H    2.0940752    0.0005483    2.0517982  
H   -2.9081052   -0.0011668    4.4207061  
H    2.1707277    0.0000911    5.0223670  
H   -2.1128194   -0.0014912    1.7406791  
