46
0A 4A 5B 17A 36B 16 12 13 30 42 2 1 7 2 7 3 1 1 0 nosym
C    2.5739603   -2.1205420   -6.0299297  
C    2.0624117   -1.6592059   -4.8391508  
C    0.9926086   -0.7724386   -5.1612766  
C    0.8970790   -0.7320770   -6.5759043  
N    1.8729616   -1.5603575   -7.0721121  
C   -0.0523136    0.0436657   -7.2479647  
C   -0.9212931    0.7920662   -6.4779331  
O   -1.8681343    1.5670778   -7.0827994  
C   -0.8414765    0.7652845   -5.0652306  
O   -1.7760614    1.5649887   -4.4404367  
C    0.0950452    0.0004352   -4.4015596  
H    2.4174430   -1.9278234   -3.8589517  
H    2.0409134   -1.7413748   -8.0452541  
H   -0.1302095    0.0788801   -8.3258765  
H   -2.3609689    1.9995568   -6.3733345  
H   -1.6536848    1.4894931   -3.4891600  
H    3.3843236   -2.8037510   -6.2183329  
C    3.3321174    0.0004718   -1.3379334  
C    2.6974185    0.0000117   -2.5332310  
C    1.2800440   -0.0002117   -2.2052839  
C    1.2395036    0.0000644   -0.7271297  
N    2.4394063    0.0005460   -0.2131035  
C    0.0000000    0.0000000    0.0000000  
C   -1.1468700    0.0000635   -0.7169545  
O   -2.3742202    0.0000073   -0.1695490  
C   -1.1388767    0.0001607   -2.2096357  
O   -2.2206230    0.0000904   -2.7970414  
C    0.1454526    0.0001816   -2.9324241  
H    3.1367988   -0.0000648   -3.5160946  
H   -2.9844344    0.0001025   -0.9290171  
H    4.3940040    0.0007621   -1.1498634  
C    0.8175213    0.6860729    2.3021913  
C    0.0000000    0.0000000    1.4700000  
C   -0.8887526   -0.7456559    2.3478473  
C   -0.4549825   -0.3816753    3.7138435  
N    0.5448156    0.4573574    3.6934124  
C   -1.0945674   -0.9182058    4.8835240  
C   -2.1210866   -1.7789155    4.6970523  
O   -2.8083856   -2.3554314    5.6976972  
C   -2.5824069   -2.1655116    3.3310774  
O   -3.5227682   -2.9541547    3.2362962  
C   -1.9100805   -1.6015804    2.1470656  
H   -0.7567140   -0.6349833    5.8697035  
H   -3.4728268   -2.9124471    5.2533954  
H   -2.2742832   -1.9066565    1.1752040  
H    1.6189533    1.3585343    2.0405121  
