48
5B 10B 38B 43B 13 16 45 46 7 4 7 4 2 0 2 0 nosym
C    1.6478437   -0.0100108   -3.2702996  
C    3.0229820   -0.0125910   -3.3084441  
C    3.4013256   -0.0286724   -4.6836523  
C    2.2043093   -0.0350842   -5.4445971  
N    1.1584083   -0.0253917   -4.5554320  
C    2.1969617   -0.0504355   -6.8426313  
C    3.4202805   -0.0591719   -7.4841864  
O    3.4708714   -0.0738774   -8.8480914  
C    4.6254979   -0.0533548   -6.7424089  
O    5.7607140   -0.0638668   -7.5263196  
C    4.6335004   -0.0384847   -5.3631914  
H    3.6733923   -0.0050510   -2.4505965  
H    0.1856549   -0.0163950   -4.8037280  
H    1.2880935   -0.0555359   -7.4284087  
H    4.4070213   -0.0781537   -9.0865666  
H    6.5296536   -0.0589964   -6.9481225  
H    5.5725180   -0.0345326   -4.8221659  
C    1.1188643    0.0008217   -0.8003807  
C    0.0000000    0.0000000    0.0000000  
C   -1.1323860    0.0008904   -0.8673529  
C   -0.6382660    0.0019682   -2.1969281  
N    0.7324017    0.0038477   -2.1202240  
C   -1.4770912    0.0027325   -3.3154809  
C   -2.8395473    0.0020958   -3.0876859  
O   -3.7039196    0.0024444   -4.1440351  
C   -3.3517869    0.0013946   -1.7684333  
O   -4.7300495    0.0012389   -1.7073124  
C   -2.5248543    0.0009136   -0.6644818  
H   -1.1067569    0.0036993   -4.3313814  
H   -4.5940029    0.0021850   -3.7685131  
H   -4.9934601    0.0007287   -0.7819918  
H   -2.9462578    0.0005617    0.3339657  
H    2.1619895    0.0009344   -0.5342066  
C    0.0000000    0.0000000    1.4700000  
C    1.0541688    0.0001722    2.3260392  
C    0.5103138    0.0000454    3.6635956  
C   -0.9576371   -0.0002459    3.5155732  
N   -1.2018458    0.0001392    2.1615969  
C   -1.8348311   -0.0008317    4.5510609  
C   -1.2972847   -0.0009736    5.9014604  
O   -2.0050672   -0.0014265    6.9001319  
C    0.2542623   -0.0004184    6.0817573  
O    0.7184670   -0.0002256    7.2139121  
C    1.0974552   -0.0000873    4.8889129  
H    2.0940752    0.0005483    2.0517982  
H   -2.9081052   -0.0011668    4.4207061  
H    2.1707277    0.0000911    5.0223670  
H   -2.1128194   -0.0014912    1.7406791  
