46
0A 4A 5B 17A 36B 16 12 13 30 42 2 1 7 2 7 3 1 1 0 nosym
C    2.1802772   -2.1248205   -6.0224160  
C    1.6692312   -1.6624790   -4.8318113  
C    0.6003928   -0.7746704   -5.1542721  
C    0.5049067   -0.7347390   -6.5689150  
N    1.4798881   -1.5642676   -7.0648099  
C   -0.4436418    0.0417820   -7.2412683  
C   -1.3118067    0.7914177   -6.4715194  
O   -2.2578045    1.5672300   -7.0766784  
C   -1.2320189    0.7650825   -5.0588069  
O   -2.1657335    1.5660385   -4.4343152  
C   -0.2963293   -0.0005341   -4.3948471  
H    2.0239702   -1.9311122   -3.8515109  
H    1.6476425   -1.7458346   -8.0378834  
H   -0.5214996    0.0766742   -8.3191934  
H   -2.7501685    2.0005126   -6.3673769  
H   -2.0434386    1.4907688   -3.4830099  
H    2.9898969   -2.8089813   -6.2105611  
C    3.1301146   -0.0010313   -1.7028256  
C    2.5367765   -0.0002766   -0.4864669  
C    1.1089901    0.0001027   -0.7656184  
C    1.0177865   -0.0004150   -2.2415133  
N    2.1993571   -0.0011612   -2.7963824  
C   -0.2459219   -0.0002879   -2.9257116  
C   -1.3675326   -0.0000606   -2.1698520  
O   -2.6129318    0.0000865   -2.6748483  
C   -1.3083588    0.0000910   -0.6783229  
O   -2.3693264    0.0004206   -0.0541685  
C    0.0000000    0.0000000    0.0000000  
H    3.0096016   -0.0001007    0.4807518  
H   -3.1967444    0.0002093   -1.8949026  
H    4.1849275   -0.0015114   -1.9271979  
C    0.8175213    0.6860729    2.3021913  
C    0.0000000    0.0000000    1.4700000  
C   -0.8887526   -0.7456559    2.3478473  
C   -0.4549825   -0.3816753    3.7138435  
N    0.5448156    0.4573574    3.6934124  
C   -1.0945674   -0.9182058    4.8835240  
C   -2.1210866   -1.7789155    4.6970523  
O   -2.8083856   -2.3554314    5.6976972  
C   -2.5824069   -2.1655116    3.3310774  
O   -3.5227682   -2.9541547    3.2362962  
C   -1.9100805   -1.6015804    2.1470656  
H   -0.7567140   -0.6349833    5.8697035  
H   -3.4728268   -2.9124471    5.2533954  
H   -2.2742832   -1.9066565    1.1752040  
H    1.6189533    1.3585343    2.0405121  
