50
33A 37A 38B 16A 20A 21B 49 45 46 32 28 29 2 1 7 2 1 7 3 0 3 0 nosym
C    1.1188644    0.0008217   -0.8003807  
C    0.0000000    0.0000000    0.0000000  
C   -1.1323862    0.0008904   -0.8673526  
C   -0.6382660    0.0019682   -2.1969280  
N    0.7324018    0.0038477   -2.1202240  
C   -1.4770912    0.0027325   -3.3154810  
C   -2.8395475    0.0020958   -3.0876858  
O   -3.7039195    0.0024443   -4.1440347  
C   -3.3517868    0.0013946   -1.7684332  
O   -4.7300492    0.0012389   -1.7073123  
C   -2.5248543    0.0009136   -0.6644818  
H   -1.1067568    0.0036993   -4.3313811  
H   -4.5940030    0.0021851   -3.7685130  
H   -4.9934599    0.0007287   -0.7819913  
H   -2.9462578    0.0005617    0.3339655  
H    2.1619894    0.0009344   -0.5342067  
C    4.5872052   -2.1313027   -2.8760573  
C    3.4257616   -1.6618688   -2.3075958  
C    2.8225603   -0.7845975   -3.2568816  
C    3.6683566   -0.7581087   -4.3952372  
N    4.7314843   -1.5851520   -4.1299518  
C    3.3837512    0.0055772   -5.5312708  
C    2.2240413    0.7559604   -5.5180178  
O    1.8977517    1.5195620   -6.6012818  
C    1.3675643    0.7429384   -4.3914766  
O    0.2523239    1.5428637   -4.5318410  
C    1.6478436   -0.0100108   -3.2702998  
H    3.0590278   -1.9191273   -1.3286591  
H    5.4907264   -1.7742989   -4.7590434  
H    4.0243517    0.0301901   -6.4020331  
H    1.0629726    1.9557292   -6.3864164  
H   -0.2722933    1.4770481   -3.7280694  
H    5.3248310   -2.8113827   -2.4857258  
C    2.5311839    2.1237619    3.0120429  
C    1.9795631    1.6616747    1.8395852  
C    0.9223175    0.7739173    2.1983588  
C    0.8753926    0.7337535    3.6154372  
N    1.8668922    1.5631002    4.0777464  
C   -0.0496243   -0.0427881    4.3197917  
C   -0.9437528   -0.7922060    3.5801400  
O   -1.8685244   -1.5680278    4.2172520  
C   -0.9124520   -0.7656372    2.1655264  
O   -1.8671164   -1.5663939    1.5732860  
C    0.0000000    0.0000000    1.4700000  
H    2.3005065    1.9304404    0.8477417  
H    2.0679347    1.7444845    5.0445261  
H   -0.0904770   -0.0778569    5.3997470  
H   -2.3849669   -2.0011402    3.5251786  
H   -1.7775064   -1.4909735    0.6183591  
H    3.3468514    2.8078103    3.1724291  
