46
1A 10B 17A 31A 36B 11 15 29 45 43 3 4 2 2 7 2 1 2 0 nosym
C    0.8852641   -0.7074226   -5.2161084  
C    0.5993468   -0.4569339   -6.5382184  
C   -0.5006920    0.4507934   -6.5615731  
C   -0.8459783    0.7210872   -5.2126307  
N    0.0139740    0.0003882   -4.4216236  
C   -1.8906672    1.5794580   -4.8568025  
C   -2.5995126    2.1760696   -5.8813859  
O   -3.6292754    3.0232981   -5.5901735  
C   -2.2703427    1.9186313   -7.2334917  
O   -3.0694405    2.5879579   -8.1372552  
C   -1.2400320    1.0717291   -7.5852622  
H    1.1189315   -0.8776614   -7.3820273  
H   -2.1589207    1.7895000   -3.8305842  
H   -3.9830443    3.3243422   -6.4372181  
H   -2.7809050    2.3591935   -9.0260846  
H   -1.0112991    0.8937149   -8.6295182  
H    1.6408470   -1.3360925   -4.7769874  
C    3.2798084    0.0005857   -1.4499648  
C    2.5571144    0.0005567   -2.5996554  
C    1.1637435    0.0001550   -2.2210360  
C    1.1336965   -0.0000199   -0.7459471  
N    2.4483512   -0.0001427   -0.3402718  
C    0.0000000    0.0000000    0.0000000  
C   -1.2757368   -0.0000186   -0.6964414  
O   -2.3524597   -0.0000639   -0.1142313  
C   -1.2676495   -0.0000872   -2.2584081  
O   -2.3355764   -0.0004099   -2.8557294  
C    0.0181561    0.0001761   -2.9516296  
H    2.9547355    0.0006077   -3.5989105  
H    4.3498548    0.0008614   -1.3200022  
H    2.7563628    0.0012824    0.6148063  
C    2.3971438    2.0127888    3.1728260  
C    1.9431056    1.6308205    1.9564670  
C    0.8496017    0.7127664    2.2356185  
C    0.7794028    0.6545384    3.7115134  
N    1.6840587    1.4146091    4.2663826  
C   -0.1885723   -0.1578550    4.3957118  
C   -1.0476298   -0.8789867    3.6398520  
O   -2.0015663   -1.6796266    4.1448486  
C   -1.0022026   -0.8410666    2.1483229  
O   -1.8147390   -1.5232959    1.5241687  
C    0.0000000    0.0000000    1.4700000  
H    2.3054237    1.9346118    0.9892483  
H   -0.2170646   -0.1815267    5.4753125  
H   -2.4487139   -2.0549881    3.3649027  
H    3.2048689    2.6911772    3.3971983  
