46
1A 10B 17A 31A 32A 41B 11 15 30 45 42 44 3 4 2 2 3 4 2 1 3 0 nosym
C    0.5486490   -0.7097066   -5.2160869  
C    0.2216131   -0.4592703   -6.5286406  
C   -0.8774665    0.4498526   -6.5177133  
C   -1.1798188    0.7210120   -5.1586759  
N   -0.2963293   -0.0005341   -4.3948471  
C   -2.2117140    1.5808272   -4.7704764  
C   -2.9516739    2.1780196   -5.7724738  
O   -3.9706969    3.0266535   -5.4493234  
C   -2.6655131    1.9197351   -7.1341707  
O   -3.4917895    2.5897959   -8.0125958  
C   -1.6478469    1.0714082   -7.5178666  
H    0.7138724   -0.8809265   -7.3882220  
H   -2.4472968    1.7915350   -3.7364045  
H   -4.3505471    3.3278816   -6.2849311  
H   -3.2316376    2.3603830   -8.9099778  
H   -1.4522919    0.8927730   -8.5687358  
H    1.3168713   -1.3392015   -4.8007206  
C    3.1301146   -0.0010313   -1.7028256  
C    2.5367765   -0.0002766   -0.4864669  
C    1.1089901    0.0001027   -0.7656184  
C    1.0177865   -0.0004150   -2.2415133  
N    2.1993571   -0.0011612   -2.7963824  
C   -0.2459219   -0.0002879   -2.9257116  
C   -1.3675326   -0.0000606   -2.1698520  
O   -2.6129318    0.0000865   -2.6748483  
C   -1.3083588    0.0000910   -0.6783229  
O   -2.3693264    0.0004206   -0.0541685  
C    0.0000000    0.0000000    0.0000000  
H    3.0096016   -0.0001007    0.4807518  
H   -3.1967444    0.0002093   -1.8949026  
H    4.1849275   -0.0015114   -1.9271979  
C    2.5528530    2.1414826    2.8079335  
C    2.0663498    1.7338582    4.0032312  
C    0.9804344    0.8229586    3.6752840  
C    0.9495562    0.7966882    2.1971295  
N    1.8690446    1.5676019    1.6831036  
C    0.0000000    0.0000000    1.4700000  
C   -0.8785127   -0.7372425    2.1869543  
O   -1.8187535   -1.5261249    1.6395491  
C   -0.8723269   -0.7321790    3.6796354  
O   -1.7010379   -1.4274584    4.2670412  
C    0.1115397    0.0933559    4.4024240  
H    2.4028853    2.0163452    4.9860947  
H   -2.2861435   -1.9184361    2.3990168  
H    0.0832434    0.0693689    5.4835595  
H    3.3664920    2.8238276    2.6198634  
