46
5B 10B 31A 32A 41B 13 16 44 42 43 7 4 2 3 4 2 0 3 0 nosym
C   -0.8712823    0.0001712   -4.7267111  
C    0.4339910   -0.0007980   -5.1611397  
C    0.3982143   -0.0008778   -6.5870850  
C   -0.9677834    0.0003618   -6.9691514  
N   -1.7116543   -0.0009770   -5.8153445  
C   -1.3793555    0.0009425   -8.3053389  
C   -0.3940115    0.0005663   -9.2734678  
O   -0.7402469    0.0014532  -10.5937462  
C    0.9742895   -0.0010423   -8.9121277  
O    1.8341069   -0.0016465   -9.9910417  
C    1.3810432   -0.0018892   -7.5941455  
H    1.3048040   -0.0024816   -4.5281507  
H   -2.7146164    0.0100178   -5.7714419  
H   -2.4188456    0.0017429   -8.6031026  
H    0.0868488    0.0006963  -11.0929229  
H    2.7374598   -0.0027102   -9.6600491  
H    2.4364414   -0.0033019   -7.3479530  
C    1.0965515    0.0001358   -0.8010304  
C    0.0000000    0.0000000    0.0000000  
C   -1.1546562    0.0001470   -0.8669514  
C   -0.6372012    0.0003520   -2.2486282  
N    0.7342873    0.0007338   -2.1395014  
C   -1.4147737    0.0001354   -3.3608717  
C   -2.8576047   -0.0001047   -3.1854463  
O   -3.6427778   -0.0002491   -4.1244908  
C   -3.4275837   -0.0000725   -1.7311667  
O   -4.6406828    0.0000333   -1.5710061  
C   -2.4891866   -0.0001090   -0.6116745  
H   -2.8919121   -0.0002919    0.3920865  
H    2.1388272    0.0000662   -0.5261647  
H    1.3735873   -0.0006098   -2.9130261  
C    2.5128556    2.1077716    2.9199648  
C    1.9592212    1.6432552    4.0696553  
C    0.8915788    0.7479214    3.6910360  
C    0.8684491    0.7287414    2.2159470  
N    1.8754542    1.5738793    1.8102719  
C    0.0000000    0.0000000    1.4700000  
C   -0.9772830   -0.8200135    2.1664417  
O   -1.8021297   -1.5120829    1.5842315  
C   -0.9711318   -0.8147624    3.7284083  
O   -1.7894187   -1.5009653    4.3257297  
C    0.0140216    0.0115358    4.4216297  
H    2.2638494    1.8988021    5.0689105  
H    0.0117648    0.0094386    5.5031631  
H    3.3327358    2.7953732    2.7900019  
H    2.1123206    1.7707734    0.8551938  
