46
0A 1A 10B 17A 36B 16 11 15 30 42 2 3 4 2 7 3 1 1 0 nosym
C    2.5735767   -2.1179278   -5.9617322  
C    1.9391424   -1.6189415   -7.0757217  
C    0.9107081   -0.7455671   -6.6129687  
C    0.9662631   -0.7513602   -5.1956452  
N    1.9857144   -1.5963093   -4.8331575  
C    0.0950452    0.0004352   -4.4015596  
C   -0.8492640    0.7723719   -5.0500746  
O   -1.7246250    1.5261839   -4.3230777  
C   -0.9206908    0.7910782   -6.4633565  
O   -1.9151535    1.6089112   -6.9588726  
C   -0.0617109    0.0494558   -7.2473693  
H    2.1863831   -1.8562022   -8.0962965  
H    2.2689342   -1.7929986   -3.8902466  
H   -2.2895717    1.9804019   -4.9616587  
H   -1.8950814    1.5642284   -7.9197079  
H   -0.1405641    0.0838154   -8.3276836  
H    3.3979819   -2.8057488   -5.8828885  
C    3.3321174    0.0004718   -1.3379334  
C    2.6974185    0.0000117   -2.5332310  
C    1.2800440   -0.0002117   -2.2052839  
C    1.2395036    0.0000644   -0.7271297  
N    2.4394063    0.0005460   -0.2131035  
C    0.0000000    0.0000000    0.0000000  
C   -1.1468700    0.0000635   -0.7169545  
O   -2.3742202    0.0000073   -0.1695490  
C   -1.1388767    0.0001607   -2.2096357  
O   -2.2206230    0.0000904   -2.7970414  
C    0.1454526    0.0001816   -2.9324241  
H    3.1367988   -0.0000648   -3.5160946  
H   -2.9844344    0.0001025   -0.9290171  
H    4.3940040    0.0007621   -1.1498634  
C    0.8175213    0.6860729    2.3021913  
C    0.0000000    0.0000000    1.4700000  
C   -0.8887526   -0.7456559    2.3478473  
C   -0.4549825   -0.3816753    3.7138435  
N    0.5448156    0.4573574    3.6934124  
C   -1.0945674   -0.9182058    4.8835240  
C   -2.1210866   -1.7789155    4.6970523  
O   -2.8083856   -2.3554314    5.6976972  
C   -2.5824069   -2.1655116    3.3310774  
O   -3.5227682   -2.9541547    3.2362962  
C   -1.9100805   -1.6015804    2.1470656  
H   -0.7567140   -0.6349833    5.8697035  
H   -3.4728268   -2.9124471    5.2533954  
H   -2.2742832   -1.9066565    1.1752040  
H    1.6189533    1.3585343    2.0405121  
