46
0A 4A 5B 35A 36B 16 12 13 45 42 2 1 7 1 7 3 0 2 0 nosym
C    6.0248187   -2.1202135   -4.4616489  
C    5.0783100   -1.6588027   -3.5763868  
C    4.2276820   -0.7722182   -4.3009554  
C    4.7079645   -0.7320399   -5.6349872  
N    5.8010155   -1.5602488   -5.6976512  
C    4.1080824    0.0434942   -6.6317203  
C    3.0030484    0.7918705   -6.2753359  
O    2.3785341    1.5666819   -7.2095005  
C    2.5091459    0.7652698   -4.9493763  
O    1.4023121    1.5649237   -4.7523579  
C    3.1006056    0.0006265   -3.9654949  
H    5.0100915   -1.9272544   -2.5360634  
H    6.3454447   -1.7413608   -6.5215297  
H    4.4693702    0.0785683   -7.6502697  
H    1.6423509    1.9991801   -6.7575668  
H    1.1325952    1.4895590   -3.8319362  
H    6.8427146   -2.8033362   -4.3088466  
C    3.2798083    0.0005856   -1.4499650  
C    2.5571143    0.0005567   -2.5996555  
C    1.1637433    0.0001550   -2.2210361  
C    1.1336964   -0.0000198   -0.7459472  
N    2.4483513   -0.0001427   -0.3402721  
C    0.0000000    0.0000000    0.0000000  
C   -1.2757369   -0.0000185   -0.6964416  
O   -2.3524597   -0.0000637   -0.1142312  
C   -1.2676495   -0.0000871   -2.2584083  
O   -2.3355763   -0.0004098   -2.8557295  
C    0.0181559    0.0001761   -2.9516296  
H    0.0150790    0.0003322   -4.0331631  
H    4.3498547    0.0008612   -1.3200024  
H    2.7563627    0.0012823    0.6148060  
C    0.8400945    0.7047457    2.2710304  
C    0.0000000    0.0000000    1.4700000  
C   -0.8844236   -0.7423113    2.3369512  
C   -0.4878984   -0.4098547    3.7186280  
N    0.5629682    0.4714286    3.6095011  
C   -1.0836927   -0.9095027    4.8308716  
C   -2.1891196   -1.8367527    4.6554461  
O   -2.7906899   -2.3413415    5.5944904  
C   -2.6257283   -2.2031529    3.2011665  
O   -3.5549479   -2.9829990    3.0410059  
C   -1.9068976   -1.5999348    2.0816745  
H   -0.7774656   -0.6525820    5.8354244  
H   -2.2155208   -1.8586617    1.0779135  
H    1.6384792    1.3747609    1.9961646  
H    1.0518368    0.8833920    4.3830260  
