46
0A 1A 10B 22B 31A 32A 41B 16 11 15 29 44 42 43 2 3 4 7 2 3 4 3 1 3 0 nosym
C    4.3307339   -2.1193154   -1.2711418  
C    5.3837983   -1.6206410   -2.0024735  
C    4.8313684   -0.7469983   -2.9854129  
C    3.4246650   -0.7523137   -2.8035251  
N    3.1543582   -1.5972489   -1.7558436  
C    2.5562217   -0.0001540   -3.6003003  
C    3.1180970    0.7716628   -4.5986852  
O    2.3161051    1.5258166   -5.4055771  
C    4.5193622    0.7898947   -4.7960196  
O    4.9243875    1.6076656   -5.8306928  
C    5.3766838    0.0479127   -4.0105334  
H    6.4222899   -1.8582764   -1.8473674  
H    2.2404344   -1.7936469   -1.3895761  
H    2.9018489    1.9798778   -6.0252525  
H    5.8831614    1.5626528   -5.8964989  
H    6.4456538    0.0819122   -4.1855320  
H    4.3255773   -2.8071981   -0.4430423  
C    0.0000000    0.0000000    0.0000000  
C    1.0541688   -0.0001718   -0.8560391  
C    0.5103141   -0.0000448   -2.1935955  
C   -0.9576367    0.0002462   -2.0455732  
N   -1.2018459   -0.0001391   -0.6915971  
C   -1.8348307    0.0008319   -3.0810611  
C   -1.2972843    0.0009743   -4.4314607  
O   -2.0050666    0.0014272   -5.4301322  
C    0.2542627    0.0004194   -4.6117573  
O    0.7184676    0.0002268   -5.7439121  
C    1.0974555    0.0000882   -3.4189128  
H    2.0940752   -0.0005478   -0.5817980  
H   -2.9081051    0.0011669   -2.9507063  
H   -2.1128195    0.0014909   -0.2706793  
C    3.2798086   -0.0005857    2.9199648  
C    2.5571146   -0.0005566    4.0696553  
C    1.1637436   -0.0001548    3.6910360  
C    1.1336965    0.0000200    2.2159470  
N    2.4483514    0.0001428    1.8102719  
C    0.0000000    0.0000000    1.4700000  
C   -1.2757367    0.0000186    2.1664417  
O   -2.3524596    0.0000640    1.5842315  
C   -1.2676493    0.0000873    3.7284083  
O   -2.3355761    0.0004100    4.3257297  
C    0.0181563   -0.0001760    4.4216297  
H    2.9547357   -0.0006076    5.0689105  
H    0.0150794   -0.0003319    5.5031631  
H    4.3498549   -0.0008612    2.7900019  
H    2.7563627   -0.0012824    0.8551938  
