48
4A 5B 17A 31A 35A 36B 11 12 29 47 43 44 1 7 2 2 1 7 2 1 3 0 nosym
C    0.8250154   -0.7186619   -5.2242751  
C   -0.0307352   -0.0004646   -4.4215603  
C   -0.9004936    0.7274898   -5.2865476  
C   -0.5248891    0.4107217   -6.6171509  
N    0.5270189   -0.4682862   -6.5433121  
C   -1.1704575    0.9499720   -7.7339499  
C   -2.2144074    1.8247015   -7.5033098  
O   -2.8796454    2.3800526   -8.5578515  
C   -2.6036860    2.1533957   -6.1829924  
O   -3.6599148    3.0386230   -6.1189942  
C   -1.9670919    1.6219999   -5.0807708  
H    0.9978815   -0.8772750   -7.3300763  
H   -0.8889013    0.7126787   -8.7506213  
H   -3.5609048    2.9516599   -8.1804728  
H   -3.8594888    3.2075696   -5.1931265  
H   -2.2874418    1.8925663   -4.0814470  
H    1.6252982   -1.3885969   -4.9602796  
C    3.2573670   -0.0002920   -1.5109380  
C    2.5379468   -0.0001709   -0.3591961  
C    1.1435043    0.0000332   -0.7338500  
C    1.1092609   -0.0000082   -2.2088477  
N    2.4227562    0.0001909   -2.6182613  
C   -0.0265532   -0.0002522   -2.9515663  
C   -1.3003035   -0.0002639   -2.2514981  
O   -2.3786784   -0.0004131   -2.8306429  
C   -1.2877725    0.0000312   -0.6895608  
O   -2.3539958    0.0003307   -0.0892036  
C    0.0000000    0.0000000    0.0000000  
H    2.9384091   -0.0000369    0.6389239  
H    4.3270394   -0.0004765   -1.6439446  
H    2.7280494   -0.0013406   -3.5742113  
C    2.5311839    2.1237619    3.0120429  
C    1.9795631    1.6616747    1.8395852  
C    0.9223175    0.7739173    2.1983588  
C    0.8753926    0.7337535    3.6154372  
N    1.8668922    1.5631002    4.0777464  
C   -0.0496243   -0.0427881    4.3197917  
C   -0.9437528   -0.7922060    3.5801400  
O   -1.8685244   -1.5680278    4.2172520  
C   -0.9124520   -0.7656372    2.1655264  
O   -1.8671164   -1.5663939    1.5732860  
C    0.0000000    0.0000000    1.4700000  
H    2.3005065    1.9304404    0.8477417  
H    2.0679347    1.7444845    5.0445261  
H   -0.0904770   -0.0778569    5.3997470  
H   -2.3849669   -2.0011402    3.5251786  
H   -1.7775064   -1.4909735    0.6183591  
H    3.3468514    2.8078103    3.1724291  
