48
5B 10B 31A 32A 41B 13 16 47 42 46 7 4 2 3 4 2 0 3 0 nosym
C    3.2973510   -0.0000932   -3.8752371  
C    4.6195929   -0.0007103   -4.2548991  
C    4.6432647   -0.0011483   -5.6810967  
C    3.2943732   -0.0004800   -6.1197509  
N    2.5030713   -0.0017998   -4.9979418  
C    2.9388355   -0.0003674   -7.4719277  
C    3.9636650   -0.0006330   -8.3981585  
O    3.6727441   -0.0001874   -9.7317166  
C    5.3157208   -0.0016745   -7.9801147  
O    6.2197490   -0.0022389   -9.0222650  
C    5.6672033   -0.0020593   -6.6463291  
H    5.4632743   -0.0019353   -3.5861739  
H    1.4991474    0.0088541   -4.9958722  
H    1.9126559   -0.0000035   -7.8127470  
H    4.5199218   -0.0007755  -10.1959957  
H    7.1085256   -0.0029058   -8.6539181  
H    6.7114267   -0.0030425   -6.3563731  
C    3.3321177    0.0004715   -1.3379328  
C    2.6974188    0.0000116   -2.5332306  
C    1.2800443   -0.0002119   -2.2052837  
C    1.2395037    0.0000643   -0.7271292  
N    2.4394063    0.0005459   -0.2131032  
C    0.0000000    0.0000000    0.0000000  
C   -1.1468699    0.0000634   -0.7169542  
O   -2.3742202    0.0000072   -0.1695494  
C   -1.1388764    0.0001607   -2.2096355  
O   -2.2206225    0.0000904   -2.7970414  
C    0.1454529    0.0001815   -2.9324239  
H   -2.9844343    0.0001025   -0.9290170  
H    0.1083582    0.0003681   -4.0135594  
H    4.3940041    0.0007619   -1.1498627  
C    2.5285572    2.1210227    2.9438989  
C    1.9331703    1.6216660    4.0790748  
C    0.8903039    0.7472258    3.6520102  
C    0.8972198    0.7527806    2.2336141  
N    1.9028376    1.5986179    1.8362361  
C    0.0000000    0.0000000    1.4700000  
C   -0.9207814   -0.7726952    2.1506477  
O   -1.8198395   -1.5274828    1.4542253  
C   -0.9436862   -0.7911793    3.5655508  
O   -1.9197945   -1.6098497    4.0950179  
C   -0.0590329   -0.0485852    4.3195194  
H    2.2150357    1.8593692    5.0905303  
H    2.1533708    1.7953814    0.8841339  
H   -2.3621246   -1.9821033    2.1118817  
H   -1.8668290   -1.5649508    5.0545920  
H   -0.1007624   -0.0827977    5.4019087  
H    3.3491200    2.8096064    2.8367138  
