46
5B 10B 17A 36B 41B 13 16 29 43 44 7 4 2 7 4 2 1 2 0 nosym
C   -0.0307354   -0.0004645   -4.4215603  
C    1.0189059   -0.0016748   -5.3107842  
C    0.4547315   -0.0019272   -6.6208633  
C   -0.9553006   -0.0005398   -6.4668061  
N   -1.2160414   -0.0016283   -5.1189823  
C   -1.8348234   -0.0000669   -7.5536496  
C   -1.2808348   -0.0007048   -8.8190637  
O   -2.0937951    0.0000670   -9.9154712  
C    0.1236173   -0.0024642   -8.9932143  
O    0.5198538   -0.0033260  -10.3147050  
C    0.9918889   -0.0032049   -7.9214727  
H    2.0627981   -0.0034040   -5.0475745  
H   -2.1305285    0.0095155   -4.7047719  
H   -2.9104363    0.0008452   -7.4429318  
H   -1.5120539   -0.0008705  -10.6867311  
H    1.4814934   -0.0044777  -10.3438909  
H    2.0630632   -0.0047379   -8.0859766  
C    3.2573669   -0.0002919   -1.5109381  
C    2.5379467   -0.0001709   -0.3591962  
C    1.1435042    0.0000332   -0.7338501  
C    1.1092607   -0.0000081   -2.2088477  
N    2.4227561    0.0001910   -2.6182614  
C   -0.0265534   -0.0002522   -2.9515663  
C   -1.3003036   -0.0002639   -2.2514981  
O   -2.3786785   -0.0004131   -2.8306428  
C   -1.2877726    0.0000312   -0.6895608  
O   -2.3539957    0.0003306   -0.0892035  
C    0.0000000    0.0000000    0.0000000  
H    2.9384091   -0.0000368    0.6389238  
H    4.3270391   -0.0004764   -1.6439447  
H    2.7280492   -0.0013405   -3.5742114  
C    0.0000000    0.0000000    1.4700000  
C    1.0541688    0.0001722    2.3260392  
C    0.5103138    0.0000454    3.6635956  
C   -0.9576371   -0.0002459    3.5155732  
N   -1.2018458    0.0001392    2.1615969  
C   -1.8348311   -0.0008317    4.5510609  
C   -1.2972847   -0.0009736    5.9014604  
O   -2.0050672   -0.0014265    6.9001319  
C    0.2542623   -0.0004184    6.0817573  
O    0.7184670   -0.0002256    7.2139121  
C    1.0974552   -0.0000873    4.8889129  
H    2.0940752    0.0005483    2.0517982  
H   -2.9081052   -0.0011668    4.4207061  
H    2.1707277    0.0000911    5.0223670  
H   -2.1128194   -0.0014912    1.7406791  
