46
5B 10B 27B 32A 41B 13 16 30 42 44 7 4 4 3 4 2 1 2 0 nosym
C    4.7795901    0.0008674   -1.0815733  
C    5.8357360    0.0020741   -1.9630616  
C    7.0295750    0.0025512   -1.1824547  
C    6.6358520    0.0012980    0.1802289  
N    5.2632773    0.0022470    0.2058248  
C    7.5556553    0.0010562    1.2332014  
C    8.8973612    0.0017914    0.9045659  
O    9.8380075    0.0012447    1.8936042  
C    9.3099220    0.0034196   -0.4491726  
O   10.6798046    0.0044028   -0.6127733  
C    8.4030660    0.0039323   -1.4884696  
H    5.7555549    0.0036569   -3.0366359  
H    4.6982920   -0.0088488    1.0356739  
H    7.2620111    0.0002475    2.2738623  
H   10.6976506    0.0022149    1.4528342  
H   10.8735673    0.0054535   -1.5551419  
H    8.7489369    0.0053692   -2.5155283  
C    3.3321168    0.0004716   -1.3379341  
C    2.6974177    0.0000118   -2.5332316  
C    1.2800432   -0.0002116   -2.2052842  
C    1.2395033    0.0000644   -0.7271298  
N    2.4394059    0.0005460   -0.2131041  
C    0.0000000    0.0000000    0.0000000  
C   -1.1468704    0.0000635   -0.7169542  
O   -2.3742206    0.0000074   -0.1695488  
C   -1.1388774    0.0001608   -2.2096352  
O   -2.2206238    0.0000906   -2.7970409  
C    0.1454514    0.0001818   -2.9324241  
H    3.1367978   -0.0000649   -3.5160956  
H   -2.9844350    0.0001027   -0.9290164  
H    0.1083567    0.0003684   -4.0135594  
C    0.8681109    0.7263879    2.2709268  
C    0.6127770    0.5096195    3.5869401  
C   -0.4920590   -0.4175482    3.6542670  
C   -0.8620974   -0.7254003    2.2596025  
N    0.0000000    0.0000000    1.4700000  
C   -1.8641242   -1.5660088    1.8976294  
C   -2.6293522   -2.2103885    2.9520183  
O   -3.5512764   -2.9839180    2.7283916  
C   -2.2549728   -1.8987399    4.4361073  
O   -2.8923672   -2.4351063    5.3323774  
C   -1.1543735   -0.9755647    4.7012123  
H    1.1382914    0.9492124    4.4159191  
H   -2.1192137   -1.7782617    0.8686553  
H   -0.9013378   -0.7652422    5.7314848  
H    1.6172880    1.3558399    1.8188057  
