48
4A 5B 34A 43B 11 12 44 46 1 7 3 4 2 0 2 0 nosym
C    2.8170674   -0.7299976   -3.3539683  
C    1.6478435   -0.0100098   -3.2702997  
C    1.5099598    0.7041928   -4.4972889  
C    2.6345493    0.3775761   -5.2976300  
N    3.4089709   -0.4938077   -4.5726616  
C    2.8289258    0.9022210   -6.5789398  
C    1.8704230    1.7721993   -7.0612132  
O    2.0105459    2.3133922   -8.3063999  
C    0.7415952    2.1105566   -6.2775814  
O   -0.1223396    2.9894084   -6.8977268  
C    0.5493288    1.5935720   -5.0133478  
H    4.2679756   -0.9069777   -4.8879119  
H    3.6839521    0.6573667   -7.1939026  
H    1.2432613    2.8840009   -8.4440388  
H   -0.8566635    3.1656155   -6.3016368  
H   -0.3251170    1.8712826   -4.4365471  
H    3.2763587   -1.3922068   -2.6401832  
C    1.1188643    0.0008224   -0.8003807  
C    0.0000000    0.0000000    0.0000000  
C   -1.1323862    0.0008899   -0.8673529  
C   -0.6382661    0.0019679   -2.1969281  
N    0.7324016    0.0038482   -2.1202240  
C   -1.4770912    0.0027317   -3.3154808  
C   -2.8395475    0.0020941   -3.0876858  
O   -3.7039199    0.0024422   -4.1440350  
C   -3.3517869    0.0013928   -1.7684331  
O   -4.7300495    0.0012361   -1.7073122  
C   -2.5248543    0.0009121   -0.6644817  
H   -1.1067569    0.0036986   -4.3313813  
H   -4.5940034    0.0021826   -3.7685132  
H   -4.9934601    0.0007256   -0.7819917  
H   -2.9462578    0.0005600    0.3339658  
H    2.1619896    0.0009355   -0.5342066  
C    0.8681109    0.7263879    2.2709268  
C    0.6127770    0.5096195    3.5869401  
C   -0.4920590   -0.4175482    3.6542670  
C   -0.8620974   -0.7254003    2.2596025  
N    0.0000000    0.0000000    1.4700000  
C   -1.8641242   -1.5660088    1.8976294  
C   -2.6293522   -2.2103885    2.9520183  
O   -3.5512764   -2.9839180    2.7283916  
C   -2.2549728   -1.8987399    4.4361073  
O   -2.8923672   -2.4351063    5.3323774  
C   -1.1543735   -0.9755647    4.7012123  
H    1.1382914    0.9492124    4.4159191  
H   -2.1192137   -1.7782617    0.8686553  
H   -0.9013378   -0.7652422    5.7314848  
H    1.6172880    1.3558399    1.8188057  
