46
1A 10B 22B 35A 36B 11 15 29 45 42 3 4 7 1 7 2 1 2 0 nosym
C    3.4087107   -0.7064436   -3.0324169  
C    4.6439233   -0.4554586   -3.5835284  
C    4.4407876    0.4527125   -4.6645285  
C    3.0496391    0.7227526   -4.7254374  
N    2.4521485    0.0014830   -3.7217479  
C    2.4867670    1.5814353   -5.6744518  
C    3.3439027    2.1786250   -6.5782552  
O    2.8473368    3.0261782   -7.5259303  
C    4.7348369    1.9214475   -6.5337629  
O    5.4551847    2.5913536   -7.5010632  
C    5.2907837    1.0742382   -5.5979825  
H    5.5765057   -0.8761479   -3.2484096  
H    1.4272946    1.7912867   -5.7262423  
H    3.6036632    3.3276080   -8.0459072  
H    6.3843611    2.3627320   -7.4012286  
H    6.3597906    0.8964356   -5.5885594  
H    3.1341698   -1.3355408   -2.2030662  
C    0.0000000    0.0000000    0.0000000  
C    1.0662923   -0.0000105   -0.8334269  
C    0.4961874    0.0000060   -2.1718887  
C   -0.9663853   -0.0000854   -1.9540249  
N   -1.2632772   -0.0000086   -0.6828660  
C   -1.8985357   -0.0000523   -3.0477261  
C   -1.3925768    0.0004559   -4.3020546  
O   -2.1456376    0.0005405   -5.4151317  
C    0.0786242    0.0009317   -4.5545000  
O    0.4683768    0.0012580   -5.7221103  
C    1.0143173    0.0008436   -3.4159030  
H    2.1107200    0.0000630   -0.5721863  
H   -2.9622180   -0.0003275   -2.8593382  
H   -1.5042263    0.0009682   -6.1484421  
C    1.0965515   -0.0001358    2.2710304  
C    0.0000000    0.0000000    1.4700000  
C   -1.1546562   -0.0001469    2.3369512  
C   -0.6372014   -0.0003519    3.7186280  
N    0.7342871   -0.0007337    3.6095011  
C   -1.4147739   -0.0001353    4.8308716  
C   -2.8576048    0.0001048    4.6554461  
O   -3.6427778    0.0002493    5.5944904  
C   -3.4275839    0.0000726    3.2011665  
O   -4.6406829   -0.0000333    3.0410059  
C   -2.4891866    0.0001091    2.0816745  
H   -1.0150448   -0.0001615    5.8354244  
H   -2.8919121    0.0002919    1.0779135  
H    2.1388271   -0.0000662    1.9961646  
H    1.3735872    0.0006099    4.3830260  
