48
4A 5B 17A 38B 11 12 32 44 1 7 2 7 2 1 1 0 nosym
C    0.6675608   -0.7200182   -5.1594010  
C   -0.1496417   -0.0015611   -4.3176961  
C   -1.0591320    0.7259468   -5.1412006  
C   -0.7463745    0.4086512   -6.4878379  
N    0.3079391   -0.4702277   -6.4630979  
C   -1.4437227    0.9473695   -7.5733229  
C   -2.4757921    1.8220995   -7.2942917  
O   -3.1898672    2.3769430   -8.3166713  
C   -2.8026928    2.1513154   -5.9572919  
O   -3.8548525    3.0364719   -5.8441468  
C   -2.1149942    1.6204447   -4.8859503  
H    0.7413920   -0.8795052   -7.2709294  
H   -1.2101805    0.7096727   -8.6019915  
H   -3.8527232    2.9486467   -7.9079640  
H   -4.0107583    3.2057913   -4.9100011  
H   -2.3881056    1.8914036   -3.8728019  
H    1.4794305   -1.3897672   -4.9329881  
C    3.3003542    0.0005275   -1.4738988  
C    2.5232813    0.0003498   -2.6090748  
C    1.1623199   -0.0001318   -2.1820103  
C    1.1711883    0.0000584   -0.7636141  
N    2.4852299   -0.0014919   -0.3662361  
C    0.0000000    0.0000000    0.0000000  
C   -1.2020384    0.0000520   -0.6806476  
O   -2.3759249    0.0003494    0.0157744  
C   -1.2314658   -0.0005112   -2.0955509  
O   -2.5054393   -0.0008037   -2.6250179  
C   -0.0764518   -0.0007271   -2.8495194  
H    2.8919952   -0.0005618   -3.6205305  
H    2.8036266    0.0088182    0.5858661  
H   -3.0835640    0.0000347   -0.6418816  
H   -2.4360050   -0.0011526   -3.5845920  
H    4.3715548    0.0004895   -1.3667138  
C    0.8175213    0.6860729    2.3021913  
C    0.0000000    0.0000000    1.4700000  
C   -0.8887526   -0.7456559    2.3478473  
C   -0.4549825   -0.3816753    3.7138435  
N    0.5448156    0.4573574    3.6934124  
C   -1.0945674   -0.9182058    4.8835240  
C   -2.1210866   -1.7789155    4.6970523  
O   -2.8083856   -2.3554314    5.6976972  
C   -2.5824069   -2.1655116    3.3310774  
O   -3.5227682   -2.9541547    3.2362962  
C   -1.9100805   -1.6015804    2.1470656  
H   -0.7567140   -0.6349833    5.8697035  
H   -3.4728268   -2.9124471    5.2533954  
H   -2.2742832   -1.9066565    1.1752040  
H    1.6189533    1.3585343    2.0405121  
