46
0A 1A 10B 17A 31A 32A 41B 16 11 15 30 44 42 43 2 3 4 2 2 3 4 3 1 3 0 nosym
C    2.5735767   -2.1179278   -5.9617322  
C    1.9391424   -1.6189415   -7.0757217  
C    0.9107081   -0.7455671   -6.6129687  
C    0.9662631   -0.7513602   -5.1956452  
N    1.9857144   -1.5963093   -4.8331575  
C    0.0950452    0.0004352   -4.4015596  
C   -0.8492640    0.7723719   -5.0500746  
O   -1.7246250    1.5261839   -4.3230777  
C   -0.9206908    0.7910782   -6.4633565  
O   -1.9151535    1.6089112   -6.9588726  
C   -0.0617109    0.0494558   -7.2473693  
H    2.1863831   -1.8562022   -8.0962965  
H    2.2689342   -1.7929986   -3.8902466  
H   -2.2895717    1.9804019   -4.9616587  
H   -1.8950814    1.5642284   -7.9197079  
H   -0.1405641    0.0838154   -8.3276836  
H    3.3979819   -2.8057488   -5.8828885  
C    3.3321174    0.0004718   -1.3379334  
C    2.6974185    0.0000117   -2.5332310  
C    1.2800440   -0.0002117   -2.2052839  
C    1.2395036    0.0000644   -0.7271297  
N    2.4394063    0.0005460   -0.2131035  
C    0.0000000    0.0000000    0.0000000  
C   -1.1468700    0.0000635   -0.7169545  
O   -2.3742202    0.0000073   -0.1695490  
C   -1.1388767    0.0001607   -2.2096357  
O   -2.2206230    0.0000904   -2.7970414  
C    0.1454526    0.0001816   -2.9324241  
H    3.1367988   -0.0000648   -3.5160946  
H   -2.9844344    0.0001025   -0.9290171  
H    4.3940040    0.0007621   -1.1498634  
C    2.5128556    2.1077716    2.9199648  
C    1.9592212    1.6432552    4.0696553  
C    0.8915788    0.7479214    3.6910360  
C    0.8684491    0.7287414    2.2159470  
N    1.8754542    1.5738793    1.8102719  
C    0.0000000    0.0000000    1.4700000  
C   -0.9772830   -0.8200135    2.1664417  
O   -1.8021297   -1.5120829    1.5842315  
C   -0.9711318   -0.8147624    3.7284083  
O   -1.7894187   -1.5009653    4.3257297  
C    0.0140216    0.0115358    4.4216297  
H    2.2638494    1.8988021    5.0689105  
H    0.0117648    0.0094386    5.5031631  
H    3.3327358    2.7953732    2.7900019  
H    2.1123206    1.7707734    0.8551938  
