46
4A 5B 35A 36B 11 12 45 42 1 7 1 7 2 0 2 0 nosym
C    4.4076293   -0.7178010   -4.2555580  
C    3.2973504   -0.0000931   -3.8752375  
C    2.8592410    0.7274892   -5.0212237  
C    3.7483539    0.4110089   -6.0801119  
N    4.6775493   -0.4674764   -5.5806352  
C    3.6181674    0.9500184   -7.3635875  
C    2.5711767    1.8242066   -7.5821820  
O    2.3974785    2.3793024   -8.8169743  
C    1.6738148    2.1526069   -6.5382899  
O    0.6840654    3.0372992   -6.9138672  
C    1.8018023    1.6214484   -5.2717924  
H    5.4301988   -0.8761702   -6.1045335  
H    4.2925555    0.7129424   -8.1748806  
H    1.6210567    2.9505396   -8.7527744  
H    0.1217530    3.2060765   -6.1516843  
H    1.0991518    1.8917795   -4.4922531  
H    5.0291998   -1.3873538   -3.6860777  
C    3.3321173    0.0004715   -1.3379333  
C    2.6974184    0.0000117   -2.5332310  
C    1.2800439   -0.0002118   -2.2052839  
C    1.2395035    0.0000643   -0.7271293  
N    2.4394063    0.0005460   -0.2131035  
C    0.0000000    0.0000000    0.0000000  
C   -1.1468702    0.0000634   -0.7169541  
O   -2.3742202    0.0000072   -0.1695491  
C   -1.1388767    0.0001606   -2.2096353  
O   -2.2206230    0.0000901   -2.7970412  
C    0.1454525    0.0001815   -2.9324239  
H   -2.9844345    0.0001024   -0.9290167  
H    0.1083577    0.0003682   -4.0135594  
H    4.3940039    0.0007620   -1.1498632  
C    0.8400945    0.7047457    2.2710304  
C    0.0000000    0.0000000    1.4700000  
C   -0.8844236   -0.7423113    2.3369512  
C   -0.4878984   -0.4098547    3.7186280  
N    0.5629682    0.4714286    3.6095011  
C   -1.0836927   -0.9095027    4.8308716  
C   -2.1891196   -1.8367527    4.6554461  
O   -2.7906899   -2.3413415    5.5944904  
C   -2.6257283   -2.2031529    3.2011665  
O   -3.5549479   -2.9829990    3.0410059  
C   -1.9068976   -1.5999348    2.0816745  
H   -0.7774656   -0.6525820    5.8354244  
H   -2.2155208   -1.8586617    1.0779135  
H    1.6384792    1.3747609    1.9961646  
H    1.0518368    0.8833920    4.3830260  
