48
0A 1A 10B 17A 31A 32A 41B 16 11 15 30 47 42 46 2 3 4 2 2 3 4 3 1 3 0 nosym
C    2.5735767   -2.1179278   -5.9617322  
C    1.9391424   -1.6189415   -7.0757217  
C    0.9107081   -0.7455671   -6.6129687  
C    0.9662631   -0.7513602   -5.1956452  
N    1.9857144   -1.5963093   -4.8331575  
C    0.0950452    0.0004352   -4.4015596  
C   -0.8492640    0.7723719   -5.0500746  
O   -1.7246250    1.5261839   -4.3230777  
C   -0.9206908    0.7910782   -6.4633565  
O   -1.9151535    1.6089112   -6.9588726  
C   -0.0617109    0.0494558   -7.2473693  
H    2.1863831   -1.8562022   -8.0962965  
H    2.2689342   -1.7929986   -3.8902466  
H   -2.2895717    1.9804019   -4.9616587  
H   -1.8950814    1.5642284   -7.9197079  
H   -0.1405641    0.0838154   -8.3276836  
H    3.3979819   -2.8057488   -5.8828885  
C    3.3321174    0.0004718   -1.3379334  
C    2.6974185    0.0000117   -2.5332310  
C    1.2800440   -0.0002117   -2.2052839  
C    1.2395036    0.0000644   -0.7271297  
N    2.4394063    0.0005460   -0.2131035  
C    0.0000000    0.0000000    0.0000000  
C   -1.1468700    0.0000635   -0.7169545  
O   -2.3742202    0.0000073   -0.1695490  
C   -1.1388767    0.0001607   -2.2096357  
O   -2.2206230    0.0000904   -2.7970414  
C    0.1454526    0.0001816   -2.9324241  
H    3.1367988   -0.0000648   -3.5160946  
H   -2.9844344    0.0001025   -0.9290171  
H    4.3940040    0.0007621   -1.1498634  
C    2.5285572    2.1210227    2.9438989  
C    1.9331703    1.6216660    4.0790748  
C    0.8903039    0.7472258    3.6520102  
C    0.8972198    0.7527806    2.2336141  
N    1.9028376    1.5986179    1.8362361  
C    0.0000000    0.0000000    1.4700000  
C   -0.9207814   -0.7726952    2.1506477  
O   -1.8198395   -1.5274828    1.4542253  
C   -0.9436862   -0.7911793    3.5655508  
O   -1.9197945   -1.6098497    4.0950179  
C   -0.0590329   -0.0485852    4.3195194  
H    2.2150357    1.8593692    5.0905303  
H    2.1533708    1.7953814    0.8841339  
H   -2.3621246   -1.9821033    2.1118817  
H   -1.8668290   -1.5649508    5.0545920  
H   -0.1007624   -0.0827977    5.4019087  
H    3.3491200    2.8096064    2.8367138  
