46
0A 4A 5B 36B 41B 16 12 13 43 45 2 1 7 7 4 3 0 2 0 nosym
C    6.0248187   -2.1202135   -4.4616489  
C    5.0783100   -1.6588027   -3.5763868  
C    4.2276820   -0.7722182   -4.3009554  
C    4.7079645   -0.7320399   -5.6349872  
N    5.8010155   -1.5602488   -5.6976512  
C    4.1080824    0.0434942   -6.6317203  
C    3.0030484    0.7918705   -6.2753359  
O    2.3785341    1.5666819   -7.2095005  
C    2.5091459    0.7652698   -4.9493763  
O    1.4023121    1.5649237   -4.7523579  
C    3.1006056    0.0006265   -3.9654949  
H    5.0100915   -1.9272544   -2.5360634  
H    6.3454447   -1.7413608   -6.5215297  
H    4.4693702    0.0785683   -7.6502697  
H    1.6423509    1.9991801   -6.7575668  
H    1.1325952    1.4895590   -3.8319362  
H    6.8427146   -2.8033362   -4.3088466  
C    3.2798083    0.0005856   -1.4499650  
C    2.5571143    0.0005567   -2.5996555  
C    1.1637433    0.0001550   -2.2210361  
C    1.1336964   -0.0000198   -0.7459472  
N    2.4483513   -0.0001427   -0.3402721  
C    0.0000000    0.0000000    0.0000000  
C   -1.2757369   -0.0000185   -0.6964416  
O   -2.3524597   -0.0000637   -0.1142312  
C   -1.2676495   -0.0000871   -2.2584083  
O   -2.3355763   -0.0004098   -2.8557295  
C    0.0181559    0.0001761   -2.9516296  
H    0.0150790    0.0003322   -4.0331631  
H    4.3498547    0.0008612   -1.3200024  
H    2.7563627    0.0012823    0.6148060  
C    0.0000000    0.0000000    1.4700000  
C    1.0662921    0.0000102    2.3034270  
C    0.4961870   -0.0000064    3.6418889  
C   -0.9663858    0.0000850    3.4240247  
N   -1.2632773    0.0000084    2.1528658  
C   -1.8985362    0.0000517    4.5177257  
C   -1.3925775   -0.0004564    5.7720543  
O   -2.1456383   -0.0005410    6.8851312  
C    0.0786232   -0.0009323    6.0245000  
O    0.4683759   -0.0012588    7.1921102  
C    1.0143166   -0.0008442    4.8859032  
H    2.1107198   -0.0000632    2.0421868  
H   -2.9622183    0.0003270    4.3293377  
H   -1.5042274   -0.0009692    7.6184419  
H    2.0724152   -0.0013148    5.1109744  
