46
5B 10B 31A 35A 36B 13 16 44 45 43 7 4 2 1 7 2 0 3 0 nosym
C    1.6707636   -0.0012341   -3.2725974  
C    3.0463717   -0.0034573   -3.2854247  
C    3.4499895   -0.0053007   -4.6535216  
C    2.2671965   -0.0037951   -5.4364166  
N    1.2050902   -0.0032861   -4.5666193  
C    2.2856090   -0.0046612   -6.8344328  
C    3.5205408   -0.0067845   -7.4533969  
O    3.5962533   -0.0073600   -8.8162173  
C    4.7118869   -0.0086863   -6.6895200  
O    5.8613542   -0.0111078   -7.4524493  
C    4.6944760   -0.0081065   -5.3103091  
H    3.6808661   -0.0048235   -2.4157075  
H    0.2370749    0.0083097   -4.8326886  
H    1.3876878   -0.0036671   -7.4368771  
H    4.5366385   -0.0091915   -9.0374360  
H    6.6195103   -0.0122495   -6.8601641  
H    5.6233663   -0.0097861   -4.7520631  
C    1.0965514    0.0001359   -0.8010306  
C    0.0000000    0.0000000    0.0000000  
C   -1.1546565    0.0001470   -0.8669508  
C   -0.6372019    0.0003521   -2.2486278  
N    0.7342867    0.0007339   -2.1395012  
C   -1.4147744    0.0001355   -3.3608713  
C   -2.8576053   -0.0001045   -3.1854455  
O   -3.6427786   -0.0002490   -4.1244897  
C   -3.4275841   -0.0000724   -1.7311660  
O   -4.6406832    0.0000334   -1.5710050  
C   -2.4891868   -0.0001090   -0.6116739  
H   -1.0150456    0.0001619   -4.3654240  
H   -2.8919122   -0.0002919    0.3920871  
H    2.1388269    0.0000663   -0.5261650  
C    2.4951002    2.0940188    2.9809380  
C    1.9440701    1.6314916    1.8291961  
C    0.8759964    0.7350050    2.2038498  
C    0.8497377    0.7130254    3.6788474  
N    1.8560616    1.5571714    4.0882609  
C   -0.0205033   -0.0168748    4.4215661  
C   -0.9962600   -0.8356168    3.7214979  
O   -1.8224391   -1.5286685    4.3006425  
C   -0.9864710   -0.8277881    2.1595606  
O   -1.8030528   -1.5133726    1.5592035  
C    0.0000000    0.0000000    1.4700000  
H    2.2509283    1.8888011    0.8310761  
H   -0.0229599   -0.0187323    5.5027230  
H    3.3143982    2.7817323    3.1139444  
H    2.0889452    1.7545833    5.0442112  
