46
0A 4A 5B 32A 41B 16 12 13 42 44 2 1 7 3 4 3 0 2 0 nosym
C    2.1121029   -2.1226192   -5.1304014  
C    1.1298504   -1.6609210   -4.2851312  
C    0.3107707   -0.7734093   -5.0440988  
C    0.8462512   -0.7329879   -6.3569404  
N    1.9403871   -1.5619511   -6.3743928  
C    0.2889633    0.0434134   -7.3774399  
C   -0.8294396    0.7924234   -7.0670589  
O   -1.4139462    1.5680922   -8.0260710  
C   -1.3781826    0.7655928   -5.7628436  
O   -2.4917072    1.5659516   -5.6117411  
C   -0.8287665    0.0000939   -4.7555305  
H    1.0181550   -1.9297811   -3.2486801  
H    2.5185469   -1.7430901   -7.1749552  
H    0.6924032    0.0786771   -8.3800338  
H   -2.1680200    2.0009182   -7.6050024  
H   -2.7995953    1.4903753   -4.7033930  
H    2.9224455   -2.8063941   -4.9439720  
C    1.0672569   -0.0000698   -0.8321910  
C    0.0000000    0.0000000    0.0000000  
C   -1.1601223   -0.0000736   -0.8778472  
C   -0.5938729   -0.0000768   -2.2438435  
N    0.7113367   -0.0001553   -2.2234123  
C   -1.4286985   -0.0001877   -3.4135239  
C   -2.7683113   -0.0006798   -3.2270524  
O   -3.6653902   -0.0008302   -4.2276970  
C   -3.3702024   -0.0010610   -1.8610774  
O   -4.5974910   -0.0013779   -1.7662963  
C   -2.4926825   -0.0008943   -0.6770658  
H   -4.5324245   -0.0012258   -3.7833954  
H   -2.9677772   -0.0012974    0.2947961  
H    2.1134391   -0.0000547   -0.5705119  
C    0.8681109    0.7263879    2.2709268  
C    0.6127770    0.5096195    3.5869401  
C   -0.4920590   -0.4175482    3.6542670  
C   -0.8620974   -0.7254003    2.2596025  
N    0.0000000    0.0000000    1.4700000  
C   -1.8641242   -1.5660088    1.8976294  
C   -2.6293522   -2.2103885    2.9520183  
O   -3.5512764   -2.9839180    2.7283916  
C   -2.2549728   -1.8987399    4.4361073  
O   -2.8923672   -2.4351063    5.3323774  
C   -1.1543735   -0.9755647    4.7012123  
H    1.1382914    0.9492124    4.4159191  
H   -2.1192137   -1.7782617    0.8686553  
H   -0.9013378   -0.7652422    5.7314848  
H    1.6172880    1.3558399    1.8188057  
