46
5B 10B 22B 36B 41B 13 16 29 43 44 7 4 7 7 4 2 1 2 0 nosym
C    2.5562217   -0.0001550   -3.6003003  
C    3.5655131   -0.0006160   -2.6655287  
C    4.7980131   -0.0013041   -3.3835423  
C    4.4750732   -0.0009423   -4.7647139  
N    3.1056445   -0.0021962   -4.8610459  
C    5.4479446   -0.0011310   -5.7688610  
C    6.7709219   -0.0013881   -5.3714832  
O    7.7613126   -0.0012295   -6.3107063  
C    7.1131349   -0.0021263   -3.9982730  
O    8.4727598   -0.0027234   -3.7642577  
C    6.1538991   -0.0022139   -3.0071160  
H    3.4300850   -0.0015789   -1.5975158  
H    2.5841959    0.0082882   -5.7189282  
H    5.2083487   -0.0010015   -6.8232780  
H    8.5970861   -0.0017569   -5.8261986  
H    8.6176770   -0.0031742   -2.8131517  
H    6.4463537   -0.0029686   -1.9635895  
C    0.0000000    0.0000000    0.0000000  
C    1.0541688   -0.0001721   -0.8560392  
C    0.5103141   -0.0000453   -2.1935956  
C   -0.9576367    0.0002460   -2.0455735  
N   -1.2018459   -0.0001391   -0.6915971  
C   -1.8348307    0.0008318   -3.0810613  
C   -1.2972842    0.0009738   -4.4314606  
O   -2.0050665    0.0014267   -5.4301324  
C    0.2542628    0.0004186   -4.6117571  
O    0.7184677    0.0002259   -5.7439121  
C    1.0974556    0.0000875   -3.4189129  
H    2.0940752   -0.0005483   -0.5817982  
H   -2.9081051    0.0011669   -2.9507066  
H   -2.1128195    0.0014912   -0.2706794  
C    0.0000000    0.0000000    1.4700000  
C    1.0541688    0.0001722    2.3260392  
C    0.5103138    0.0000454    3.6635956  
C   -0.9576371   -0.0002459    3.5155732  
N   -1.2018458    0.0001392    2.1615969  
C   -1.8348311   -0.0008317    4.5510609  
C   -1.2972847   -0.0009736    5.9014604  
O   -2.0050672   -0.0014265    6.9001319  
C    0.2542623   -0.0004184    6.0817573  
O    0.7184670   -0.0002256    7.2139121  
C    1.0974552   -0.0000873    4.8889129  
H    2.0940752    0.0005483    2.0517982  
H   -2.9081052   -0.0011668    4.4207061  
H    2.1707277    0.0000911    5.0223670  
H   -2.1128194   -0.0014912    1.7406791  
