46
5B 10B 31A 36B 13 16 45 43 7 4 2 7 2 0 2 0 nosym
C   -1.0641738    0.0073906   -4.6315339  
C    0.2077349    0.0079218   -5.1556670  
C    0.0728983    0.0095256   -6.5756724  
C   -1.3163590    0.0101986   -6.8618361  
N   -1.9782040    0.0069177   -5.6591026  
C   -1.8198413    0.0120733   -8.1661718  
C   -0.9041959    0.0135977   -9.2004678  
O   -1.3413935    0.0158085  -10.4934743  
C    0.4859182    0.0125822   -8.9351408  
O    1.2686379    0.0139173  -10.0712273  
C    0.9833277    0.0104596   -7.6486318  
H    1.1204533    0.0061323   -4.5847597  
H   -2.9756929    0.0171073   -5.5455571  
H   -2.8775189    0.0124510   -8.3909373  
H   -0.5510071    0.0162709  -11.0489512  
H    2.1928188    0.0131343   -9.8038460  
H    2.0532906    0.0095434   -7.4764193  
C    1.1319247    0.0015654   -0.8009270  
C    0.7969914    0.0034942   -2.1169404  
C   -0.6453340    0.0035709   -2.1842672  
C   -1.1266834    0.0015432   -0.7896027  
N    0.0000000    0.0000000    0.0000000  
C   -2.4346131    0.0013964   -0.4276296  
C   -3.4350111    0.0031407   -1.4820182  
O   -4.6384613    0.0030972   -1.2583918  
C   -2.9478960    0.0050503   -2.9661074  
O   -3.7809382    0.0062216   -3.8623774  
C   -1.5113824    0.0053087   -3.2312125  
H    1.4821236    0.0045405   -2.9459194  
H   -2.7664566    0.0000231    0.6013448  
H    2.1104318    0.0009391   -0.3488059  
C    2.3971438    2.0127888    3.1728260  
C    1.9431056    1.6308205    1.9564670  
C    0.8496017    0.7127664    2.2356185  
C    0.7794028    0.6545384    3.7115134  
N    1.6840587    1.4146091    4.2663826  
C   -0.1885723   -0.1578550    4.3957118  
C   -1.0476298   -0.8789867    3.6398520  
O   -2.0015663   -1.6796266    4.1448486  
C   -1.0022026   -0.8410666    2.1483229  
O   -1.8147390   -1.5232959    1.5241687  
C    0.0000000    0.0000000    1.4700000  
H    2.3054237    1.9346118    0.9892483  
H   -0.2170646   -0.1815267    5.4753125  
H   -2.4487139   -2.0549881    3.3649027  
H    3.2048689    2.6911772    3.3971983  
