48
5B 10B 36B 41B 13 16 44 47 7 4 7 4 2 0 2 0 nosym
C    3.2973510   -0.0000932   -3.8752371  
C    4.6195929   -0.0007103   -4.2548991  
C    4.6432647   -0.0011483   -5.6810967  
C    3.2943732   -0.0004800   -6.1197509  
N    2.5030713   -0.0017998   -4.9979418  
C    2.9388355   -0.0003674   -7.4719277  
C    3.9636650   -0.0006330   -8.3981585  
O    3.6727441   -0.0001874   -9.7317166  
C    5.3157208   -0.0016745   -7.9801147  
O    6.2197490   -0.0022389   -9.0222650  
C    5.6672033   -0.0020593   -6.6463291  
H    5.4632743   -0.0019353   -3.5861739  
H    1.4991474    0.0088541   -4.9958722  
H    1.9126559   -0.0000035   -7.8127470  
H    4.5199218   -0.0007755  -10.1959957  
H    7.1085256   -0.0029058   -8.6539181  
H    6.7114267   -0.0030425   -6.3563731  
C    3.3321177    0.0004715   -1.3379328  
C    2.6974188    0.0000116   -2.5332306  
C    1.2800443   -0.0002119   -2.2052837  
C    1.2395037    0.0000643   -0.7271292  
N    2.4394063    0.0005459   -0.2131032  
C    0.0000000    0.0000000    0.0000000  
C   -1.1468699    0.0000634   -0.7169542  
O   -2.3742202    0.0000072   -0.1695494  
C   -1.1388764    0.0001607   -2.2096355  
O   -2.2206225    0.0000904   -2.7970414  
C    0.1454529    0.0001815   -2.9324239  
H   -2.9844343    0.0001025   -0.9290170  
H    0.1083582    0.0003681   -4.0135594  
H    4.3940041    0.0007619   -1.1498627  
C    0.0000000    0.0000000    1.4700000  
C    1.0521667    0.0011902    2.3562342  
C    0.4917218    0.0011957    3.6679131  
C   -0.9187428   -0.0003148    3.5178682  
N   -1.1833171    0.0009411    2.1707914  
C   -1.7951701   -0.0010350    4.6072090  
C   -1.2375837   -0.0005224    5.8710424  
O   -2.0474215   -0.0015360    6.9697579  
C    0.1673580    0.0013566    6.0411963  
O    0.5673524    0.0020687    7.3615553  
C    1.0325770    0.0023412    4.9669890  
H    2.0953057    0.0030649    2.0900562  
H   -2.0989778   -0.0102372    1.7591824  
H   -2.8710934   -0.0020419    4.4995513  
H   -1.4634884   -0.0006497    7.7393593  
H    1.5290710    0.0033153    7.3880045  
H    2.1042148    0.0039609    5.1284455  
