48
0A 4A 5B 31A 35A 36B 16 12 13 47 43 44 2 1 7 2 1 7 3 0 3 0 nosym
C    4.6027089   -2.1265791   -2.8462619  
C    3.4309131   -1.6630272   -2.2944635  
C    2.8451604   -0.7759514   -3.2455631  
C    3.7117809   -0.7376939   -4.3678065  
N    4.7699758   -1.5674709   -4.0915609  
C    3.4480290    0.0377286   -5.5009189  
C    2.2881492    0.7879665   -5.5012619  
O    1.9817485    1.5627593   -6.5823861  
C    1.4110652    0.7632977   -4.3908875  
O    0.2984700    1.5646654   -4.5434816  
C    1.6707639   -0.0012345   -3.2725973  
H    3.0462478   -1.9304037   -1.3251669  
H    5.5407092   -1.7501111   -4.7084822  
H    4.1045592    0.0713436   -6.3594292  
H    1.1430813    1.9967000   -6.3784301  
H   -0.2408558    1.4905408   -3.7502371  
H    5.3331290   -2.8106869   -2.4494725  
C    1.0965515    0.0001358   -0.8010305  
C    0.0000000    0.0000000    0.0000000  
C   -1.1546564    0.0001470   -0.8669509  
C   -0.6372017    0.0003518   -2.2486278  
N    0.7342868    0.0007337   -2.1395011  
C   -1.4147742    0.0001351   -3.3608713  
C   -2.8576052   -0.0001048   -3.1854458  
O   -3.6427782   -0.0002494   -4.1244899  
C   -3.4275841   -0.0000725   -1.7311663  
O   -4.6406831    0.0000333   -1.5710053  
C   -2.4891868   -0.0001090   -0.6116741  
H   -1.0150454    0.0001614   -4.3654241  
H   -2.8919123   -0.0002920    0.3920869  
H    2.1388270    0.0000662   -0.5261648  
C    2.5311839    2.1237619    3.0120429  
C    1.9795631    1.6616747    1.8395852  
C    0.9223175    0.7739173    2.1983588  
C    0.8753926    0.7337535    3.6154372  
N    1.8668922    1.5631002    4.0777464  
C   -0.0496243   -0.0427881    4.3197917  
C   -0.9437528   -0.7922060    3.5801400  
O   -1.8685244   -1.5680278    4.2172520  
C   -0.9124520   -0.7656372    2.1655264  
O   -1.8671164   -1.5663939    1.5732860  
C    0.0000000    0.0000000    1.4700000  
H    2.3005065    1.9304404    0.8477417  
H    2.0679347    1.7444845    5.0445261  
H   -0.0904770   -0.0778569    5.3997470  
H   -2.3849669   -2.0011402    3.5251786  
H   -1.7775064   -1.4909735    0.6183591  
H    3.3468514    2.8078103    3.1724291  
