48
0A 4A 5B 27B 31A 35A 36B 16 12 13 29 47 43 44 2 1 7 4 2 1 7 3 1 3 0 nosym
C    6.6682522    0.0022276   -4.3668309  
C    5.4175873    0.0023081   -3.7938519  
C    5.6072942    0.0015089   -2.3801297  
C    7.0065885    0.0012481   -2.1479616  
N    7.6213763   -0.0002536   -3.3754187  
C    7.5601869    0.0007902   -0.8640936  
C    6.6852682    0.0008990    0.2048753  
O    7.1721933    0.0008180    1.4799903  
C    5.2859246    0.0007830   -0.0064392  
O    4.5477717    0.0004895    1.1590965  
C    4.7390840    0.0009613   -1.2727298  
H    4.4834519    0.0017680   -4.3290000  
H    8.6137258    0.0097952   -3.5274775  
H    8.6257728    0.0004456   -0.6804407  
H    6.4039032    0.0006187    2.0656480  
H    3.6139327    0.0004556    0.9276922  
H    6.9558185    0.0022981   -5.4042627  
C    3.2798077    0.0005856   -1.4499661  
C    2.5571132    0.0005565   -2.5996564  
C    1.1637425    0.0001547   -2.2210366  
C    1.1336959   -0.0000200   -0.7459475  
N    2.4483509   -0.0001429   -0.3402730  
C    0.0000000    0.0000000    0.0000000  
C   -1.2757370   -0.0000187   -0.6964411  
O   -2.3524597   -0.0000640   -0.1142306  
C   -1.2676502   -0.0000874   -2.2584078  
O   -2.3355774   -0.0004102   -2.8557287  
C    0.0181551    0.0001758   -2.9516297  
H    2.9547342    0.0006074   -3.5989118  
H    0.0150776    0.0003317   -4.0331632  
H    2.7563626    0.0012823    0.6148051  
C    2.5311839    2.1237619    3.0120429  
C    1.9795631    1.6616747    1.8395852  
C    0.9223175    0.7739173    2.1983588  
C    0.8753926    0.7337535    3.6154372  
N    1.8668922    1.5631002    4.0777464  
C   -0.0496243   -0.0427881    4.3197917  
C   -0.9437528   -0.7922060    3.5801400  
O   -1.8685244   -1.5680278    4.2172520  
C   -0.9124520   -0.7656372    2.1655264  
O   -1.8671164   -1.5663939    1.5732860  
C    0.0000000    0.0000000    1.4700000  
H    2.3005065    1.9304404    0.8477417  
H    2.0679347    1.7444845    5.0445261  
H   -0.0904770   -0.0778569    5.3997470  
H   -2.3849669   -2.0011402    3.5251786  
H   -1.7775064   -1.4909735    0.6183591  
H    3.3468514    2.8078103    3.1724291  
