46
4A 5B 36B 41B 11 12 43 45 1 7 7 4 2 0 2 0 nosym
C    2.9051163   -0.7124842   -3.3209617  
C    1.7334694    0.0049281   -3.2500363  
C    1.6171230    0.7339644   -4.4705154  
C    2.7567449    0.4186351   -5.2539407  
N    3.5189984   -0.4605940   -4.5255565  
C    2.9738869    0.9592194   -6.5249274  
C    2.0231179    1.8338284   -7.0140852  
O    2.1853257    2.3904467   -8.2497545  
C    0.8795483    2.1610972   -6.2472993  
O    0.0258560    3.0463923   -6.8724439  
C    0.6648189    1.6283848   -4.9932519  
H    4.3842810   -0.8687648   -4.8299639  
H    3.8404560    0.7230261   -7.1269851  
H    1.4198483    2.9617214   -8.3945063  
H   -0.7195808    3.2143297   -6.2878716  
H   -0.2205133    1.8978757   -4.4293022  
H    3.3521847   -1.3828198   -2.6070018  
C    1.1319246    0.0015678   -0.8009269  
C    0.7969914    0.0034958   -2.1169402  
C   -0.6453340    0.0035696   -2.1842669  
C   -1.1266833    0.0015410   -0.7896025  
N    0.0000000    0.0000000    0.0000000  
C   -2.4346130    0.0013912   -0.4276293  
C   -3.4350112    0.0031335   -1.4820181  
O   -4.6384613    0.0030876   -1.2583913  
C   -2.9478960    0.0050441   -2.9661073  
O   -3.7809383    0.0062138   -3.8623774  
C   -1.5113825    0.0053055   -3.2312121  
H   -2.7664565    0.0000174    0.6013448  
H   -1.1823532    0.0068381   -4.2614847  
H    2.1104315    0.0009436   -0.3488059  
C    0.0000000    0.0000000    1.4700000  
C    1.0662921    0.0000102    2.3034270  
C    0.4961870   -0.0000064    3.6418889  
C   -0.9663858    0.0000850    3.4240247  
N   -1.2632773    0.0000084    2.1528658  
C   -1.8985362    0.0000517    4.5177257  
C   -1.3925775   -0.0004564    5.7720543  
O   -2.1456383   -0.0005410    6.8851312  
C    0.0786232   -0.0009323    6.0245000  
O    0.4683759   -0.0012588    7.1921102  
C    1.0143166   -0.0008442    4.8859032  
H    2.1107198   -0.0000632    2.0421868  
H   -2.9622183    0.0003270    4.3293377  
H   -1.5042274   -0.0009692    7.6184419  
H    2.0724152   -0.0013148    5.1109744  
