48
1A 10B 17A 31A 35A 36B 11 15 29 47 43 44 3 4 2 2 1 7 2 1 3 0 nosym
C    0.8398293   -0.7093993   -5.2158384  
C    0.5541686   -0.4590034   -6.5380215  
C   -0.5449395    0.4498437   -6.5616412  
C   -0.8899486    0.7208845   -5.2127777  
N   -0.0307352   -0.0004646   -4.4215603  
C   -1.9337575    1.5804289   -4.8572001  
C   -2.6419913    2.1774677   -5.8819576  
O   -3.6708855    3.0258357   -5.5909925  
C   -2.3130853    1.9192980   -7.2339882  
O   -3.1114969    2.5891793   -8.1379461  
C   -1.2836430    1.0712380   -7.5855115  
H    1.0733219   -0.8805091   -7.3817075  
H   -2.2017956    1.7910450   -3.8310432  
H   -4.0243458    3.3269951   -6.4381250  
H   -2.8231961    2.3598603   -9.0267096  
H   -1.0550927    0.8926851   -8.6297154  
H    1.5947677   -1.3387150   -4.7765340  
C    3.2573670   -0.0002920   -1.5109380  
C    2.5379468   -0.0001709   -0.3591961  
C    1.1435043    0.0000332   -0.7338500  
C    1.1092609   -0.0000082   -2.2088477  
N    2.4227562    0.0001909   -2.6182613  
C   -0.0265532   -0.0002522   -2.9515663  
C   -1.3003035   -0.0002639   -2.2514981  
O   -2.3786784   -0.0004131   -2.8306429  
C   -1.2877725    0.0000312   -0.6895608  
O   -2.3539958    0.0003307   -0.0892036  
C    0.0000000    0.0000000    0.0000000  
H    2.9384091   -0.0000369    0.6389239  
H    4.3270394   -0.0004765   -1.6439446  
H    2.7280494   -0.0013406   -3.5742113  
C    2.5311839    2.1237619    3.0120429  
C    1.9795631    1.6616747    1.8395852  
C    0.9223175    0.7739173    2.1983588  
C    0.8753926    0.7337535    3.6154372  
N    1.8668922    1.5631002    4.0777464  
C   -0.0496243   -0.0427881    4.3197917  
C   -0.9437528   -0.7922060    3.5801400  
O   -1.8685244   -1.5680278    4.2172520  
C   -0.9124520   -0.7656372    2.1655264  
O   -1.8671164   -1.5663939    1.5732860  
C    0.0000000    0.0000000    1.4700000  
H    2.3005065    1.9304404    0.8477417  
H    2.0679347    1.7444845    5.0445261  
H   -0.0904770   -0.0778569    5.3997470  
H   -2.3849669   -2.0011402    3.5251786  
H   -1.7775064   -1.4909735    0.6183591  
H    3.3468514    2.8078103    3.1724291  
