46
0A 1A 10B 27B 31A 35A 36B 16 11 15 30 44 45 43 2 3 4 4 2 1 7 3 1 3 0 nosym
C   -4.3568015    2.1196432   -0.0439433  
C   -5.5783087    1.6201329   -0.4323717  
C   -5.3394747    0.7460399   -1.5339705  
C   -3.9416100    0.7519547   -1.7745206  
N   -3.3751248    1.5976638   -0.8533862  
C   -3.3460097   -0.0004262   -2.7913647  
C   -4.1766439   -0.7730845   -3.5795420  
O   -3.6475256   -1.5274889   -4.5864787  
C   -5.5738550   -0.7919240   -3.3553485  
O   -6.2652638   -1.6105065   -4.2243825  
C   -6.1621470   -0.0497244   -2.3525632  
H   -6.5251586    1.8575141    0.0216316  
H   -2.3939629    1.7946126   -0.7726814  
H   -4.3895800   -1.9821535   -5.0058840  
H   -7.2009062   -1.5658644   -4.0048715  
H   -7.2352197   -0.0842034   -2.2048989  
H   -4.1083019    2.8080663    0.7455372  
C    0.0000000    0.0000000    0.0000000  
C    1.0662919   -0.0000103   -0.8334272  
C    0.4961868    0.0000066   -2.1718889  
C   -0.9663860   -0.0000849   -1.9540248  
N   -1.2632775   -0.0000084   -0.6828659  
C   -1.8985364   -0.0000515   -3.0477258  
C   -1.3925778    0.0004567   -4.3020543  
O   -2.1456385    0.0005412   -5.4151314  
C    0.0786229    0.0009326   -4.5544999  
O    0.4683756    0.0012594   -5.7221104  
C    1.0143162    0.0008443   -3.4159034  
H    2.1107195    0.0000631   -0.5721869  
H   -1.5042277    0.0009692   -6.1484420  
H    2.0724151    0.0013151   -3.6409746  
C    3.2573670    0.0002920    2.9809380  
C    2.5379467    0.0001709    1.8291961  
C    1.1435042   -0.0000331    2.2038498  
C    1.1092607    0.0000083    3.6788474  
N    2.4227561   -0.0001909    4.0882609  
C   -0.0265533    0.0002524    4.4215661  
C   -1.3003036    0.0002640    3.7214979  
O   -2.3786784    0.0004133    4.3006425  
C   -1.2877726   -0.0000311    2.1595606  
O   -2.3539958   -0.0003306    1.5592035  
C    0.0000000    0.0000000    1.4700000  
H    2.9384090    0.0000368    0.8310761  
H   -0.0296291    0.0004086    5.5027230  
H    4.3270393    0.0004765    3.1139444  
H    2.7280493    0.0013407    5.0442112  
