46
5B 10B 36B 41B 13 16 43 45 7 4 7 4 2 0 2 0 nosym
C   -0.8287671    0.0000935   -4.7555305  
C    0.4934746   -0.0006598   -5.1351931  
C    0.5171460   -0.0005564   -6.5613908  
C   -0.8317454    0.0005673   -7.0000442  
N   -1.6230473   -0.0010138   -5.8782355  
C   -1.1872834    0.0012736   -8.3522208  
C   -0.1624543    0.0011447   -9.2784520  
O   -0.4533751    0.0021631  -10.6120096  
C    1.1896014   -0.0003450   -8.8604091  
O    2.0936292   -0.0007027   -9.9025598  
C    1.5410840   -0.0013157   -7.5266238  
H    1.3371559   -0.0023206   -4.4664687  
H   -2.6269690    0.0098532   -5.8761615  
H   -2.2134630    0.0019867   -8.6930396  
H    0.3938023    0.0015725  -11.0762892  
H    2.9824058   -0.0017001   -9.5342134  
H    2.5853074   -0.0026324   -7.2366685  
C    1.0672566   -0.0000698   -0.8321912  
C    0.0000000    0.0000000    0.0000000  
C   -1.1601226   -0.0000736   -0.8778472  
C   -0.5938732   -0.0000770   -2.2438435  
N    0.7113365   -0.0001555   -2.2234123  
C   -1.4286989   -0.0001880   -3.4135239  
C   -2.7683117   -0.0006800   -3.2270522  
O   -3.6653907   -0.0008306   -4.2276967  
C   -3.3702026   -0.0010611   -1.8610771  
O   -4.5974909   -0.0013781   -1.7662957  
C   -2.4926826   -0.0008944   -0.6770655  
H   -4.5324249   -0.0012263   -3.7833950  
H   -2.9677773   -0.0012975    0.2947963  
H    2.1134390   -0.0000546   -0.5705121  
C    0.0000000    0.0000000    1.4700000  
C    1.0662921    0.0000102    2.3034270  
C    0.4961870   -0.0000064    3.6418889  
C   -0.9663858    0.0000850    3.4240247  
N   -1.2632773    0.0000084    2.1528658  
C   -1.8985362    0.0000517    4.5177257  
C   -1.3925775   -0.0004564    5.7720543  
O   -2.1456383   -0.0005410    6.8851312  
C    0.0786232   -0.0009323    6.0245000  
O    0.4683759   -0.0012588    7.1921102  
C    1.0143166   -0.0008442    4.8859032  
H    2.1107198   -0.0000632    2.0421868  
H   -2.9622183    0.0003270    4.3293377  
H   -1.5042274   -0.0009692    7.6184419  
H    2.0724152   -0.0013148    5.1109744  
