48
5B 10B 33A 37A 38B 13 16 46 47 45 7 4 2 1 7 2 0 3 0 nosym
C    1.6478437   -0.0100108   -3.2702996  
C    3.0229820   -0.0125910   -3.3084441  
C    3.4013256   -0.0286724   -4.6836523  
C    2.2043093   -0.0350842   -5.4445971  
N    1.1584083   -0.0253917   -4.5554320  
C    2.1969617   -0.0504355   -6.8426313  
C    3.4202805   -0.0591719   -7.4841864  
O    3.4708714   -0.0738774   -8.8480914  
C    4.6254979   -0.0533548   -6.7424089  
O    5.7607140   -0.0638668   -7.5263196  
C    4.6335004   -0.0384847   -5.3631914  
H    3.6733923   -0.0050510   -2.4505965  
H    0.1856549   -0.0163950   -4.8037280  
H    1.2880935   -0.0555359   -7.4284087  
H    4.4070213   -0.0781537   -9.0865666  
H    6.5296536   -0.0589964   -6.9481225  
H    5.5725180   -0.0345326   -4.8221659  
C    1.1188643    0.0008217   -0.8003807  
C    0.0000000    0.0000000    0.0000000  
C   -1.1323860    0.0008904   -0.8673529  
C   -0.6382660    0.0019682   -2.1969281  
N    0.7324017    0.0038477   -2.1202240  
C   -1.4770912    0.0027325   -3.3154809  
C   -2.8395473    0.0020958   -3.0876859  
O   -3.7039196    0.0024444   -4.1440351  
C   -3.3517869    0.0013946   -1.7684333  
O   -4.7300495    0.0012389   -1.7073124  
C   -2.5248543    0.0009136   -0.6644818  
H   -1.1067569    0.0036993   -4.3313814  
H   -4.5940029    0.0021850   -3.7685131  
H   -4.9934601    0.0007287   -0.7819918  
H   -2.9462578    0.0005617    0.3339657  
H    2.1619895    0.0009344   -0.5342066  
C    2.4951002    2.0940188    2.9809380  
C    1.9440701    1.6314916    1.8291961  
C    0.8759964    0.7350050    2.2038498  
C    0.8497377    0.7130254    3.6788474  
N    1.8560616    1.5571714    4.0882609  
C   -0.0205033   -0.0168748    4.4215661  
C   -0.9962600   -0.8356168    3.7214979  
O   -1.8224391   -1.5286685    4.3006425  
C   -0.9864710   -0.8277881    2.1595606  
O   -1.8030528   -1.5133726    1.5592035  
C    0.0000000    0.0000000    1.4700000  
H    2.2509283    1.8888011    0.8310761  
H   -0.0229599   -0.0187323    5.5027230  
H    3.3143982    2.7817323    3.1139444  
H    2.0889452    1.7545833    5.0442112  
