48
0A 1A 10B 22B 33A 38B 16 11 15 30 47 45 2 3 4 7 2 7 3 1 2 0 nosym
C    4.3172329   -2.1275107   -1.4345757  
C    5.3517656   -1.6298993   -2.1925942  
C    4.7753756   -0.7549190   -3.1604702  
C    3.3738328   -0.7583605   -2.9423147  
N    3.1294743   -1.6035137   -1.8884538  
C    2.4861704   -0.0045250   -3.7159919  
C    3.0231693    0.7670716   -4.7281422  
O    2.2016776    1.5228139   -5.5136483  
C    4.4188951    0.7834462   -4.9615918  
O    4.7982245    1.6012379   -6.0059423  
C    5.2951623    0.0398105   -4.1989071  
H    6.3935781   -1.8690833   -2.0644885  
H    2.2250366   -1.7988359   -1.4988095  
H    2.7718664    1.9764050   -6.1480017  
H    5.7549141    1.5549147   -6.0965130  
H    6.3593034    0.0724071   -4.4014377  
H    4.3324880   -2.8158588   -0.6069876  
C    0.0000000    0.0000000    0.0000000  
C    1.0521669   -0.0011846   -0.8862340  
C    0.4917221   -0.0011929   -2.1979129  
C   -0.9187427    0.0003105   -2.0478683  
N   -1.1833170   -0.0009470   -0.7007914  
C   -1.7951698    0.0010264   -3.1372090  
C   -1.2375835    0.0005167   -4.4010424  
O   -2.0474208    0.0015263   -5.4997579  
C    0.1673584   -0.0013551   -4.5711963  
O    0.5673529   -0.0020652   -5.8915551  
C    1.0325773   -0.0023355   -3.4969889  
H    2.0953059   -0.0030541   -0.6200561  
H   -2.0989778    0.0102266   -0.2891826  
H   -2.8710930    0.0020277   -3.0295514  
H   -1.4634881    0.0006434   -6.2693595  
H    1.5290714   -0.0033067   -5.9180046  
C    3.1301144    0.0010313    3.1728260  
C    2.5367765    0.0002768    1.9564670  
C    1.1089900   -0.0001027    2.2356185  
C    1.0177864    0.0004150    3.7115134  
N    2.1993570    0.0011613    4.2663826  
C   -0.2459220    0.0002880    4.3957118  
C   -1.3675327    0.0000606    3.6398520  
O   -2.6129319   -0.0000866    4.1448486  
C   -1.3083589   -0.0000910    2.1483229  
O   -2.3693264   -0.0004206    1.5241687  
C    0.0000000    0.0000000    1.4700000  
H    3.0096015    0.0001008    0.9892483  
H   -0.2829642    0.0004689    5.4753125  
H   -3.1967446   -0.0002093    3.3649027  
H    4.1849273    0.0015113    3.3971983  
