48
1A 10B 17A 33A 38B 11 15 32 47 45 3 4 2 2 7 2 1 2 0 nosym
C    0.6936363   -0.7066091   -5.1527423  
C    0.3462071   -0.4553038   -6.4598787  
C   -0.7528353    0.4534783   -6.4312302  
C   -1.0341492    0.7235440   -5.0674656  
N   -0.1387079    0.0017019   -4.3179684  
C   -2.0601488    1.5827606   -4.6626686  
C   -2.8157360    2.1804680   -5.6526242  
O   -3.8298705    3.0285550   -5.3130766  
C   -2.5506566    1.9232744   -7.0187869  
O   -3.3906541    2.5937328   -7.8837921  
C   -1.5388178    1.0755383   -7.4188520  
H    0.8251963   -0.8761771   -7.3273054  
H   -2.2797244    1.7926345   -3.6249109  
H   -4.2227242    3.3302844   -6.1424684  
H   -3.1443868    2.3650606   -8.7852714  
H   -1.3595351    0.8977373   -8.4727608  
H    1.4683923   -1.3361779   -4.7498094  
C    3.3041273    0.0001178   -1.5420428  
C    2.5845373   -0.0004780   -0.3695851  
C    1.2040007   -0.0000007   -0.7283589  
C    1.1422374    0.0006038   -2.1454372  
N    2.4348641    0.0026111   -2.6077464  
C   -0.0655179    0.0008799   -2.8497918  
C   -1.2321766    0.0002325   -2.1101402  
O   -2.4392814    0.0001148   -2.7472522  
C   -1.1911209   -0.0000007   -0.6955266  
O   -2.4371528   -0.0002320   -0.1032862  
C    0.0000000    0.0000000    0.0000000  
H    3.0031533   -0.0000660    0.6222584  
H    2.7054631   -0.0071097   -3.5745261  
H   -3.1132988   -0.0000648   -2.0551787  
H   -2.3200282   -0.0004072    0.8516409  
H    4.3686625    0.0004073   -1.7024290  
C    2.3971438    2.0127888    3.1728260  
C    1.9431056    1.6308205    1.9564670  
C    0.8496017    0.7127664    2.2356185  
C    0.7794028    0.6545384    3.7115134  
N    1.6840587    1.4146091    4.2663826  
C   -0.1885723   -0.1578550    4.3957118  
C   -1.0476298   -0.8789867    3.6398520  
O   -2.0015663   -1.6796266    4.1448486  
C   -1.0022026   -0.8410666    2.1483229  
O   -1.8147390   -1.5232959    1.5241687  
C    0.0000000    0.0000000    1.4700000  
H    2.3054237    1.9346118    0.9892483  
H   -0.2170646   -0.1815267    5.4753125  
H   -2.4487139   -2.0549881    3.3649027  
H    3.2048689    2.6911772    3.3971983  
