48
1A 10B 17A 33A 34A 43B 11 15 32 47 44 46 3 4 2 2 3 4 2 1 3 0 nosym
C    0.6827534   -0.7107507   -5.1516730  
C    0.3353063   -0.4609401   -6.4590916  
C   -0.7638012    0.4477949   -6.4314645  
C   -1.0451346    0.7193736   -5.0680043  
N   -0.1496417   -0.0015611   -4.3176961  
C   -2.0711958    1.5789713   -4.6641738  
C   -2.8268258    2.1755111   -5.6548008  
O   -3.8410213    3.0239068   -5.3162069  
C   -2.5617279    1.9168006   -7.0206739  
O   -3.4017733    2.5862257   -7.8864323  
C   -1.5498282    1.0686877   -7.4197851  
H    0.8143257   -0.8827541   -7.3260441  
H   -2.2907866    1.7899961   -3.6266526  
H   -4.2338965    3.3246753   -6.1459370  
H   -3.1554896    2.3565578   -8.7876540  
H   -1.3705326    0.8897147   -8.4734928  
H    1.4575545   -1.3398105   -4.7480325  
C    3.3003542    0.0005275   -1.4738988  
C    2.5232813    0.0003498   -2.6090748  
C    1.1623199   -0.0001318   -2.1820103  
C    1.1711883    0.0000584   -0.7636141  
N    2.4852299   -0.0014919   -0.3662361  
C    0.0000000    0.0000000    0.0000000  
C   -1.2020384    0.0000520   -0.6806476  
O   -2.3759249    0.0003494    0.0157744  
C   -1.2314658   -0.0005112   -2.0955509  
O   -2.5054393   -0.0008037   -2.6250179  
C   -0.0764518   -0.0007271   -2.8495194  
H    2.8919952   -0.0005618   -3.6205305  
H    2.8036266    0.0088182    0.5858661  
H   -3.0835640    0.0000347   -0.6418816  
H   -2.4360050   -0.0011526   -3.5845920  
H    4.3715548    0.0004895   -1.3667138  
C    2.5528530    2.1414826    2.8079335  
C    2.0663498    1.7338582    4.0032312  
C    0.9804344    0.8229586    3.6752840  
C    0.9495562    0.7966882    2.1971295  
N    1.8690446    1.5676019    1.6831036  
C    0.0000000    0.0000000    1.4700000  
C   -0.8785127   -0.7372425    2.1869543  
O   -1.8187535   -1.5261249    1.6395491  
C   -0.8723269   -0.7321790    3.6796354  
O   -1.7010379   -1.4274584    4.2670412  
C    0.1115397    0.0933559    4.4024240  
H    2.4028853    2.0163452    4.9860947  
H   -2.2861435   -1.9184361    2.3990168  
H    0.0832434    0.0693689    5.4835595  
H    3.3664920    2.8238276    2.6198634  
