46
0A 1A 10B 31A 32A 41B 16 11 15 45 42 44 2 3 4 2 3 4 3 0 3 0 nosym
C    6.2083775   -2.1196915   -4.1881950  
C    6.1278544   -1.6207757   -5.4676738  
C    5.0010413   -0.7469358   -5.5036782  
C    4.4284865   -0.7523856   -4.2059582  
N    5.1848103   -1.5975862   -3.4325067  
C    3.2973504   -0.0000931   -3.8752375  
C    2.7341217    0.7719967   -4.8726485  
O    1.6287286    1.5262899   -4.6040199  
C    3.2906477    0.7903661   -6.1737092  
O    2.6151860    1.6084081   -7.0556964  
C    4.4063696    0.0482534   -6.5007560  
H    6.7980944   -1.8583806   -6.2759533  
H    5.0250632   -1.7941302   -2.4609962  
H    1.4018234    1.9805356   -5.4258712  
H    3.0551817    1.5634730   -7.9100901  
H    4.8099968    0.0823635   -7.5059421  
H    6.9141089   -2.8077707   -3.7552423  
C    3.3321173    0.0004715   -1.3379333  
C    2.6974184    0.0000117   -2.5332310  
C    1.2800439   -0.0002118   -2.2052839  
C    1.2395035    0.0000643   -0.7271293  
N    2.4394063    0.0005460   -0.2131035  
C    0.0000000    0.0000000    0.0000000  
C   -1.1468702    0.0000634   -0.7169541  
O   -2.3742202    0.0000072   -0.1695491  
C   -1.1388767    0.0001606   -2.2096353  
O   -2.2206230    0.0000901   -2.7970412  
C    0.1454525    0.0001815   -2.9324239  
H   -2.9844345    0.0001024   -0.9290167  
H    0.1083577    0.0003682   -4.0135594  
H    4.3940039    0.0007620   -1.1498632  
C    2.5528530    2.1414826    2.8079335  
C    2.0663498    1.7338582    4.0032312  
C    0.9804344    0.8229586    3.6752840  
C    0.9495562    0.7966882    2.1971295  
N    1.8690446    1.5676019    1.6831036  
C    0.0000000    0.0000000    1.4700000  
C   -0.8785127   -0.7372425    2.1869543  
O   -1.8187535   -1.5261249    1.6395491  
C   -0.8723269   -0.7321790    3.6796354  
O   -1.7010379   -1.4274584    4.2670412  
C    0.1115397    0.0933559    4.4024240  
H    2.4028853    2.0163452    4.9860947  
H   -2.2861435   -1.9184361    2.3990168  
H    0.0832434    0.0693689    5.4835595  
H    3.3664920    2.8238276    2.6198634  
