46
0A 4A 5B 31A 32A 41B 16 12 13 44 42 43 2 1 7 2 3 4 3 0 3 0 nosym
C    2.1121029   -2.1226192   -5.1304014  
C    1.1298504   -1.6609210   -4.2851312  
C    0.3107707   -0.7734093   -5.0440988  
C    0.8462512   -0.7329879   -6.3569404  
N    1.9403871   -1.5619511   -6.3743928  
C    0.2889633    0.0434134   -7.3774399  
C   -0.8294396    0.7924234   -7.0670589  
O   -1.4139462    1.5680922   -8.0260710  
C   -1.3781826    0.7655928   -5.7628436  
O   -2.4917072    1.5659516   -5.6117411  
C   -0.8287665    0.0000939   -4.7555305  
H    1.0181550   -1.9297811   -3.2486801  
H    2.5185469   -1.7430901   -7.1749552  
H    0.6924032    0.0786771   -8.3800338  
H   -2.1680200    2.0009182   -7.6050024  
H   -2.7995953    1.4903753   -4.7033930  
H    2.9224455   -2.8063941   -4.9439720  
C    1.0672569   -0.0000698   -0.8321910  
C    0.0000000    0.0000000    0.0000000  
C   -1.1601223   -0.0000736   -0.8778472  
C   -0.5938729   -0.0000768   -2.2438435  
N    0.7113367   -0.0001553   -2.2234123  
C   -1.4286985   -0.0001877   -3.4135239  
C   -2.7683113   -0.0006798   -3.2270524  
O   -3.6653902   -0.0008302   -4.2276970  
C   -3.3702024   -0.0010610   -1.8610774  
O   -4.5974910   -0.0013779   -1.7662963  
C   -2.4926825   -0.0008943   -0.6770658  
H   -4.5324245   -0.0012258   -3.7833954  
H   -2.9677772   -0.0012974    0.2947961  
H    2.1134391   -0.0000547   -0.5705119  
C    2.5128556    2.1077716    2.9199648  
C    1.9592212    1.6432552    4.0696553  
C    0.8915788    0.7479214    3.6910360  
C    0.8684491    0.7287414    2.2159470  
N    1.8754542    1.5738793    1.8102719  
C    0.0000000    0.0000000    1.4700000  
C   -0.9772830   -0.8200135    2.1664417  
O   -1.8021297   -1.5120829    1.5842315  
C   -0.9711318   -0.8147624    3.7284083  
O   -1.7894187   -1.5009653    4.3257297  
C    0.0140216    0.0115358    4.4216297  
H    2.2638494    1.8988021    5.0689105  
H    0.0117648    0.0094386    5.5031631  
H    3.3327358    2.7953732    2.7900019  
H    2.1123206    1.7707734    0.8551938  
