48
5B 10B 27B 31A 35A 36B 13 16 29 47 43 44 7 4 4 2 1 7 2 1 3 0 nosym
C   -3.2941076    0.0012874   -2.9038237  
C   -4.0470173    0.0024418   -1.7524797  
C   -5.4166997    0.0030193   -2.1506880  
C   -5.4378081    0.0018785   -3.5689540  
N   -4.1324579    0.0027949   -3.9940142  
C   -6.6248729    0.0017547   -4.3076470  
C   -7.8122586    0.0024945   -3.6017482  
O   -9.0006005    0.0020605   -4.2732070  
C   -7.8117774    0.0040116   -2.1865401  
O   -9.0742767    0.0050150   -1.6302687  
C   -6.6410879    0.0044079   -1.4571491  
H   -3.6570098    0.0039261   -0.7490430  
H   -3.8342561   -0.0082407   -4.9526251  
H   -6.6477244    0.0010319   -5.3887014  
H   -9.6941833    0.0030130   -3.6007434  
H   -8.9845798    0.0059859   -0.6723767  
H   -6.6721590    0.0057614   -0.3738621  
C    0.0000000    0.0000000    0.0000000  
C    1.0541688   -0.0001722   -0.8560393  
C    0.5103135   -0.0000454   -2.1935957  
C   -0.9576374    0.0002459   -2.0455730  
N   -1.2018460   -0.0001391   -0.6915968  
C   -1.8348314    0.0008317   -3.0810607  
C   -1.2972851    0.0009737   -4.4314604  
O   -2.0050676    0.0014265   -5.4301315  
C    0.2542619    0.0004184   -4.6117571  
O    0.7184666    0.0002257   -5.7439121  
C    1.0974550    0.0000874   -3.4189130  
H    2.0940752   -0.0005483   -0.5817984  
H    2.1707276   -0.0000911   -3.5523671  
H   -2.1128194    0.0014912   -0.2706789  
C    3.3041272   -0.0001177    3.0120429  
C    2.5845372    0.0004780    1.8395852  
C    1.2040006    0.0000008    2.1983588  
C    1.1422373   -0.0006037    3.6154372  
N    2.4348639   -0.0026109    4.0777464  
C   -0.0655181   -0.0008797    4.3197917  
C   -1.2321768   -0.0002324    3.5801400  
O   -2.4392816   -0.0001146    4.2172520  
C   -1.1911209    0.0000007    2.1655264  
O   -2.4371527    0.0002320    1.5732860  
C    0.0000000    0.0000000    1.4700000  
H    3.0031534    0.0000661    0.8477417  
H    2.7054629    0.0071099    5.0445261  
H   -0.1193549   -0.0014844    5.3997470  
H   -3.1132988    0.0000648    3.5251786  
H   -2.3200282    0.0004071    0.6183591  
H    4.3686625   -0.0004071    3.1724291  
