46
4A 5B 22B 32A 41B 11 12 29 42 44 1 7 7 3 4 2 1 2 0 nosym
C    5.5836006   -0.0003157   -1.0808169  
C    4.5679461   -0.0016854   -2.0086701  
C    5.1807166   -0.0020961   -3.2967354  
C    6.5840017   -0.0012107   -3.0900579  
N    6.7941553    0.0018107   -1.7334283  
C    7.5035528   -0.0016221   -4.1432508  
C    6.9972721   -0.0032586   -5.4284959  
O    7.8506656   -0.0040788   -6.4937345  
C    5.6003143   -0.0037867   -5.6550440  
O    5.2537722   -0.0050290   -6.9904282  
C    4.6925710   -0.0031081   -4.6165223  
H    7.6925282   -0.0074987   -1.2852981  
H    8.5742733   -0.0008082   -3.9923871  
H    7.2981727   -0.0048903   -7.2862087  
H    4.2938960   -0.0053405   -7.0555540  
H    3.6282967   -0.0033562   -4.8209687  
H    5.5402818    0.0007586   -0.0051398  
C    3.1301149   -0.0010311   -1.7028252  
C    2.5367768   -0.0002767   -0.4864665  
C    1.1089904    0.0001028   -0.7656183  
C    1.0177872   -0.0004148   -2.2415132  
N    2.1993578   -0.0011611   -2.7963820  
C   -0.2459209   -0.0002877   -2.9257118  
C   -1.3675319   -0.0000605   -2.1698524  
O   -2.6129313    0.0000867   -2.6748490  
C   -1.3083584    0.0000910   -0.6783232  
O   -2.3693261    0.0004206   -0.0541692  
C    0.0000000    0.0000000    0.0000000  
H    3.0096017   -0.0001007    0.4807525  
H   -0.2829630   -0.0004687   -4.0053125  
H   -3.1967441    0.0002094   -1.8949034  
C    0.8681109    0.7263879    2.2709268  
C    0.6127770    0.5096195    3.5869401  
C   -0.4920590   -0.4175482    3.6542670  
C   -0.8620974   -0.7254003    2.2596025  
N    0.0000000    0.0000000    1.4700000  
C   -1.8641242   -1.5660088    1.8976294  
C   -2.6293522   -2.2103885    2.9520183  
O   -3.5512764   -2.9839180    2.7283916  
C   -2.2549728   -1.8987399    4.4361073  
O   -2.8923672   -2.4351063    5.3323774  
C   -1.1543735   -0.9755647    4.7012123  
H    1.1382914    0.9492124    4.4159191  
H   -2.1192137   -1.7782617    0.8686553  
H   -0.9013378   -0.7652422    5.7314848  
H    1.6172880    1.3558399    1.8188057  
