46
0A 1A 10B 27B 31A 36B 16 11 15 30 45 43 2 3 4 4 2 7 3 1 2 0 nosym
C   -4.3568015    2.1196432   -0.0439433  
C   -5.5783087    1.6201329   -0.4323717  
C   -5.3394747    0.7460399   -1.5339705  
C   -3.9416100    0.7519547   -1.7745206  
N   -3.3751248    1.5976638   -0.8533862  
C   -3.3460097   -0.0004262   -2.7913647  
C   -4.1766439   -0.7730845   -3.5795420  
O   -3.6475256   -1.5274889   -4.5864787  
C   -5.5738550   -0.7919240   -3.3553485  
O   -6.2652638   -1.6105065   -4.2243825  
C   -6.1621470   -0.0497244   -2.3525632  
H   -6.5251586    1.8575141    0.0216316  
H   -2.3939629    1.7946126   -0.7726814  
H   -4.3895800   -1.9821535   -5.0058840  
H   -7.2009062   -1.5658644   -4.0048715  
H   -7.2352197   -0.0842034   -2.2048989  
H   -4.1083019    2.8080663    0.7455372  
C    0.0000000    0.0000000    0.0000000  
C    1.0662919   -0.0000103   -0.8334272  
C    0.4961868    0.0000066   -2.1718889  
C   -0.9663860   -0.0000849   -1.9540248  
N   -1.2632775   -0.0000084   -0.6828659  
C   -1.8985364   -0.0000515   -3.0477258  
C   -1.3925778    0.0004567   -4.3020543  
O   -2.1456385    0.0005412   -5.4151314  
C    0.0786229    0.0009326   -4.5544999  
O    0.4683756    0.0012594   -5.7221104  
C    1.0143162    0.0008443   -3.4159034  
H    2.1107195    0.0000631   -0.5721869  
H   -1.5042277    0.0009692   -6.1484420  
H    2.0724151    0.0013151   -3.6409746  
C    3.1301144    0.0010313    3.1728260  
C    2.5367765    0.0002768    1.9564670  
C    1.1089900   -0.0001027    2.2356185  
C    1.0177864    0.0004150    3.7115134  
N    2.1993570    0.0011613    4.2663826  
C   -0.2459220    0.0002880    4.3957118  
C   -1.3675327    0.0000606    3.6398520  
O   -2.6129319   -0.0000866    4.1448486  
C   -1.3083589   -0.0000910    2.1483229  
O   -2.3693264   -0.0004206    1.5241687  
C    0.0000000    0.0000000    1.4700000  
H    3.0096015    0.0001008    0.9892483  
H   -0.2829642    0.0004689    5.4753125  
H   -3.1967446   -0.0002093    3.3649027  
H    4.1849273    0.0015113    3.3971983  
