46
1A 10B 17A 35A 36B 11 15 30 45 42 3 4 2 1 7 2 1 2 0 nosym
C    0.5486490   -0.7097066   -5.2160869  
C    0.2216131   -0.4592703   -6.5286406  
C   -0.8774665    0.4498526   -6.5177133  
C   -1.1798188    0.7210120   -5.1586759  
N   -0.2963293   -0.0005341   -4.3948471  
C   -2.2117140    1.5808272   -4.7704764  
C   -2.9516739    2.1780196   -5.7724738  
O   -3.9706969    3.0266535   -5.4493234  
C   -2.6655131    1.9197351   -7.1341707  
O   -3.4917895    2.5897959   -8.0125958  
C   -1.6478469    1.0714082   -7.5178666  
H    0.7138724   -0.8809265   -7.3882220  
H   -2.4472968    1.7915350   -3.7364045  
H   -4.3505471    3.3278816   -6.2849311  
H   -3.2316376    2.3603830   -8.9099778  
H   -1.4522919    0.8927730   -8.5687358  
H    1.3168713   -1.3392015   -4.8007206  
C    3.1301146   -0.0010313   -1.7028256  
C    2.5367765   -0.0002766   -0.4864669  
C    1.1089901    0.0001027   -0.7656184  
C    1.0177865   -0.0004150   -2.2415133  
N    2.1993571   -0.0011612   -2.7963824  
C   -0.2459219   -0.0002879   -2.9257116  
C   -1.3675326   -0.0000606   -2.1698520  
O   -2.6129318    0.0000865   -2.6748483  
C   -1.3083588    0.0000910   -0.6783229  
O   -2.3693264    0.0004206   -0.0541685  
C    0.0000000    0.0000000    0.0000000  
H    3.0096016   -0.0001007    0.4807518  
H   -3.1967444    0.0002093   -1.8949026  
H    4.1849275   -0.0015114   -1.9271979  
C    0.8400945    0.7047457    2.2710304  
C    0.0000000    0.0000000    1.4700000  
C   -0.8844236   -0.7423113    2.3369512  
C   -0.4878984   -0.4098547    3.7186280  
N    0.5629682    0.4714286    3.6095011  
C   -1.0836927   -0.9095027    4.8308716  
C   -2.1891196   -1.8367527    4.6554461  
O   -2.7906899   -2.3413415    5.5944904  
C   -2.6257283   -2.2031529    3.2011665  
O   -3.5549479   -2.9829990    3.0410059  
C   -1.9068976   -1.5999348    2.0816745  
H   -0.7774656   -0.6525820    5.8354244  
H   -2.2155208   -1.8586617    1.0779135  
H    1.6384792    1.3747609    1.9961646  
H    1.0518368    0.8833920    4.3830260  
