46
5B 10B 27B 36B 41B 13 16 29 43 45 7 4 4 7 4 2 1 2 0 nosym
C   -3.2941076    0.0012874   -2.9038237  
C   -4.0470173    0.0024418   -1.7524797  
C   -5.4166997    0.0030193   -2.1506880  
C   -5.4378081    0.0018785   -3.5689540  
N   -4.1324579    0.0027949   -3.9940142  
C   -6.6248729    0.0017547   -4.3076470  
C   -7.8122586    0.0024945   -3.6017482  
O   -9.0006005    0.0020605   -4.2732070  
C   -7.8117774    0.0040116   -2.1865401  
O   -9.0742767    0.0050150   -1.6302687  
C   -6.6410879    0.0044079   -1.4571491  
H   -3.6570098    0.0039261   -0.7490430  
H   -3.8342561   -0.0082407   -4.9526251  
H   -6.6477244    0.0010319   -5.3887014  
H   -9.6941833    0.0030130   -3.6007434  
H   -8.9845798    0.0059859   -0.6723767  
H   -6.6721590    0.0057614   -0.3738621  
C    0.0000000    0.0000000    0.0000000  
C    1.0541688   -0.0001722   -0.8560393  
C    0.5103135   -0.0000454   -2.1935957  
C   -0.9576374    0.0002459   -2.0455730  
N   -1.2018460   -0.0001391   -0.6915968  
C   -1.8348314    0.0008317   -3.0810607  
C   -1.2972851    0.0009737   -4.4314604  
O   -2.0050676    0.0014265   -5.4301315  
C    0.2542619    0.0004184   -4.6117571  
O    0.7184666    0.0002257   -5.7439121  
C    1.0974550    0.0000874   -3.4189130  
H    2.0940752   -0.0005483   -0.5817984  
H    2.1707276   -0.0000911   -3.5523671  
H   -2.1128194    0.0014912   -0.2706789  
C    0.0000000    0.0000000    1.4700000  
C    1.0662921    0.0000102    2.3034270  
C    0.4961870   -0.0000064    3.6418889  
C   -0.9663858    0.0000850    3.4240247  
N   -1.2632773    0.0000084    2.1528658  
C   -1.8985362    0.0000517    4.5177257  
C   -1.3925775   -0.0004564    5.7720543  
O   -2.1456383   -0.0005410    6.8851312  
C    0.0786232   -0.0009323    6.0245000  
O    0.4683759   -0.0012588    7.1921102  
C    1.0143166   -0.0008442    4.8859032  
H    2.1107198   -0.0000632    2.0421868  
H   -2.9622183    0.0003270    4.3293377  
H   -1.5042274   -0.0009692    7.6184419  
H    2.0724152   -0.0013148    5.1109744  
