46
4A 5B 27B 31A 32A 41B 11 12 30 45 42 44 1 7 4 2 3 4 2 1 3 0 nosym
C   -3.9846528    0.7173436   -1.8067791  
C   -3.3460097   -0.0004262   -2.7913647  
C   -4.3511560   -0.7286178   -3.4942283  
C   -5.5942657   -0.4124284   -2.8887287  
N   -5.3355280    0.4664777   -1.8663804  
C   -6.8075834   -0.9520447   -3.3262939  
C   -6.7652524   -1.8265515   -4.3947614  
O   -7.9207778   -2.3822414   -4.8627194  
C   -5.5346845   -2.1546697   -5.0118986  
O   -5.6585302   -3.0397397   -6.0629247  
C   -4.3373005   -1.6229124   -4.5805841  
H   -6.0265585    0.8750934   -1.2634786  
H   -7.7583636   -0.7151928   -2.8689973  
H   -7.6698751   -2.9536130   -5.6001791  
H   -4.7826146   -3.2082912   -6.4234333  
H   -3.4104548   -1.8930396   -5.0729932  
H   -3.5832773    1.3872842   -1.0658095  
C    0.0000000    0.0000000    0.0000000  
C    1.0662919   -0.0000103   -0.8334272  
C    0.4961868    0.0000066   -2.1718889  
C   -0.9663860   -0.0000849   -1.9540248  
N   -1.2632775   -0.0000084   -0.6828659  
C   -1.8985364   -0.0000515   -3.0477258  
C   -1.3925778    0.0004567   -4.3020543  
O   -2.1456385    0.0005412   -5.4151314  
C    0.0786229    0.0009326   -4.5544999  
O    0.4683756    0.0012594   -5.7221104  
C    1.0143162    0.0008443   -3.4159034  
H    2.1107195    0.0000631   -0.5721869  
H   -1.5042277    0.0009692   -6.1484420  
H    2.0724151    0.0013151   -3.6409746  
C    3.3321173   -0.0004715    2.8079335  
C    2.6974184   -0.0000116    4.0032312  
C    1.2800439    0.0002118    3.6752840  
C    1.2395035   -0.0000644    2.1971295  
N    2.4394063   -0.0005460    1.6831036  
C    0.0000000    0.0000000    1.4700000  
C   -1.1468701   -0.0000635    2.1869543  
O   -2.3742202   -0.0000073    1.6395491  
C   -1.1388768   -0.0001607    3.6796354  
O   -2.2206231   -0.0000905    4.2670412  
C    0.1454524   -0.0001816    4.4024240  
H    3.1367986    0.0000651    4.9860947  
H   -2.9844344   -0.0001026    2.3990168  
H    0.1083576   -0.0003682    5.4835595  
H    4.3940039   -0.0007619    2.6198634  
