48
4A 5B 17A 33A 38B 11 12 32 47 45 1 7 2 2 7 2 1 2 0 nosym
C    0.6784431   -0.7158669   -5.1604807  
C   -0.1387079    0.0017019   -4.3179684  
C   -1.0481461    0.7302005   -5.1406544  
C   -0.7354113    0.4143968   -6.4876476  
N    0.3188393   -0.4645849   -6.4638959  
C   -1.4327209    0.9543852   -7.5725256  
C   -2.4647277    1.8288748   -7.2925120  
O   -3.1787630    2.3849187   -8.3142660  
C   -2.7916048    2.1566108   -5.9551424  
O   -3.8437009    3.0417147   -5.8410020  
C   -2.1039442    1.6244865   -4.8843984  
H    0.7522628   -0.8729850   -7.2721866  
H   -1.1991958    0.7178284   -8.6014618  
H   -3.8415778    2.9562099   -7.9049172  
H   -3.9995945    3.2099948   -4.9066665  
H   -2.3770362    1.8943257   -3.8709460  
H    1.4902648   -1.3859282   -4.9348210  
C    3.3041273    0.0001178   -1.5420428  
C    2.5845373   -0.0004780   -0.3695851  
C    1.2040007   -0.0000007   -0.7283589  
C    1.1422374    0.0006038   -2.1454372  
N    2.4348641    0.0026111   -2.6077464  
C   -0.0655179    0.0008799   -2.8497918  
C   -1.2321766    0.0002325   -2.1101402  
O   -2.4392814    0.0001148   -2.7472522  
C   -1.1911209   -0.0000007   -0.6955266  
O   -2.4371528   -0.0002320   -0.1032862  
C    0.0000000    0.0000000    0.0000000  
H    3.0031533   -0.0000660    0.6222584  
H    2.7054631   -0.0071097   -3.5745261  
H   -3.1132988   -0.0000648   -2.0551787  
H   -2.3200282   -0.0004072    0.8516409  
H    4.3686625    0.0004073   -1.7024290  
C    2.3971438    2.0127888    3.1728260  
C    1.9431056    1.6308205    1.9564670  
C    0.8496017    0.7127664    2.2356185  
C    0.7794028    0.6545384    3.7115134  
N    1.6840587    1.4146091    4.2663826  
C   -0.1885723   -0.1578550    4.3957118  
C   -1.0476298   -0.8789867    3.6398520  
O   -2.0015663   -1.6796266    4.1448486  
C   -1.0022026   -0.8410666    2.1483229  
O   -1.8147390   -1.5232959    1.5241687  
C    0.0000000    0.0000000    1.4700000  
H    2.3054237    1.9346118    0.9892483  
H   -0.2170646   -0.1815267    5.4753125  
H   -2.4487139   -2.0549881    3.3649027  
H    3.2048689    2.6911772    3.3971983  
