48
1A 10B 33A 34A 43B 11 15 47 44 46 3 4 2 3 4 2 0 3 0 nosym
C   -0.1918148   -0.6567178   -5.1170602  
C   -0.1066393   -0.3930679   -6.4645401  
C   -1.1576379    0.5190792   -6.7775725  
C   -1.8568325    0.7783805   -5.5710001  
N   -1.2456336    0.0471730   -4.5828764  
C   -2.9578767    1.6374984   -5.5046085  
C   -3.3602328    2.2461725   -6.6775547  
O   -4.4293353    3.0946810   -6.6693807  
C   -2.6756686    1.9998174   -7.8914320  
O   -3.1976748    2.6804491   -8.9719843  
C   -1.5895503    1.1521861   -7.9577214  
H    0.6225461   -0.8080801   -7.1391116  
H   -3.4951522    1.8391988   -4.5881735  
H   -4.5387352    3.4048095   -7.5777399  
H   -2.6783140    2.4586943   -9.7508898  
H   -1.0853512    0.9828290   -8.9019563  
H    0.4148823   -1.2922853   -4.4950222  
C    1.1243408    0.0099924   -0.7919005  
C    0.7474073    0.0234547   -2.1148544  
C   -0.6787385    0.0234491   -2.1414699  
C   -1.1201747    0.0098593   -0.7935545  
N    0.0000000    0.0000000    0.0000000  
C   -2.4730817    0.0063708   -0.4408237  
C   -3.3971961    0.0170979   -1.4675053  
O   -4.7313517    0.0146259   -1.1793464  
C   -2.9763655    0.0303507   -2.8186320  
O   -4.0166483    0.0395117   -3.7247617  
C   -1.6418568    0.0335262   -3.1673479  
H    1.4178711    0.0310976   -2.9571212  
H   -2.8160166   -0.0041112    0.5845970  
H   -5.1938825    0.0230867   -2.0274377  
H   -3.6464683    0.0482297   -4.6127338  
H    2.1062465    0.0052822   -0.3505410  
C    2.5528530    2.1414826    2.8079335  
C    2.0663498    1.7338582    4.0032312  
C    0.9804344    0.8229586    3.6752840  
C    0.9495562    0.7966882    2.1971295  
N    1.8690446    1.5676019    1.6831036  
C    0.0000000    0.0000000    1.4700000  
C   -0.8785127   -0.7372425    2.1869543  
O   -1.8187535   -1.5261249    1.6395491  
C   -0.8723269   -0.7321790    3.6796354  
O   -1.7010379   -1.4274584    4.2670412  
C    0.1115397    0.0933559    4.4024240  
H    2.4028853    2.0163452    4.9860947  
H   -2.2861435   -1.9184361    2.3990168  
H    0.0832434    0.0693689    5.4835595  
H    3.3664920    2.8238276    2.6198634  
