46
0A 1A 10B 36B 41B 16 11 15 43 44 2 3 4 7 4 3 0 2 0 nosym
C    5.9970950   -2.1175912   -4.3993399  
C    5.8630848   -1.6188244   -5.6743850  
C    4.7353250   -0.7455326   -5.6634628  
C    4.2173445   -0.7511475   -4.3430118  
N    5.0056514   -1.5959158   -3.6016915  
C    3.1006056    0.0006265   -3.9654949  
C    2.4959296    0.7723580   -4.9386215  
O    1.4023229    1.5261398   -4.6242154  
C    2.9977496    0.7908845   -6.2617430  
O    2.2857253    1.6085239   -7.1148725  
C    4.0992359    0.0492832   -6.6349477  
H    6.4991783   -1.8561748   -6.5098749  
H    4.8866203   -1.7924534   -2.6243554  
H    1.1411483    1.9802050   -5.4359280  
H    2.6897592    1.5637280   -7.9868552  
H    4.4606111    0.0835020   -7.6560816  
H    6.7205888   -2.8052918   -3.9961249  
C    3.2798083    0.0005856   -1.4499650  
C    2.5571143    0.0005567   -2.5996555  
C    1.1637433    0.0001550   -2.2210361  
C    1.1336964   -0.0000198   -0.7459472  
N    2.4483513   -0.0001427   -0.3402721  
C    0.0000000    0.0000000    0.0000000  
C   -1.2757369   -0.0000185   -0.6964416  
O   -2.3524597   -0.0000637   -0.1142312  
C   -1.2676495   -0.0000871   -2.2584083  
O   -2.3355763   -0.0004098   -2.8557295  
C    0.0181559    0.0001761   -2.9516296  
H    0.0150790    0.0003322   -4.0331631  
H    4.3498547    0.0008612   -1.3200024  
H    2.7563627    0.0012823    0.6148060  
C    0.0000000    0.0000000    1.4700000  
C    1.0541688    0.0001722    2.3260392  
C    0.5103138    0.0000454    3.6635956  
C   -0.9576371   -0.0002459    3.5155732  
N   -1.2018458    0.0001392    2.1615969  
C   -1.8348311   -0.0008317    4.5510609  
C   -1.2972847   -0.0009736    5.9014604  
O   -2.0050672   -0.0014265    6.9001319  
C    0.2542623   -0.0004184    6.0817573  
O    0.7184670   -0.0002256    7.2139121  
C    1.0974552   -0.0000873    4.8889129  
H    2.0940752    0.0005483    2.0517982  
H   -2.9081052   -0.0011668    4.4207061  
H    2.1707277    0.0000911    5.0223670  
H   -2.1128194   -0.0014912    1.7406791  
