46
0A 4A 5B 27B 36B 41B 16 12 13 29 43 45 2 1 7 4 7 4 3 1 2 0 nosym
C   -4.5189774    2.1246700   -0.2045471  
C   -3.4217428    1.6624063   -0.8936444  
C   -3.9056799    0.7751184   -1.9001856  
C   -5.3180923    0.7354099   -1.7759240  
N   -5.6571954    1.5645640   -0.7356691  
C   -6.1291075   -0.0405999   -2.6095012  
C   -5.5029174   -0.7899440   -3.5865103  
O   -6.2471513   -1.5652548   -4.4279512  
C   -4.0948406   -0.7638247   -3.7259891  
O   -3.6223031   -1.5644412   -4.7453341  
C   -3.2941076    0.0012878   -2.9038237  
H   -2.3983454    1.9307556   -0.6945480  
H   -6.5926191    1.7461797   -0.4194752  
H   -7.2061220   -0.0753201   -2.5198571  
H   -5.6225448   -1.9984070   -5.0241987  
H   -2.6635120   -1.4893476   -4.7714905  
H   -4.5796110    2.8084916    0.6247120  
C    0.0000000    0.0000000    0.0000000  
C    1.0541688   -0.0001723   -0.8560392  
C    0.5103136   -0.0000455   -2.1935956  
C   -0.9576373    0.0002461   -2.0455730  
N   -1.2018460   -0.0001389   -0.6915968  
C   -1.8348314    0.0008319   -3.0810607  
C   -1.2972851    0.0009739   -4.4314603  
O   -2.0050676    0.0014268   -5.4301316  
C    0.2542619    0.0004184   -4.6117572  
O    0.7184666    0.0002257   -5.7439122  
C    1.0974551    0.0000873   -3.4189129  
H    2.0940752   -0.0005484   -0.5817983  
H    2.1707276   -0.0000912   -3.5523673  
H   -2.1128194    0.0014915   -0.2706789  
C    0.0000000    0.0000000    1.4700000  
C    1.0662921    0.0000102    2.3034270  
C    0.4961870   -0.0000064    3.6418889  
C   -0.9663858    0.0000850    3.4240247  
N   -1.2632773    0.0000084    2.1528658  
C   -1.8985362    0.0000517    4.5177257  
C   -1.3925775   -0.0004564    5.7720543  
O   -2.1456383   -0.0005410    6.8851312  
C    0.0786232   -0.0009323    6.0245000  
O    0.4683759   -0.0012588    7.1921102  
C    1.0143166   -0.0008442    4.8859032  
H    2.1107198   -0.0000632    2.0421868  
H   -2.9622183    0.0003270    4.3293377  
H   -1.5042274   -0.0009692    7.6184419  
H    2.0724152   -0.0013148    5.1109744  
