46
4A 5B 36B 41B 11 12 43 44 1 7 7 4 2 0 2 0 nosym
C    2.8414476   -0.7203501   -3.3421638  
C    1.6707639   -0.0012345   -3.2725973  
C    1.5553929    0.7256455   -4.4944543  
C    2.6945894    0.4073060   -5.2772805  
N    3.4556646   -0.4715639   -4.5472329  
C    2.9124537    0.9451919   -6.5492881  
C    1.9628573    1.8201475   -7.0401012  
O    2.1258092    2.3742075   -8.2768216  
C    0.8197290    2.1504002   -6.2739370  
O   -0.0327765    3.0356539   -6.9007566  
C    0.6042878    1.6203510   -5.0188836  
H    4.3203986   -0.8814701   -4.8508665  
H    3.7787042    0.7066978   -7.1508971  
H    1.3610980    2.9462334   -8.4226553  
H   -0.7779863    3.2056969   -6.3165037  
H   -0.2806812    1.8920957   -4.4554456  
H    3.2876182   -1.3899318   -2.6269360  
C    1.0965515    0.0001358   -0.8010305  
C    0.0000000    0.0000000    0.0000000  
C   -1.1546564    0.0001470   -0.8669509  
C   -0.6372017    0.0003518   -2.2486278  
N    0.7342868    0.0007337   -2.1395011  
C   -1.4147742    0.0001351   -3.3608713  
C   -2.8576052   -0.0001048   -3.1854458  
O   -3.6427782   -0.0002494   -4.1244899  
C   -3.4275841   -0.0000725   -1.7311663  
O   -4.6406831    0.0000333   -1.5710053  
C   -2.4891868   -0.0001090   -0.6116741  
H   -1.0150454    0.0001614   -4.3654241  
H   -2.8919123   -0.0002920    0.3920869  
H    2.1388270    0.0000662   -0.5261648  
C    0.0000000    0.0000000    1.4700000  
C    1.0541688    0.0001722    2.3260392  
C    0.5103138    0.0000454    3.6635956  
C   -0.9576371   -0.0002459    3.5155732  
N   -1.2018458    0.0001392    2.1615969  
C   -1.8348311   -0.0008317    4.5510609  
C   -1.2972847   -0.0009736    5.9014604  
O   -2.0050672   -0.0014265    6.9001319  
C    0.2542623   -0.0004184    6.0817573  
O    0.7184670   -0.0002256    7.2139121  
C    1.0974552   -0.0000873    4.8889129  
H    2.0940752    0.0005483    2.0517982  
H   -2.9081052   -0.0011668    4.4207061  
H    2.1707277    0.0000911    5.0223670  
H   -2.1128194   -0.0014912    1.7406791  
