48
1A 10B 27B 36B 41B 11 15 30 44 47 3 4 4 7 4 2 1 2 0 nosym
C   -3.9737215    0.7080824   -1.7936963  
C   -5.3255064    0.4571936   -1.8405997  
C   -5.5431728   -0.4515258   -2.9183056  
C   -4.2766879   -0.7219843   -3.4969207  
N   -3.3460097   -0.0004262   -2.7913647  
C   -4.1113764   -1.5812563   -4.5873849  
C   -5.2451920   -2.1786165   -5.1029446  
O   -5.1408321   -3.0267400   -6.1672791  
C   -6.5176424   -1.9210282   -4.5396190  
O   -7.5485227   -2.5911714   -5.1653482  
C   -6.6815055   -1.0732373   -3.4640144  
H   -6.0640062    0.8782974   -1.1800825  
H   -3.1488750   -1.7914291   -5.0330533  
H   -6.0370796   -3.3281938   -6.3650960  
H   -8.3722213   -2.3622436   -4.7240798  
H   -7.6687535   -0.8951302   -3.0540174  
H   -3.4078304    1.3374795   -1.1284256  
C    0.0000000    0.0000000    0.0000000  
C    1.0662919   -0.0000103   -0.8334272  
C    0.4961868    0.0000066   -2.1718889  
C   -0.9663860   -0.0000849   -1.9540248  
N   -1.2632775   -0.0000084   -0.6828659  
C   -1.8985364   -0.0000515   -3.0477258  
C   -1.3925778    0.0004567   -4.3020543  
O   -2.1456385    0.0005412   -5.4151314  
C    0.0786229    0.0009326   -4.5544999  
O    0.4683756    0.0012594   -5.7221104  
C    1.0143162    0.0008443   -3.4159034  
H    2.1107195    0.0000631   -0.5721869  
H   -1.5042277    0.0009692   -6.1484420  
H    2.0724151    0.0013151   -3.6409746  
C    0.0000000    0.0000000    1.4700000  
C    1.0521667    0.0011902    2.3562342  
C    0.4917218    0.0011957    3.6679131  
C   -0.9187428   -0.0003148    3.5178682  
N   -1.1833171    0.0009411    2.1707914  
C   -1.7951701   -0.0010350    4.6072090  
C   -1.2375837   -0.0005224    5.8710424  
O   -2.0474215   -0.0015360    6.9697579  
C    0.1673580    0.0013566    6.0411963  
O    0.5673524    0.0020687    7.3615553  
C    1.0325770    0.0023412    4.9669890  
H    2.0953057    0.0030649    2.0900562  
H   -2.0989778   -0.0102372    1.7591824  
H   -2.8710934   -0.0020419    4.4995513  
H   -1.4634884   -0.0006497    7.7393593  
H    1.5290710    0.0033153    7.3880045  
H    2.1042148    0.0039609    5.1284455  
