48
1A 10B 17A 37A 38B 11 15 32 47 44 3 4 2 1 7 2 1 2 0 nosym
C    0.6936363   -0.7066091   -5.1527423  
C    0.3462071   -0.4553038   -6.4598787  
C   -0.7528353    0.4534783   -6.4312302  
C   -1.0341492    0.7235440   -5.0674656  
N   -0.1387079    0.0017019   -4.3179684  
C   -2.0601488    1.5827606   -4.6626686  
C   -2.8157360    2.1804680   -5.6526242  
O   -3.8298705    3.0285550   -5.3130766  
C   -2.5506566    1.9232744   -7.0187869  
O   -3.3906541    2.5937328   -7.8837921  
C   -1.5388178    1.0755383   -7.4188520  
H    0.8251963   -0.8761771   -7.3273054  
H   -2.2797244    1.7926345   -3.6249109  
H   -4.2227242    3.3302844   -6.1424684  
H   -3.1443868    2.3650606   -8.7852714  
H   -1.3595351    0.8977373   -8.4727608  
H    1.4683923   -1.3361779   -4.7498094  
C    3.3041273    0.0001178   -1.5420428  
C    2.5845373   -0.0004780   -0.3695851  
C    1.2040007   -0.0000007   -0.7283589  
C    1.1422374    0.0006038   -2.1454372  
N    2.4348641    0.0026111   -2.6077464  
C   -0.0655179    0.0008799   -2.8497918  
C   -1.2321766    0.0002325   -2.1101402  
O   -2.4392814    0.0001148   -2.7472522  
C   -1.1911209   -0.0000007   -0.6955266  
O   -2.4371528   -0.0002320   -0.1032862  
C    0.0000000    0.0000000    0.0000000  
H    3.0031533   -0.0000660    0.6222584  
H    2.7054631   -0.0071097   -3.5745261  
H   -3.1132988   -0.0000648   -2.0551787  
H   -2.3200282   -0.0004072    0.8516409  
H    4.3686625    0.0004073   -1.7024290  
C    0.8400945    0.7047457    2.2710304  
C    0.0000000    0.0000000    1.4700000  
C   -0.8844236   -0.7423113    2.3369512  
C   -0.4878984   -0.4098547    3.7186280  
N    0.5629682    0.4714286    3.6095011  
C   -1.0836927   -0.9095027    4.8308716  
C   -2.1891196   -1.8367527    4.6554461  
O   -2.7906899   -2.3413415    5.5944904  
C   -2.6257283   -2.2031529    3.2011665  
O   -3.5549479   -2.9829990    3.0410059  
C   -1.9068976   -1.5999348    2.0816745  
H   -0.7774656   -0.6525820    5.8354244  
H   -2.2155208   -1.8586617    1.0779135  
H    1.6384792    1.3747609    1.9961646  
H    1.0518368    0.8833920    4.3830260  
