48
1A 10B 35A 36B 11 15 42 43 3 4 1 7 2 0 2 0 nosym
C    0.0087277   -0.7000103   -5.1212477  
C    0.1424756   -0.4476457   -6.4669410  
C   -0.8970578    0.4608660   -6.8255168  
C   -1.6396404    0.7296826   -5.6472828  
N   -1.0641730    0.0073887   -4.6315340  
C   -2.7428925    1.5883181   -5.6280598  
C   -3.1028874    2.1867178   -6.8199070  
O   -4.1721040    3.0342828   -6.8576152  
C   -2.3746687    1.9307715   -8.0060795  
O   -2.8576241    2.6017946   -9.1105369  
C   -1.2863434    1.0836095   -8.0258382  
H    0.8958623   -0.8676575   -7.1111404  
H   -3.3131222    1.7972403   -4.7334139  
H   -4.2487317    3.3366457   -7.7719293  
H   -2.3102655    2.3739615   -9.8682269  
H   -0.7481817    0.9067651   -8.9497361  
H    0.5928932   -1.3297565   -4.4723032  
C    1.1319249    0.0015673   -0.8009268  
C    0.7969919    0.0034954   -2.1169403  
C   -0.6453335    0.0035697   -2.1842672  
C   -1.1266831    0.0015413   -0.7896029  
N    0.0000000    0.0000000    0.0000000  
C   -2.4346128    0.0013921   -0.4276299  
C   -3.4350109    0.0031346   -1.4820187  
O   -4.6384610    0.0030891   -1.2583924  
C   -2.9478954    0.0050451   -2.9661078  
O   -3.7809375    0.0062147   -3.8623779  
C   -1.5113818    0.0053061   -3.2312126  
H    1.4821242    0.0045430   -2.9459191  
H   -2.7664565    0.0000184    0.6013444  
H    2.1104318    0.0009428   -0.3488057  
C    0.8576279    0.7185626    2.2703808  
C    0.0000000    0.0000000    1.4700000  
C   -0.8668858   -0.7285659    2.3373528  
C   -0.4876752   -0.4117774    3.6669281  
N    0.5635254    0.4678311    3.5902241  
C   -1.1297612   -0.9515493    4.7854808  
C   -2.1738724   -1.8268314    4.5576857  
O   -2.8357962   -2.3827064    5.6140350  
C   -2.5667212   -2.1555554    3.2384331  
O   -3.6226318   -3.0413663    3.1773122  
C   -1.9335634   -1.6236449    2.1344818  
H    1.0363952    0.8769718    4.3757045  
H   -0.8454472   -0.7142436    5.8013813  
H   -3.5178062   -2.9546422    5.2385129  
H   -3.8247440   -3.2102924    2.2519915  
H   -2.2566033   -1.8942483    1.1360343  
H    1.6567807    1.3889844    2.0042067  
