46
0A 4A 5B 27B 31A 32A 41B 16 12 13 30 45 42 44 2 1 7 4 2 3 4 3 1 3 0 nosym
C    6.8742265    0.0003231   -4.0661422  
C    5.5942422    0.0007865   -3.5620504  
C    5.7067592    0.0007575   -2.1401011  
C    7.0913504    0.0005504   -1.8321526  
N    7.7720040   -0.0016616   -3.0243453  
C    7.5742853    0.0007717   -0.5200691  
C    6.6425079    0.0015172    0.4997194  
O    7.0593435    0.0021141    1.7994356  
C    5.2567325    0.0013590    0.2125911  
O    4.4562654    0.0017482    1.3362440  
C    4.7795901    0.0008674   -1.0815733  
H    4.6906031    0.0000007   -4.1472242  
H    8.7711565    0.0082505   -3.1221989  
H    8.6283021    0.0004717   -0.2787181  
H    6.2603298    0.0022789    2.3424296  
H    3.5363981    0.0016363    1.0543799  
H    7.2178047   -0.0001944   -5.0863935  
C    3.3321168    0.0004716   -1.3379341  
C    2.6974177    0.0000118   -2.5332316  
C    1.2800432   -0.0002116   -2.2052842  
C    1.2395033    0.0000644   -0.7271298  
N    2.4394059    0.0005460   -0.2131041  
C    0.0000000    0.0000000    0.0000000  
C   -1.1468704    0.0000635   -0.7169542  
O   -2.3742206    0.0000074   -0.1695488  
C   -1.1388774    0.0001608   -2.2096352  
O   -2.2206238    0.0000906   -2.7970409  
C    0.1454514    0.0001818   -2.9324241  
H    3.1367978   -0.0000649   -3.5160956  
H   -2.9844350    0.0001027   -0.9290164  
H    0.1083567    0.0003684   -4.0135594  
C    2.5528530    2.1414826    2.8079335  
C    2.0663498    1.7338582    4.0032312  
C    0.9804344    0.8229586    3.6752840  
C    0.9495562    0.7966882    2.1971295  
N    1.8690446    1.5676019    1.6831036  
C    0.0000000    0.0000000    1.4700000  
C   -0.8785127   -0.7372425    2.1869543  
O   -1.8187535   -1.5261249    1.6395491  
C   -0.8723269   -0.7321790    3.6796354  
O   -1.7010379   -1.4274584    4.2670412  
C    0.1115397    0.0933559    4.4024240  
H    2.4028853    2.0163452    4.9860947  
H   -2.2861435   -1.9184361    2.3990168  
H    0.0832434    0.0693689    5.4835595  
H    3.3664920    2.8238276    2.6198634  
