46
4A 5B 22B 35A 36B 11 12 29 45 42 1 7 7 1 7 2 1 2 0 nosym
C    3.4563079   -0.7177417   -2.8470538  
C    2.5562217   -0.0001540   -3.6003003  
C    3.3099816    0.7271500   -4.5685328  
C    4.6761867    0.4106317   -4.3558684  
N    4.7297758   -0.4676073   -3.3020935  
C    5.7069651    0.9493908   -5.1317706  
C    5.3520782    1.8233625   -6.1409315  
O    6.3186809    2.3782094   -6.9288650  
C    3.9944347    2.1517972   -6.3684194  
O    3.8034928    3.0362551   -7.4098694  
C    2.9770447    1.6208856   -5.6031892  
H    5.5676005   -0.8762671   -2.9292287  
H    6.7501830    0.7122842   -4.9746755  
H    5.8618763    2.9493267   -7.5600694  
H    2.8603050    3.2050728   -7.4964789  
H    1.9463678    1.8912367   -5.8009109  
H    3.2907746   -1.3870880   -2.0202932  
C    0.0000000    0.0000000    0.0000000  
C    1.0541688   -0.0001718   -0.8560391  
C    0.5103141   -0.0000448   -2.1935955  
C   -0.9576367    0.0002462   -2.0455732  
N   -1.2018459   -0.0001391   -0.6915971  
C   -1.8348307    0.0008319   -3.0810611  
C   -1.2972843    0.0009743   -4.4314607  
O   -2.0050666    0.0014272   -5.4301322  
C    0.2542627    0.0004194   -4.6117573  
O    0.7184676    0.0002268   -5.7439121  
C    1.0974555    0.0000882   -3.4189128  
H    2.0940752   -0.0005478   -0.5817980  
H   -2.9081051    0.0011669   -2.9507063  
H   -2.1128195    0.0014909   -0.2706793  
C    1.0965515   -0.0001358    2.2710304  
C    0.0000000    0.0000000    1.4700000  
C   -1.1546562   -0.0001469    2.3369512  
C   -0.6372014   -0.0003519    3.7186280  
N    0.7342871   -0.0007337    3.6095011  
C   -1.4147739   -0.0001353    4.8308716  
C   -2.8576048    0.0001048    4.6554461  
O   -3.6427778    0.0002493    5.5944904  
C   -3.4275839    0.0000726    3.2011665  
O   -4.6406829   -0.0000333    3.0410059  
C   -2.4891866    0.0001091    2.0816745  
H   -1.0150448   -0.0001615    5.8354244  
H   -2.8919121    0.0002919    1.0779135  
H    2.1388271   -0.0000662    1.9961646  
H    1.3735872    0.0006099    4.3830260  
