48
1A 10B 27B 38B 43B 11 15 32 45 46 3 4 4 7 4 2 1 2 0 nosym
C   -3.9582709    0.7120302   -2.0436198  
C   -5.3029505    0.4626727   -2.1923646  
C   -5.4397028   -0.4462016   -3.2831653  
C   -4.1334694   -0.7183282   -3.7644431  
N   -3.2578655    0.0024282   -2.9908505  
C   -3.8873159   -1.5781987   -4.8390685  
C   -4.9796747   -2.1744531   -5.4385778  
O   -4.7962584   -3.0230954   -6.4917525  
C   -6.2907176   -1.9151955   -4.9729925  
O   -7.2722035   -2.5843923   -5.6745652  
C   -6.5343185   -1.0668135   -3.9130716  
H   -6.0887123    0.8848704   -1.5896037  
H   -2.8941639   -1.7896414   -5.2107444  
H   -5.6753674   -3.3235965   -6.7565767  
H   -8.1265947   -2.3543552   -5.2968038  
H   -7.5494911   -0.8874214   -3.5788242  
H   -3.4434798    1.3410285   -1.3377090  
C    0.0000000    0.0000000    0.0000000  
C    1.0521666   -0.0011982   -0.8862343  
C    0.4917215   -0.0011996   -2.1979132  
C   -0.9187429    0.0003215   -2.0478682  
N   -1.1833171   -0.0009323   -0.7007913  
C   -1.7951703    0.0010483   -3.1372089  
C   -1.2375841    0.0005313   -4.4010422  
O   -2.0474218    0.0015510   -5.4997578  
C    0.1673576   -0.0013585   -4.5711963  
O    0.5673520   -0.0020735   -5.8915554  
C    1.0325768   -0.0023493   -3.4969892  
H    2.0953056   -0.0030808   -0.6200564  
H   -2.0989778    0.0102529   -0.2891822  
H   -1.4634888    0.0006601   -6.2693595  
H    1.5290707   -0.0033271   -5.9180047  
H    2.1042146   -0.0039770   -3.6584456  
C    0.0000000    0.0000000    1.4700000  
C    1.0541688    0.0001722    2.3260392  
C    0.5103138    0.0000454    3.6635956  
C   -0.9576371   -0.0002459    3.5155732  
N   -1.2018458    0.0001392    2.1615969  
C   -1.8348311   -0.0008317    4.5510609  
C   -1.2972847   -0.0009736    5.9014604  
O   -2.0050672   -0.0014265    6.9001319  
C    0.2542623   -0.0004184    6.0817573  
O    0.7184670   -0.0002256    7.2139121  
C    1.0974552   -0.0000873    4.8889129  
H    2.0940752    0.0005483    2.0517982  
H   -2.9081052   -0.0011668    4.4207061  
H    2.1707277    0.0000911    5.0223670  
H   -2.1128194   -0.0014912    1.7406791  
