46
0A 1A 10B 31A 32A 41B 16 11 15 45 42 44 2 3 4 2 3 4 3 0 3 0 nosym
C    4.6227521   -2.1147244   -2.7769231  
C    4.8866944   -1.6142460   -4.0308460  
C    3.8102481   -0.7401948   -4.3653565  
C    2.9119791   -0.7471319   -3.2676358  
N    3.4344775   -1.5933827   -2.3213414  
C    1.7334694    0.0049281   -3.2500363  
C    1.4568676    0.7783105   -4.3606886  
O    0.3197451    1.5324428   -4.3960512  
C    2.3405795    0.7981738   -5.4658933  
O    1.9249921    1.6173853   -6.4952243  
C    3.5032514    0.0562913   -5.4840551  
H    5.7484612   -1.8509711   -4.6311073  
H    3.0211641   -1.7910803   -1.4279946  
H    0.3204377    1.9877183   -5.2481010  
H    2.5771518    1.5734201   -7.2011696  
H    4.1606117    0.0915596   -6.3449333  
H    5.1873832   -2.8034334   -2.1720847  
C    1.1319246    0.0015678   -0.8009269  
C    0.7969914    0.0034958   -2.1169402  
C   -0.6453340    0.0035696   -2.1842669  
C   -1.1266833    0.0015410   -0.7896025  
N    0.0000000    0.0000000    0.0000000  
C   -2.4346130    0.0013912   -0.4276293  
C   -3.4350112    0.0031335   -1.4820181  
O   -4.6384613    0.0030876   -1.2583913  
C   -2.9478960    0.0050441   -2.9661073  
O   -3.7809383    0.0062138   -3.8623774  
C   -1.5113825    0.0053055   -3.2312121  
H   -2.7664565    0.0000174    0.6013448  
H   -1.1823532    0.0068381   -4.2614847  
H    2.1104315    0.0009436   -0.3488059  
C    2.5528530    2.1414826    2.8079335  
C    2.0663498    1.7338582    4.0032312  
C    0.9804344    0.8229586    3.6752840  
C    0.9495562    0.7966882    2.1971295  
N    1.8690446    1.5676019    1.6831036  
C    0.0000000    0.0000000    1.4700000  
C   -0.8785127   -0.7372425    2.1869543  
O   -1.8187535   -1.5261249    1.6395491  
C   -0.8723269   -0.7321790    3.6796354  
O   -1.7010379   -1.4274584    4.2670412  
C    0.1115397    0.0933559    4.4024240  
H    2.4028853    2.0163452    4.9860947  
H   -2.2861435   -1.9184361    2.3990168  
H    0.0832434    0.0693689    5.4835595  
H    3.3664920    2.8238276    2.6198634  
