48
4A 5B 22B 38B 11 12 30 44 1 7 7 7 2 1 1 0 nosym
C    3.4043900   -0.7238081   -2.9866276  
C    2.4861704   -0.0045250   -3.7159919  
C    3.2157051    0.7222719   -4.7029796  
C    4.5864960    0.4037115   -4.5258408  
N    4.6660350   -0.4752044   -3.4742717  
C    5.5976560    0.9414642   -5.3278179  
C    5.2180660    1.8165113   -6.3270089  
O    6.1647839    2.3704486   -7.1393468  
C    3.8554681    2.1469838   -6.5191801  
O    3.6389492    3.0323049   -7.5548780  
C    2.8574275    1.6170664   -5.7282138  
H    5.5126288   -0.8852548   -3.1233888  
H    6.6442453    0.7028013   -5.1978455  
H    5.6926415    2.9425684   -7.7582368  
H    2.6940800    3.2024982   -7.6170084  
H    1.8223730    1.8889791   -5.8991049  
H    3.2593137   -1.3933936   -2.1562259  
C    0.0000000    0.0000000    0.0000000  
C    1.0521669   -0.0011846   -0.8862340  
C    0.4917221   -0.0011929   -2.1979129  
C   -0.9187427    0.0003105   -2.0478683  
N   -1.1833170   -0.0009470   -0.7007914  
C   -1.7951698    0.0010264   -3.1372090  
C   -1.2375835    0.0005167   -4.4010424  
O   -2.0474208    0.0015263   -5.4997579  
C    0.1673584   -0.0013551   -4.5711963  
O    0.5673529   -0.0020652   -5.8915551  
C    1.0325773   -0.0023355   -3.4969889  
H    2.0953059   -0.0030541   -0.6200561  
H   -2.0989778    0.0102266   -0.2891826  
H   -2.8710930    0.0020277   -3.0295514  
H   -1.4634881    0.0006434   -6.2693595  
H    1.5290714   -0.0033067   -5.9180046  
C    1.0672568    0.0000697    2.3021913  
C    0.0000000    0.0000000    1.4700000  
C   -1.1601224    0.0000736    2.3478473  
C   -0.5938729    0.0000769    3.7138435  
N    0.7113367    0.0001554    3.6934124  
C   -1.4286986    0.0001879    4.8835240  
C   -2.7683114    0.0006799    4.6970523  
O   -3.6653903    0.0008304    5.6976972  
C   -3.3702025    0.0010610    3.3310774  
O   -4.5974910    0.0013779    3.2362962  
C   -2.4926826    0.0008943    2.1470656  
H   -0.9878360   -0.0000190    5.8697035  
H   -4.5324246    0.0012261    5.2533954  
H   -2.9677772    0.0012974    1.1752040  
H    2.1134392    0.0000545    2.0405121  
