48
5B 10B 27B 31A 35A 36B 13 16 29 47 43 44 7 4 4 2 1 7 2 1 3 0 nosym
C    4.7390840    0.0009613   -1.2727298  
C    5.7457113    0.0027392   -2.2103681  
C    6.9802492    0.0028875   -1.4958641  
C    6.6612408    0.0008545   -0.1137802  
N    5.2920916    0.0016753   -0.0135511  
C    7.6369656    0.0001119    0.8875938  
C    8.9588062    0.0011389    0.4864543  
O    9.9518660    0.0001281    1.4228548  
C    9.2971111    0.0035436   -0.8877222  
O   10.6560639    0.0047305   -1.1256044  
C    8.3350583    0.0045507   -1.8761451  
H    5.6072444    0.0049039   -3.2779895  
H    4.7730888   -0.0099225    0.8457991  
H    7.4003710   -0.0012919    1.9426879  
H   10.7862573    0.0014115    0.9359720  
H   10.7982740    0.0063140   -2.0771177  
H    8.6245422    0.0065795   -2.9204982  
C    3.2798077    0.0005856   -1.4499661  
C    2.5571132    0.0005565   -2.5996564  
C    1.1637425    0.0001547   -2.2210366  
C    1.1336959   -0.0000200   -0.7459475  
N    2.4483509   -0.0001429   -0.3402730  
C    0.0000000    0.0000000    0.0000000  
C   -1.2757370   -0.0000187   -0.6964411  
O   -2.3524597   -0.0000640   -0.1142306  
C   -1.2676502   -0.0000874   -2.2584078  
O   -2.3355774   -0.0004102   -2.8557287  
C    0.0181551    0.0001758   -2.9516297  
H    2.9547342    0.0006074   -3.5989118  
H    0.0150776    0.0003317   -4.0331632  
H    2.7563626    0.0012823    0.6148051  
C    2.5311839    2.1237619    3.0120429  
C    1.9795631    1.6616747    1.8395852  
C    0.9223175    0.7739173    2.1983588  
C    0.8753926    0.7337535    3.6154372  
N    1.8668922    1.5631002    4.0777464  
C   -0.0496243   -0.0427881    4.3197917  
C   -0.9437528   -0.7922060    3.5801400  
O   -1.8685244   -1.5680278    4.2172520  
C   -0.9124520   -0.7656372    2.1655264  
O   -1.8671164   -1.5663939    1.5732860  
C    0.0000000    0.0000000    1.4700000  
H    2.3005065    1.9304404    0.8477417  
H    2.0679347    1.7444845    5.0445261  
H   -0.0904770   -0.0778569    5.3997470  
H   -2.3849669   -2.0011402    3.5251786  
H   -1.7775064   -1.4909735    0.6183591  
H    3.3468514    2.8078103    3.1724291  
