48
5B 10B 31A 32A 41B 13 16 47 42 46 7 4 2 3 4 2 0 3 0 nosym
C   -0.8287671    0.0000935   -4.7555305  
C    0.4934746   -0.0006598   -5.1351931  
C    0.5171460   -0.0005564   -6.5613908  
C   -0.8317454    0.0005673   -7.0000442  
N   -1.6230473   -0.0010138   -5.8782355  
C   -1.1872834    0.0012736   -8.3522208  
C   -0.1624543    0.0011447   -9.2784520  
O   -0.4533751    0.0021631  -10.6120096  
C    1.1896014   -0.0003450   -8.8604091  
O    2.0936292   -0.0007027   -9.9025598  
C    1.5410840   -0.0013157   -7.5266238  
H    1.3371559   -0.0023206   -4.4664687  
H   -2.6269690    0.0098532   -5.8761615  
H   -2.2134630    0.0019867   -8.6930396  
H    0.3938023    0.0015725  -11.0762892  
H    2.9824058   -0.0017001   -9.5342134  
H    2.5853074   -0.0026324   -7.2366685  
C    1.0672566   -0.0000698   -0.8321912  
C    0.0000000    0.0000000    0.0000000  
C   -1.1601226   -0.0000736   -0.8778472  
C   -0.5938732   -0.0000770   -2.2438435  
N    0.7113365   -0.0001555   -2.2234123  
C   -1.4286989   -0.0001880   -3.4135239  
C   -2.7683117   -0.0006800   -3.2270522  
O   -3.6653907   -0.0008306   -4.2276967  
C   -3.3702026   -0.0010611   -1.8610771  
O   -4.5974909   -0.0013781   -1.7662957  
C   -2.4926826   -0.0008944   -0.6770655  
H   -4.5324249   -0.0012263   -3.7833950  
H   -2.9677773   -0.0012975    0.2947963  
H    2.1134390   -0.0000546   -0.5705121  
C    2.5285572    2.1210227    2.9438989  
C    1.9331703    1.6216660    4.0790748  
C    0.8903039    0.7472258    3.6520102  
C    0.8972198    0.7527806    2.2336141  
N    1.9028376    1.5986179    1.8362361  
C    0.0000000    0.0000000    1.4700000  
C   -0.9207814   -0.7726952    2.1506477  
O   -1.8198395   -1.5274828    1.4542253  
C   -0.9436862   -0.7911793    3.5655508  
O   -1.9197945   -1.6098497    4.0950179  
C   -0.0590329   -0.0485852    4.3195194  
H    2.2150357    1.8593692    5.0905303  
H    2.1533708    1.7953814    0.8841339  
H   -2.3621246   -1.9821033    2.1118817  
H   -1.8668290   -1.5649508    5.0545920  
H   -0.1007624   -0.0827977    5.4019087  
H    3.3491200    2.8096064    2.8367138  
