48
0A 4A 5B 31A 32A 41B 16 12 13 47 42 46 2 1 7 2 3 4 3 0 3 0 nosym
C    4.6027089   -2.1265791   -2.8462619  
C    3.4309131   -1.6630272   -2.2944635  
C    2.8451604   -0.7759514   -3.2455631  
C    3.7117809   -0.7376939   -4.3678065  
N    4.7699758   -1.5674709   -4.0915609  
C    3.4480290    0.0377286   -5.5009189  
C    2.2881492    0.7879665   -5.5012619  
O    1.9817485    1.5627593   -6.5823861  
C    1.4110652    0.7632977   -4.3908875  
O    0.2984700    1.5646654   -4.5434816  
C    1.6707639   -0.0012345   -3.2725973  
H    3.0462478   -1.9304037   -1.3251669  
H    5.5407092   -1.7501111   -4.7084822  
H    4.1045592    0.0713436   -6.3594292  
H    1.1430813    1.9967000   -6.3784301  
H   -0.2408558    1.4905408   -3.7502371  
H    5.3331290   -2.8106869   -2.4494725  
C    1.0965515    0.0001358   -0.8010305  
C    0.0000000    0.0000000    0.0000000  
C   -1.1546564    0.0001470   -0.8669509  
C   -0.6372017    0.0003518   -2.2486278  
N    0.7342868    0.0007337   -2.1395011  
C   -1.4147742    0.0001351   -3.3608713  
C   -2.8576052   -0.0001048   -3.1854458  
O   -3.6427782   -0.0002494   -4.1244899  
C   -3.4275841   -0.0000725   -1.7311663  
O   -4.6406831    0.0000333   -1.5710053  
C   -2.4891868   -0.0001090   -0.6116741  
H   -1.0150454    0.0001614   -4.3654241  
H   -2.8919123   -0.0002920    0.3920869  
H    2.1388270    0.0000662   -0.5261648  
C    2.5285572    2.1210227    2.9438989  
C    1.9331703    1.6216660    4.0790748  
C    0.8903039    0.7472258    3.6520102  
C    0.8972198    0.7527806    2.2336141  
N    1.9028376    1.5986179    1.8362361  
C    0.0000000    0.0000000    1.4700000  
C   -0.9207814   -0.7726952    2.1506477  
O   -1.8198395   -1.5274828    1.4542253  
C   -0.9436862   -0.7911793    3.5655508  
O   -1.9197945   -1.6098497    4.0950179  
C   -0.0590329   -0.0485852    4.3195194  
H    2.2150357    1.8593692    5.0905303  
H    2.1533708    1.7953814    0.8841339  
H   -2.3621246   -1.9821033    2.1118817  
H   -1.8668290   -1.5649508    5.0545920  
H   -0.1007624   -0.0827977    5.4019087  
H    3.3491200    2.8096064    2.8367138  
