46
1A 10B 27B 36B 11 15 30 42 3 4 4 7 2 1 1 0 nosym
C   -3.9737215    0.7080824   -1.7936963  
C   -5.3255064    0.4571936   -1.8405997  
C   -5.5431728   -0.4515258   -2.9183056  
C   -4.2766879   -0.7219843   -3.4969207  
N   -3.3460097   -0.0004262   -2.7913647  
C   -4.1113764   -1.5812563   -4.5873849  
C   -5.2451920   -2.1786165   -5.1029446  
O   -5.1408321   -3.0267400   -6.1672791  
C   -6.5176424   -1.9210282   -4.5396190  
O   -7.5485227   -2.5911714   -5.1653482  
C   -6.6815055   -1.0732373   -3.4640144  
H   -6.0640062    0.8782974   -1.1800825  
H   -3.1488750   -1.7914291   -5.0330533  
H   -6.0370796   -3.3281938   -6.3650960  
H   -8.3722213   -2.3622436   -4.7240798  
H   -7.6687535   -0.8951302   -3.0540174  
H   -3.4078304    1.3374795   -1.1284256  
C    0.0000000    0.0000000    0.0000000  
C    1.0662919   -0.0000103   -0.8334272  
C    0.4961868    0.0000066   -2.1718889  
C   -0.9663860   -0.0000849   -1.9540248  
N   -1.2632775   -0.0000084   -0.6828659  
C   -1.8985364   -0.0000515   -3.0477258  
C   -1.3925778    0.0004567   -4.3020543  
O   -2.1456385    0.0005412   -5.4151314  
C    0.0786229    0.0009326   -4.5544999  
O    0.4683756    0.0012594   -5.7221104  
C    1.0143162    0.0008443   -3.4159034  
H    2.1107195    0.0000631   -0.5721869  
H   -1.5042277    0.0009692   -6.1484420  
H    2.0724151    0.0013151   -3.6409746  
C    1.0672568    0.0000697    2.3021913  
C    0.0000000    0.0000000    1.4700000  
C   -1.1601224    0.0000736    2.3478473  
C   -0.5938729    0.0000769    3.7138435  
N    0.7113367    0.0001554    3.6934124  
C   -1.4286986    0.0001879    4.8835240  
C   -2.7683114    0.0006799    4.6970523  
O   -3.6653903    0.0008304    5.6976972  
C   -3.3702025    0.0010610    3.3310774  
O   -4.5974910    0.0013779    3.2362962  
C   -2.4926826    0.0008943    2.1470656  
H   -0.9878360   -0.0000190    5.8697035  
H   -4.5324246    0.0012261    5.2533954  
H   -2.9677772    0.0012974    1.1752040  
H    2.1134392    0.0000545    2.0405121  
