48
1A 10B 17A 35A 36B 11 15 29 42 43 3 4 2 1 7 2 1 2 0 nosym
C    0.8852641   -0.7074226   -5.2161084  
C    0.5993468   -0.4569339   -6.5382184  
C   -0.5006920    0.4507934   -6.5615731  
C   -0.8459783    0.7210872   -5.2126307  
N    0.0139740    0.0003882   -4.4216236  
C   -1.8906672    1.5794580   -4.8568025  
C   -2.5995126    2.1760696   -5.8813859  
O   -3.6292754    3.0232981   -5.5901735  
C   -2.2703427    1.9186313   -7.2334917  
O   -3.0694405    2.5879579   -8.1372552  
C   -1.2400320    1.0717291   -7.5852622  
H    1.1189315   -0.8776614   -7.3820273  
H   -2.1589207    1.7895000   -3.8305842  
H   -3.9830443    3.3243422   -6.4372181  
H   -2.7809050    2.3591935   -9.0260846  
H   -1.0112991    0.8937149   -8.6295182  
H    1.6408470   -1.3360925   -4.7769874  
C    3.2798084    0.0005857   -1.4499648  
C    2.5571144    0.0005567   -2.5996554  
C    1.1637435    0.0001550   -2.2210360  
C    1.1336965   -0.0000199   -0.7459471  
N    2.4483512   -0.0001427   -0.3402718  
C    0.0000000    0.0000000    0.0000000  
C   -1.2757368   -0.0000186   -0.6964414  
O   -2.3524597   -0.0000639   -0.1142313  
C   -1.2676495   -0.0000872   -2.2584081  
O   -2.3355764   -0.0004099   -2.8557294  
C    0.0181561    0.0001761   -2.9516296  
H    2.9547355    0.0006077   -3.5989105  
H    4.3498548    0.0008614   -1.3200022  
H    2.7563628    0.0012824    0.6148063  
C    0.8576279    0.7185626    2.2703808  
C    0.0000000    0.0000000    1.4700000  
C   -0.8668858   -0.7285659    2.3373528  
C   -0.4876752   -0.4117774    3.6669281  
N    0.5635254    0.4678311    3.5902241  
C   -1.1297612   -0.9515493    4.7854808  
C   -2.1738724   -1.8268314    4.5576857  
O   -2.8357962   -2.3827064    5.6140350  
C   -2.5667212   -2.1555554    3.2384331  
O   -3.6226318   -3.0413663    3.1773122  
C   -1.9335634   -1.6236449    2.1344818  
H    1.0363952    0.8769718    4.3757045  
H   -0.8454472   -0.7142436    5.8013813  
H   -3.5178062   -2.9546422    5.2385129  
H   -3.8247440   -3.2102924    2.2519915  
H   -2.2566033   -1.8942483    1.1360343  
H    1.6567807    1.3889844    2.0042067  
