48
0A 1A 10B 17A 33A 38B 16 11 15 32 47 45 2 3 4 2 2 7 3 1 2 0 nosym
C    2.3028670   -2.1229285   -5.9144802  
C    1.6515880   -1.6243315   -7.0188821  
C    0.6310838   -0.7498518   -6.5409110  
C    0.7086130   -0.7546006   -5.1246156  
N    1.7329568   -1.6000171   -4.7773283  
C   -0.1496417   -0.0015611   -4.3176961  
C   -1.1033416    0.7705689   -4.9520851  
O   -1.9667781    1.5255767   -4.2121834  
C   -1.1966688    0.7882458   -6.3641031  
O   -2.1981099    1.6064258   -6.8447693  
C   -0.3504871    0.0453959   -7.1607691  
H    1.8827975   -1.8625538   -8.0429845  
H    2.0306272   -1.7961916   -3.8387714  
H   -2.5412358    1.9797187   -4.8422771  
H   -2.1929765    1.5609929   -7.8057654  
H   -0.4460636    0.0789863   -8.2397568  
H    3.1279011   -2.8112912   -5.8478993  
C    3.3003542    0.0005275   -1.4738988  
C    2.5232813    0.0003498   -2.6090748  
C    1.1623199   -0.0001318   -2.1820103  
C    1.1711883    0.0000584   -0.7636141  
N    2.4852299   -0.0014919   -0.3662361  
C    0.0000000    0.0000000    0.0000000  
C   -1.2020384    0.0000520   -0.6806476  
O   -2.3759249    0.0003494    0.0157744  
C   -1.2314658   -0.0005112   -2.0955509  
O   -2.5054393   -0.0008037   -2.6250179  
C   -0.0764518   -0.0007271   -2.8495194  
H    2.8919952   -0.0005618   -3.6205305  
H    2.8036266    0.0088182    0.5858661  
H   -3.0835640    0.0000347   -0.6418816  
H   -2.4360050   -0.0011526   -3.5845920  
H    4.3715548    0.0004895   -1.3667138  
C    2.3971438    2.0127888    3.1728260  
C    1.9431056    1.6308205    1.9564670  
C    0.8496017    0.7127664    2.2356185  
C    0.7794028    0.6545384    3.7115134  
N    1.6840587    1.4146091    4.2663826  
C   -0.1885723   -0.1578550    4.3957118  
C   -1.0476298   -0.8789867    3.6398520  
O   -2.0015663   -1.6796266    4.1448486  
C   -1.0022026   -0.8410666    2.1483229  
O   -1.8147390   -1.5232959    1.5241687  
C    0.0000000    0.0000000    1.4700000  
H    2.3054237    1.9346118    0.9892483  
H   -0.2170646   -0.1815267    5.4753125  
H   -2.4487139   -2.0549881    3.3649027  
H    3.2048689    2.6911772    3.3971983  
