46
0A 1A 10B 27B 36B 41B 16 11 15 29 43 44 2 3 4 4 7 4 3 1 2 0 nosym
C    6.6001506    0.0019433   -4.3713018  
C    7.6333543    0.0021446   -3.4630303  
C    7.0453157    0.0020498   -2.1634878  
C    5.6383364    0.0015002   -2.3433062  
N    5.4022893    0.0034000   -3.6956728  
C    4.7390840    0.0009613   -1.2727298  
C    5.2698382    0.0006706    0.0026046  
O    4.4369620   -0.0002077    1.0839604  
C    6.6708713    0.0015854    0.2024108  
O    7.0428739    0.0015759    1.5309276  
C    7.5585984    0.0023905   -0.8532721  
H    8.6818864    0.0034412   -3.7071045  
H    4.4955245   -0.0070442   -4.1265437  
H    5.0045013    0.0000321    1.8657301  
H    8.0038195    0.0021939    1.5776948  
H    8.6265853    0.0032635   -0.6692050  
H    6.6229005    0.0023217   -5.4476104  
C    3.2798077    0.0005856   -1.4499661  
C    2.5571132    0.0005565   -2.5996564  
C    1.1637425    0.0001547   -2.2210366  
C    1.1336959   -0.0000200   -0.7459475  
N    2.4483509   -0.0001429   -0.3402730  
C    0.0000000    0.0000000    0.0000000  
C   -1.2757370   -0.0000187   -0.6964411  
O   -2.3524597   -0.0000640   -0.1142306  
C   -1.2676502   -0.0000874   -2.2584078  
O   -2.3355774   -0.0004102   -2.8557287  
C    0.0181551    0.0001758   -2.9516297  
H    2.9547342    0.0006074   -3.5989118  
H    0.0150776    0.0003317   -4.0331632  
H    2.7563626    0.0012823    0.6148051  
C    0.0000000    0.0000000    1.4700000  
C    1.0541688    0.0001722    2.3260392  
C    0.5103138    0.0000454    3.6635956  
C   -0.9576371   -0.0002459    3.5155732  
N   -1.2018458    0.0001392    2.1615969  
C   -1.8348311   -0.0008317    4.5510609  
C   -1.2972847   -0.0009736    5.9014604  
O   -2.0050672   -0.0014265    6.9001319  
C    0.2542623   -0.0004184    6.0817573  
O    0.7184670   -0.0002256    7.2139121  
C    1.0974552   -0.0000873    4.8889129  
H    2.0940752    0.0005483    2.0517982  
H   -2.9081052   -0.0011668    4.4207061  
H    2.1707277    0.0000911    5.0223670  
H   -2.1128194   -0.0014912    1.7406791  
