48
5B 10B 31A 32A 41B 13 16 47 42 46 7 4 2 3 4 2 0 3 0 nosym
C   -0.8712823    0.0001712   -4.7267111  
C    0.4339910   -0.0007980   -5.1611397  
C    0.3982143   -0.0008778   -6.5870850  
C   -0.9677834    0.0003618   -6.9691514  
N   -1.7116543   -0.0009770   -5.8153445  
C   -1.3793555    0.0009425   -8.3053389  
C   -0.3940115    0.0005663   -9.2734678  
O   -0.7402469    0.0014532  -10.5937462  
C    0.9742895   -0.0010423   -8.9121277  
O    1.8341069   -0.0016465   -9.9910417  
C    1.3810432   -0.0018892   -7.5941455  
H    1.3048040   -0.0024816   -4.5281507  
H   -2.7146164    0.0100178   -5.7714419  
H   -2.4188456    0.0017429   -8.6031026  
H    0.0868488    0.0006963  -11.0929229  
H    2.7374598   -0.0027102   -9.6600491  
H    2.4364414   -0.0033019   -7.3479530  
C    1.0965515    0.0001358   -0.8010304  
C    0.0000000    0.0000000    0.0000000  
C   -1.1546562    0.0001470   -0.8669514  
C   -0.6372012    0.0003520   -2.2486282  
N    0.7342873    0.0007338   -2.1395014  
C   -1.4147737    0.0001354   -3.3608717  
C   -2.8576047   -0.0001047   -3.1854463  
O   -3.6427778   -0.0002491   -4.1244908  
C   -3.4275837   -0.0000725   -1.7311667  
O   -4.6406828    0.0000333   -1.5710061  
C   -2.4891866   -0.0001090   -0.6116745  
H   -2.8919121   -0.0002919    0.3920865  
H    2.1388272    0.0000662   -0.5261647  
H    1.3735873   -0.0006098   -2.9130261  
C    2.5285572    2.1210227    2.9438989  
C    1.9331703    1.6216660    4.0790748  
C    0.8903039    0.7472258    3.6520102  
C    0.8972198    0.7527806    2.2336141  
N    1.9028376    1.5986179    1.8362361  
C    0.0000000    0.0000000    1.4700000  
C   -0.9207814   -0.7726952    2.1506477  
O   -1.8198395   -1.5274828    1.4542253  
C   -0.9436862   -0.7911793    3.5655508  
O   -1.9197945   -1.6098497    4.0950179  
C   -0.0590329   -0.0485852    4.3195194  
H    2.2150357    1.8593692    5.0905303  
H    2.1533708    1.7953814    0.8841339  
H   -2.3621246   -1.9821033    2.1118817  
H   -1.8668290   -1.5649508    5.0545920  
H   -0.1007624   -0.0827977    5.4019087  
H    3.3491200    2.8096064    2.8367138  
