48
5B 10B 36B 41B 13 16 44 47 7 4 7 4 2 0 2 0 nosym
C    3.1006056    0.0006265   -3.9654949  
C    4.4058792    0.0006161   -4.3999234  
C    4.3701029    0.0000669   -5.8258686  
C    3.0041045    0.0000452   -6.2079351  
N    2.2602350   -0.0015608   -5.0541277  
C    2.5925319   -0.0001305   -7.5441227  
C    3.5778764    0.0000198   -8.5122525  
O    3.2316403    0.0002100   -9.8325301  
C    4.9461777   -0.0003319   -8.1509103  
O    5.8059957   -0.0005488   -9.2298252  
C    5.3529322   -0.0004320   -6.8329289  
H    5.2766933   -0.0001433   -3.7669341  
H    1.2572642    0.0086079   -5.0102282  
H    1.5530421   -0.0002921   -7.8418863  
H    4.0587364   -0.0000084  -10.3317068  
H    6.7093493   -0.0007543   -8.8988324  
H    6.4083314   -0.0008853   -6.5867362  
C    3.2798085    0.0005858   -1.4499649  
C    2.5571143    0.0005567   -2.5996554  
C    1.1637433    0.0001549   -2.2210360  
C    1.1336964   -0.0000199   -0.7459472  
N    2.4483513   -0.0001427   -0.3402721  
C    0.0000000    0.0000000    0.0000000  
C   -1.2757369   -0.0000186   -0.6964416  
O   -2.3524596   -0.0000640   -0.1142312  
C   -1.2676496   -0.0000872   -2.2584084  
O   -2.3355764   -0.0004100   -2.8557297  
C    0.0181559    0.0001762   -2.9516297  
H    0.0150790    0.0003321   -4.0331631  
H    4.3498546    0.0008613   -1.3200024  
H    2.7563627    0.0012824    0.6148061  
C    0.0000000    0.0000000    1.4700000  
C    1.0521667    0.0011902    2.3562342  
C    0.4917218    0.0011957    3.6679131  
C   -0.9187428   -0.0003148    3.5178682  
N   -1.1833171    0.0009411    2.1707914  
C   -1.7951701   -0.0010350    4.6072090  
C   -1.2375837   -0.0005224    5.8710424  
O   -2.0474215   -0.0015360    6.9697579  
C    0.1673580    0.0013566    6.0411963  
O    0.5673524    0.0020687    7.3615553  
C    1.0325770    0.0023412    4.9669890  
H    2.0953057    0.0030649    2.0900562  
H   -2.0989778   -0.0102372    1.7591824  
H   -2.8710934   -0.0020419    4.4995513  
H   -1.4634884   -0.0006497    7.7393593  
H    1.5290710    0.0033153    7.3880045  
H    2.1042148    0.0039609    5.1284455  
