48
1A 10B 22B 34A 43B 11 15 30 44 46 3 4 7 3 4 2 1 2 0 nosym
C    3.3982216   -0.7145342   -2.9707414  
C    4.6647820   -0.4659147   -3.4466420  
C    4.5287039    0.4429083   -4.5375697  
C    3.1442606    0.7157658   -4.6817640  
N    2.4861704   -0.0045250   -3.7159919  
C    2.6410753    1.5757960   -5.6625506  
C    3.5520997    2.1714609   -6.5130770  
O    3.1149983    3.0202280   -7.4885515  
C    4.9373397    1.9114705   -6.3852785  
O    5.7157784    2.5801418   -7.3073713  
C    5.4344294    1.0629304   -5.4181135  
H    5.5747281   -0.8885590   -3.0563048  
H    1.5870424    1.7877939   -5.7777582  
H    3.9017681    3.3202503   -7.9620961  
H    6.6368301    2.3496252   -7.1520319  
H    6.5005864    0.8829716   -5.3446134  
H    3.0731455   -1.3432643   -2.1595802  
C    0.0000000    0.0000000    0.0000000  
C    1.0521669   -0.0011846   -0.8862340  
C    0.4917221   -0.0011929   -2.1979129  
C   -0.9187427    0.0003105   -2.0478683  
N   -1.1833170   -0.0009470   -0.7007914  
C   -1.7951698    0.0010264   -3.1372090  
C   -1.2375835    0.0005167   -4.4010424  
O   -2.0474208    0.0015263   -5.4997579  
C    0.1673584   -0.0013551   -4.5711963  
O    0.5673529   -0.0020652   -5.8915551  
C    1.0325773   -0.0023355   -3.4969889  
H    2.0953059   -0.0030541   -0.6200561  
H   -2.0989778    0.0102266   -0.2891826  
H   -2.8710930    0.0020277   -3.0295514  
H   -1.4634881    0.0006434   -6.2693595  
H    1.5290714   -0.0033067   -5.9180046  
C    1.1319247   -0.0015655    2.2709268  
C    0.7969915   -0.0034943    3.5869401  
C   -0.6453339   -0.0035710    3.6542670  
C   -1.1266833   -0.0015433    2.2596025  
N    0.0000000    0.0000000    1.4700000  
C   -2.4346130   -0.0013964    1.8976294  
C   -3.4350110   -0.0031408    2.9520183  
O   -4.6384611   -0.0030974    2.7283916  
C   -2.9478959   -0.0050506    4.4361073  
O   -3.7809380   -0.0062218    5.3323774  
C   -1.5113823   -0.0053090    4.7012123  
H    1.4821238   -0.0045407    4.4159191  
H   -2.7664565   -0.0000232    0.8686553  
H   -1.1823530   -0.0068408    5.7314848  
H    2.1104316   -0.0009391    1.8188057  
