46
0A 4A 5B 31A 32A 41B 16 12 13 45 42 44 2 1 7 2 3 4 3 0 3 0 nosym
C    1.8180630   -2.1129497   -5.3329859  
C    0.9354851   -1.6527937   -4.3833644  
C    0.0367045   -0.7650452   -5.0457060  
C    0.4230765   -0.7228967   -6.4098414  
N    1.5089683   -1.5511034   -6.5495950  
C   -0.2445092    0.0541902   -7.3612902  
C   -1.3219475    0.8021224   -6.9278137  
O   -2.0097561    1.5783945   -7.8151330  
C   -1.7224656    0.7735648   -5.5707632  
O   -2.8127701    1.5730149   -5.2960654  
C   -1.0641730    0.0073887   -4.6315340  
H    0.9397145   -1.9228074   -3.3412189  
H    1.9947608   -1.7310194   -7.4096044  
H    0.0450909    0.0907690   -8.4024413  
H   -2.7126526    2.0102736   -7.3124581  
H   -3.0178516    1.4962858   -4.3592318  
H    2.6444742   -2.7963717   -5.2384451  
C    1.1319249    0.0015673   -0.8009268  
C    0.7969919    0.0034954   -2.1169403  
C   -0.6453335    0.0035697   -2.1842672  
C   -1.1266831    0.0015413   -0.7896029  
N    0.0000000    0.0000000    0.0000000  
C   -2.4346128    0.0013921   -0.4276299  
C   -3.4350109    0.0031346   -1.4820187  
O   -4.6384610    0.0030891   -1.2583924  
C   -2.9478954    0.0050451   -2.9661078  
O   -3.7809375    0.0062147   -3.8623779  
C   -1.5113818    0.0053061   -3.2312126  
H    1.4821242    0.0045430   -2.9459191  
H   -2.7664565    0.0000184    0.6013444  
H    2.1104318    0.0009428   -0.3488057  
C    2.5528530    2.1414826    2.8079335  
C    2.0663498    1.7338582    4.0032312  
C    0.9804344    0.8229586    3.6752840  
C    0.9495562    0.7966882    2.1971295  
N    1.8690446    1.5676019    1.6831036  
C    0.0000000    0.0000000    1.4700000  
C   -0.8785127   -0.7372425    2.1869543  
O   -1.8187535   -1.5261249    1.6395491  
C   -0.8723269   -0.7321790    3.6796354  
O   -1.7010379   -1.4274584    4.2670412  
C    0.1115397    0.0933559    4.4024240  
H    2.4028853    2.0163452    4.9860947  
H   -2.2861435   -1.9184361    2.3990168  
H    0.0832434    0.0693689    5.4835595  
H    3.3664920    2.8238276    2.6198634  
