50
33A 37A 38B 10A 20B 21B 49 45 46 15 27 28 2 1 7 4 1 7 3 1 2 0 nosym
C    3.3003548    0.0005276   -1.4738982  
C    2.5232817    0.0003497   -2.6090743  
C    1.1623206   -0.0001319   -2.1820098  
C    1.1711888    0.0000583   -0.7636138  
N    2.4852302   -0.0014919   -0.3662355  
C    0.0000000    0.0000000    0.0000000  
C   -1.2020381    0.0000520   -0.6806479  
O   -2.3759246    0.0003495    0.0157742  
C   -1.2314650   -0.0005112   -2.0955510  
O   -2.5054382   -0.0008036   -2.6250182  
C   -0.0764510   -0.0007271   -2.8495193  
H    2.8919962   -0.0005619   -3.6205297  
H    2.8036267    0.0088181    0.5858667  
H   -3.0835639    0.0000348   -0.6418822  
H   -2.4360046   -0.0011526   -3.5845924  
H   -0.1304090   -0.0013420   -3.9319086  
C    5.6708528    0.0001561   -2.3611558  
C    4.7630507    0.0004755   -1.3275395  
C    5.5133489   -0.0009826   -0.1144237  
C    6.8855145   -0.0018731   -0.4737115  
N    6.9456604   -0.0030999   -1.8452063  
C    7.9149932   -0.0030749    0.4723125  
C    7.5526783   -0.0030761    1.8053188  
O    8.5177191   -0.0038720    2.7705704  
C    6.1889804   -0.0025711    2.1836636  
O    5.9909382   -0.0030669    3.5489925  
C    5.1728473   -0.0016588    1.2509268  
H    7.7894880    0.0066339   -2.3891196  
H    8.9627169   -0.0039020    0.2049647  
H    8.0554424   -0.0040214    3.6188424  
H    5.0439892   -0.0026487    3.7189659  
H    4.1374040   -0.0014715    1.5708272  
H    5.5098584    0.0005474   -3.4255993  
C    2.5311839    2.1237619    3.0120429  
C    1.9795631    1.6616747    1.8395852  
C    0.9223175    0.7739173    2.1983588  
C    0.8753926    0.7337535    3.6154372  
N    1.8668922    1.5631002    4.0777464  
C   -0.0496243   -0.0427881    4.3197917  
C   -0.9437528   -0.7922060    3.5801400  
O   -1.8685244   -1.5680278    4.2172520  
C   -0.9124520   -0.7656372    2.1655264  
O   -1.8671164   -1.5663939    1.5732860  
C    0.0000000    0.0000000    1.4700000  
H    2.3005065    1.9304404    0.8477417  
H    2.0679347    1.7444845    5.0445261  
H   -0.0904770   -0.0778569    5.3997470  
H   -2.3849669   -2.0011402    3.5251786  
H   -1.7775064   -1.4909735    0.6183591  
H    3.3468514    2.8078103    3.1724291  
