46
0A 1A 10B 17A 35A 36B 16 11 15 30 45 42 2 3 4 2 1 7 3 1 2 0 nosym
C    2.1798966   -2.1221802   -5.9542194  
C    1.5460050   -1.6229248   -7.0683974  
C    0.5185212   -0.7482579   -6.6059743  
C    0.5740702   -0.7535762   -5.1886487  
N    1.5926023   -1.5994968   -4.8258419  
C   -0.2963293   -0.0005341   -4.3948471  
C   -1.2397987    0.7721841   -5.0436536  
O   -2.1143391    1.5272219   -4.3169415  
C   -1.3112055    0.7904346   -6.4569424  
O   -2.3047781    1.6091613   -6.9527674  
C   -0.4530328    0.0475826   -7.2406751  
H    1.7929872   -1.8608395   -8.0888824  
H    1.8756082   -1.7961380   -3.8828567  
H   -2.6787918    1.9818131   -4.9556939  
H   -2.2847549    1.5640940   -7.9135858  
H   -0.5318489    0.0816200   -8.3210023  
H    3.0035530   -2.8108674   -5.8751160  
C    3.1301146   -0.0010313   -1.7028256  
C    2.5367765   -0.0002766   -0.4864669  
C    1.1089901    0.0001027   -0.7656184  
C    1.0177865   -0.0004150   -2.2415133  
N    2.1993571   -0.0011612   -2.7963824  
C   -0.2459219   -0.0002879   -2.9257116  
C   -1.3675326   -0.0000606   -2.1698520  
O   -2.6129318    0.0000865   -2.6748483  
C   -1.3083588    0.0000910   -0.6783229  
O   -2.3693264    0.0004206   -0.0541685  
C    0.0000000    0.0000000    0.0000000  
H    3.0096016   -0.0001007    0.4807518  
H   -3.1967444    0.0002093   -1.8949026  
H    4.1849275   -0.0015114   -1.9271979  
C    0.8400945    0.7047457    2.2710304  
C    0.0000000    0.0000000    1.4700000  
C   -0.8844236   -0.7423113    2.3369512  
C   -0.4878984   -0.4098547    3.7186280  
N    0.5629682    0.4714286    3.6095011  
C   -1.0836927   -0.9095027    4.8308716  
C   -2.1891196   -1.8367527    4.6554461  
O   -2.7906899   -2.3413415    5.5944904  
C   -2.6257283   -2.2031529    3.2011665  
O   -3.5549479   -2.9829990    3.0410059  
C   -1.9068976   -1.5999348    2.0816745  
H   -0.7774656   -0.6525820    5.8354244  
H   -2.2155208   -1.8586617    1.0779135  
H    1.6384792    1.3747609    1.9961646  
H    1.0518368    0.8833920    4.3830260  
