46
0A 4A 5B 17A 35A 36B 16 12 13 30 45 42 2 1 7 2 1 7 3 1 2 0 nosym
C    2.1802772   -2.1248205   -6.0224160  
C    1.6692312   -1.6624790   -4.8318113  
C    0.6003928   -0.7746704   -5.1542721  
C    0.5049067   -0.7347390   -6.5689150  
N    1.4798881   -1.5642676   -7.0648099  
C   -0.4436418    0.0417820   -7.2412683  
C   -1.3118067    0.7914177   -6.4715194  
O   -2.2578045    1.5672300   -7.0766784  
C   -1.2320189    0.7650825   -5.0588069  
O   -2.1657335    1.5660385   -4.4343152  
C   -0.2963293   -0.0005341   -4.3948471  
H    2.0239702   -1.9311122   -3.8515109  
H    1.6476425   -1.7458346   -8.0378834  
H   -0.5214996    0.0766742   -8.3191934  
H   -2.7501685    2.0005126   -6.3673769  
H   -2.0434386    1.4907688   -3.4830099  
H    2.9898969   -2.8089813   -6.2105611  
C    3.1301146   -0.0010313   -1.7028256  
C    2.5367765   -0.0002766   -0.4864669  
C    1.1089901    0.0001027   -0.7656184  
C    1.0177865   -0.0004150   -2.2415133  
N    2.1993571   -0.0011612   -2.7963824  
C   -0.2459219   -0.0002879   -2.9257116  
C   -1.3675326   -0.0000606   -2.1698520  
O   -2.6129318    0.0000865   -2.6748483  
C   -1.3083588    0.0000910   -0.6783229  
O   -2.3693264    0.0004206   -0.0541685  
C    0.0000000    0.0000000    0.0000000  
H    3.0096016   -0.0001007    0.4807518  
H   -3.1967444    0.0002093   -1.8949026  
H    4.1849275   -0.0015114   -1.9271979  
C    0.8400945    0.7047457    2.2710304  
C    0.0000000    0.0000000    1.4700000  
C   -0.8844236   -0.7423113    2.3369512  
C   -0.4878984   -0.4098547    3.7186280  
N    0.5629682    0.4714286    3.6095011  
C   -1.0836927   -0.9095027    4.8308716  
C   -2.1891196   -1.8367527    4.6554461  
O   -2.7906899   -2.3413415    5.5944904  
C   -2.6257283   -2.2031529    3.2011665  
O   -3.5549479   -2.9829990    3.0410059  
C   -1.9068976   -1.5999348    2.0816745  
H   -0.7774656   -0.6525820    5.8354244  
H   -2.2155208   -1.8586617    1.0779135  
H    1.6384792    1.3747609    1.9961646  
H    1.0518368    0.8833920    4.3830260  
