48
1A 10B 33A 38B 11 15 47 45 3 4 2 7 2 0 2 0 nosym
C    0.1177584   -0.7041719   -5.1422752  
C    0.3059610   -0.4523677   -6.4815446  
C   -0.7176658    0.4566408   -6.8821586  
C   -1.5071139    0.7263239   -5.7350014  
N   -0.9736297    0.0040464   -4.6965763  
C   -2.6097128    1.5856292   -5.7606857  
C   -2.9208566    2.1838199   -6.9663120  
O   -3.9871531    3.0320142   -7.0475013  
C   -2.1454321    1.9270133   -8.1219869  
O   -2.5829249    2.5979327   -9.2452902  
C   -1.0577190    1.0791902   -8.0974447  
H    1.0845190   -0.8730618   -7.0946165  
H   -3.2155193    1.7952128   -4.8898961  
H   -4.0265652    3.3340972   -7.9642659  
H   -2.0055192    2.3695006   -9.9801547  
H   -0.4827518    0.9016931   -8.9987691  
H    0.6748209   -1.3340378   -4.4700334  
C    1.1188642    0.0008222   -0.8003808  
C    0.0000000    0.0000000    0.0000000  
C   -1.1323862    0.0008899   -0.8673528  
C   -0.6382663    0.0019679   -2.1969280  
N    0.7324016    0.0038481   -2.1202242  
C   -1.4770914    0.0027318   -3.3154808  
C   -2.8395473    0.0020945   -3.0876857  
O   -3.7039201    0.0024425   -4.1440349  
C   -3.3517868    0.0013931   -1.7684331  
O   -4.7300497    0.0012366   -1.7073121  
C   -2.5248543    0.0009123   -0.6644817  
H    1.3576314   -0.0056167   -2.9057046  
H   -4.5940032    0.0021826   -3.7685128  
H   -4.9934602    0.0007259   -0.7819913  
H   -2.9462577    0.0005603    0.3339659  
H    2.1619895    0.0009355   -0.5342068  
C    2.3971438    2.0127888    3.1728260  
C    1.9431056    1.6308205    1.9564670  
C    0.8496017    0.7127664    2.2356185  
C    0.7794028    0.6545384    3.7115134  
N    1.6840587    1.4146091    4.2663826  
C   -0.1885723   -0.1578550    4.3957118  
C   -1.0476298   -0.8789867    3.6398520  
O   -2.0015663   -1.6796266    4.1448486  
C   -1.0022026   -0.8410666    2.1483229  
O   -1.8147390   -1.5232959    1.5241687  
C    0.0000000    0.0000000    1.4700000  
H    2.3054237    1.9346118    0.9892483  
H   -0.2170646   -0.1815267    5.4753125  
H   -2.4487139   -2.0549881    3.3649027  
H    3.2048689    2.6911772    3.3971983  
