48
5B 10B 17A 33A 38B 13 16 32 47 45 7 4 2 2 7 2 1 2 0 nosym
C   -0.1387078    0.0017019   -4.3179684  
C    0.8680293    0.0011953   -5.2554904  
C    0.2429721    0.0018231   -6.5376379  
C   -1.1582728    0.0029977   -6.3175531  
N   -1.3554490    0.0009412   -4.9589749  
C   -2.0878504    0.0041704   -7.3619062  
C   -1.5938807    0.0044642   -8.6519335  
O   -2.4574181    0.0059475   -9.7089639  
C   -0.1991530    0.0029313   -8.8918278  
O    0.1346059    0.0030290  -10.2304649  
C    0.7184769    0.0015007   -7.8620318  
H    1.9231275   -0.0006419   -5.0415804  
H   -2.2494821    0.0117257   -4.5022806  
H   -3.1570794    0.0049249   -7.2008116  
H   -1.9125271    0.0055958  -10.5066850  
H    1.0938150    0.0019691  -10.3047650  
H    1.7807470    0.0001627   -8.0766453  
C    3.3041272    0.0001178   -1.5420428  
C    2.5845372   -0.0004779   -0.3695851  
C    1.2040007   -0.0000007   -0.7283589  
C    1.1422375    0.0006038   -2.1454371  
N    2.4348641    0.0026111   -2.6077464  
C   -0.0655179    0.0008799   -2.8497918  
C   -1.2321766    0.0002325   -2.1101402  
O   -2.4392816    0.0001148   -2.7472523  
C   -1.1911209   -0.0000007   -0.6955266  
O   -2.4371527   -0.0002320   -0.1032863  
C    0.0000000    0.0000000    0.0000000  
H    3.0031533   -0.0000660    0.6222584  
H    2.7054632   -0.0071097   -3.5745261  
H   -3.1132986   -0.0000648   -2.0551788  
H   -2.3200284   -0.0004071    0.8516409  
H    4.3686626    0.0004072   -1.7024289  
C    2.3971438    2.0127888    3.1728260  
C    1.9431056    1.6308205    1.9564670  
C    0.8496017    0.7127664    2.2356185  
C    0.7794028    0.6545384    3.7115134  
N    1.6840587    1.4146091    4.2663826  
C   -0.1885723   -0.1578550    4.3957118  
C   -1.0476298   -0.8789867    3.6398520  
O   -2.0015663   -1.6796266    4.1448486  
C   -1.0022026   -0.8410666    2.1483229  
O   -1.8147390   -1.5232959    1.5241687  
C    0.0000000    0.0000000    1.4700000  
H    2.3054237    1.9346118    0.9892483  
H   -0.2170646   -0.1815267    5.4753125  
H   -2.4487139   -2.0549881    3.3649027  
H    3.2048689    2.6911772    3.3971983  
