46
0A 1A 10B 17A 31A 32A 41B 16 11 15 29 44 42 43 2 3 4 2 2 3 4 3 1 3 0 nosym
C    2.5407179   -2.1175684   -5.9030226  
C    1.9415409   -1.6187197   -7.0364263  
C    0.8989084   -0.7455181   -6.6062679  
C    0.9098659   -0.7512698   -5.1878982  
N    1.9175634   -1.5960296   -4.7935073  
C    0.0139740    0.0003882   -4.4216236  
C   -0.9096109    0.7721425   -5.0995354  
O   -1.8075345    1.5258148   -4.4004467  
C   -0.9365618    0.7908048   -6.5143649  
O   -1.9150947    1.6084498   -7.0409318  
C   -0.0532203    0.0493178   -7.2709567  
H    2.2207957   -1.8559590   -8.0487146  
H    2.1710260   -1.7926476   -3.8421507  
H   -2.3522007    1.9799183   -5.0564904  
H   -1.8648090    1.5637492   -8.0006594  
H   -0.0980676    0.0836394   -8.3532174  
H    3.3623578   -2.8052412   -5.7982735  
C    3.2798084    0.0005857   -1.4499648  
C    2.5571144    0.0005567   -2.5996554  
C    1.1637435    0.0001550   -2.2210360  
C    1.1336965   -0.0000199   -0.7459471  
N    2.4483512   -0.0001427   -0.3402718  
C    0.0000000    0.0000000    0.0000000  
C   -1.2757368   -0.0000186   -0.6964414  
O   -2.3524597   -0.0000639   -0.1142313  
C   -1.2676495   -0.0000872   -2.2584081  
O   -2.3355764   -0.0004099   -2.8557294  
C    0.0181561    0.0001761   -2.9516296  
H    2.9547355    0.0006077   -3.5989105  
H    4.3498548    0.0008614   -1.3200022  
H    2.7563628    0.0012824    0.6148063  
C    2.5128556    2.1077716    2.9199648  
C    1.9592212    1.6432552    4.0696553  
C    0.8915788    0.7479214    3.6910360  
C    0.8684491    0.7287414    2.2159470  
N    1.8754542    1.5738793    1.8102719  
C    0.0000000    0.0000000    1.4700000  
C   -0.9772830   -0.8200135    2.1664417  
O   -1.8021297   -1.5120829    1.5842315  
C   -0.9711318   -0.8147624    3.7284083  
O   -1.7894187   -1.5009653    4.3257297  
C    0.0140216    0.0115358    4.4216297  
H    2.2638494    1.8988021    5.0689105  
H    0.0117648    0.0094386    5.5031631  
H    3.3327358    2.7953732    2.7900019  
H    2.1123206    1.7707734    0.8551938  
