50
38B 43B 17A 26B 46 49 27 31 7 4 3 4 2 0 2 0 nosym
C    3.3041272    0.0001176   -1.5420431  
C    2.5845372   -0.0004781   -0.3695853  
C    1.2040006   -0.0000009   -0.7283588  
C    1.1422374    0.0006035   -2.1454372  
N    2.4348639    0.0026108   -2.6077465  
C   -0.0655182    0.0008795   -2.8497919  
C   -1.2321769    0.0002322   -2.1101399  
O   -2.4392814    0.0001143   -2.7472520  
C   -1.1911210   -0.0000008   -0.6955264  
O   -2.4371527   -0.0002321   -0.1032861  
C    0.0000000    0.0000000    0.0000000  
H    3.0031535   -0.0000660    0.6222584  
H   -0.1193549    0.0014841   -3.9297469  
H   -3.1132989   -0.0000650   -2.0551785  
H   -2.3200281   -0.0004071    0.8516412  
H    4.3686623    0.0004070   -1.7024293  
C    3.8878171   -0.7221153   -4.5427235  
C    3.9719333   -0.4862754   -5.8954137  
C    2.9171610    0.4147682   -6.2273411  
C    2.2168609    0.6962702   -5.0263988  
N    2.8310664   -0.0116222   -4.0232753  
C    1.1122536    1.5520018   -4.9778752  
C    0.7074031    2.1344020   -6.1632377  
O   -0.3652174    2.9784454   -6.1726997  
C    1.3930195    1.8656299   -7.3717530  
O    0.8682191    2.5214010   -8.4662358  
C    2.4826538    1.0213222   -7.4204129  
H    4.7028564   -0.9122323   -6.5612256  
H    0.5741181    1.7705381   -4.0658149  
H   -0.4758797    3.2691033   -7.0873241  
H    1.3885186    2.2856096   -9.2403768  
H    2.9875790    0.8344052   -8.3609398  
H    4.4971336   -1.3420435   -3.9076006  
C    0.0000000    0.0000000    1.4700000  
C    1.0521667    0.0011902    2.3562342  
C    0.4917218    0.0011957    3.6679131  
C   -0.9187428   -0.0003148    3.5178682  
N   -1.1833171    0.0009411    2.1707914  
C   -1.7951701   -0.0010350    4.6072090  
C   -1.2375837   -0.0005224    5.8710424  
O   -2.0474215   -0.0015360    6.9697579  
C    0.1673580    0.0013566    6.0411963  
O    0.5673524    0.0020687    7.3615553  
C    1.0325770    0.0023412    4.9669890  
H    2.0953057    0.0030649    2.0900562  
H   -2.0989778   -0.0102372    1.7591824  
H   -2.8710934   -0.0020419    4.4995513  
H   -1.4634884   -0.0006497    7.7393593  
H    1.5290710    0.0033153    7.3880045  
H    2.1042148    0.0039609    5.1284455  
