46
1A 10B 36B 41B 11 15 43 44 3 4 7 4 2 0 2 0 nosym
C    2.8474534   -0.7110767   -3.3262154  
C    3.4731675   -0.4622735   -4.5258177  
C    2.6437145    0.4464934   -5.2474480  
C    1.5163399    0.7191288   -4.4309786  
N    1.6707639   -0.0012345   -3.2725973  
C    0.4869745    1.5790485   -4.8256100  
C    0.5978533    2.1748299   -6.0669512  
O   -0.3787474    3.0234967   -6.5017246  
C    1.7148788    1.9150610   -6.8961625  
O    1.6792439    2.5838248   -8.1023253  
C    2.7306131    1.0666299   -6.5076081  
H    4.4114155   -0.8847623   -4.8423428  
H   -0.3749638    1.7908775   -4.2080399  
H   -0.1088094    3.3236276   -7.3794036  
H    2.4689213    2.3534579   -8.6012684  
H    3.5737451    0.8868407   -7.1643292  
H    3.1467170   -1.3398320   -2.5051996  
C    1.0965515    0.0001358   -0.8010305  
C    0.0000000    0.0000000    0.0000000  
C   -1.1546564    0.0001470   -0.8669509  
C   -0.6372017    0.0003518   -2.2486278  
N    0.7342868    0.0007337   -2.1395011  
C   -1.4147742    0.0001351   -3.3608713  
C   -2.8576052   -0.0001048   -3.1854458  
O   -3.6427782   -0.0002494   -4.1244899  
C   -3.4275841   -0.0000725   -1.7311663  
O   -4.6406831    0.0000333   -1.5710053  
C   -2.4891868   -0.0001090   -0.6116741  
H   -1.0150454    0.0001614   -4.3654241  
H   -2.8919123   -0.0002920    0.3920869  
H    2.1388270    0.0000662   -0.5261648  
C    0.0000000    0.0000000    1.4700000  
C    1.0541688    0.0001722    2.3260392  
C    0.5103138    0.0000454    3.6635956  
C   -0.9576371   -0.0002459    3.5155732  
N   -1.2018458    0.0001392    2.1615969  
C   -1.8348311   -0.0008317    4.5510609  
C   -1.2972847   -0.0009736    5.9014604  
O   -2.0050672   -0.0014265    6.9001319  
C    0.2542623   -0.0004184    6.0817573  
O    0.7184670   -0.0002256    7.2139121  
C    1.0974552   -0.0000873    4.8889129  
H    2.0940752    0.0005483    2.0517982  
H   -2.9081052   -0.0011668    4.4207061  
H    2.1707277    0.0000911    5.0223670  
H   -2.1128194   -0.0014912    1.7406791  
