48
4A 5B 33A 34A 43B 11 12 46 44 45 1 7 2 3 4 2 0 3 0 nosym
C    2.8170674   -0.7299976   -3.3539683  
C    1.6478435   -0.0100098   -3.2702997  
C    1.5099598    0.7041928   -4.4972889  
C    2.6345493    0.3775761   -5.2976300  
N    3.4089709   -0.4938077   -4.5726616  
C    2.8289258    0.9022210   -6.5789398  
C    1.8704230    1.7721993   -7.0612132  
O    2.0105459    2.3133922   -8.3063999  
C    0.7415952    2.1105566   -6.2775814  
O   -0.1223396    2.9894084   -6.8977268  
C    0.5493288    1.5935720   -5.0133478  
H    4.2679756   -0.9069777   -4.8879119  
H    3.6839521    0.6573667   -7.1939026  
H    1.2432613    2.8840009   -8.4440388  
H   -0.8566635    3.1656155   -6.3016368  
H   -0.3251170    1.8712826   -4.4365471  
H    3.2763587   -1.3922068   -2.6401832  
C    1.1188643    0.0008224   -0.8003807  
C    0.0000000    0.0000000    0.0000000  
C   -1.1323862    0.0008899   -0.8673529  
C   -0.6382661    0.0019679   -2.1969281  
N    0.7324016    0.0038482   -2.1202240  
C   -1.4770912    0.0027317   -3.3154808  
C   -2.8395475    0.0020941   -3.0876858  
O   -3.7039199    0.0024422   -4.1440350  
C   -3.3517869    0.0013928   -1.7684331  
O   -4.7300495    0.0012361   -1.7073122  
C   -2.5248543    0.0009121   -0.6644817  
H   -1.1067569    0.0036986   -4.3313813  
H   -4.5940034    0.0021826   -3.7685132  
H   -4.9934601    0.0007256   -0.7819917  
H   -2.9462578    0.0005600    0.3339658  
H    2.1619896    0.0009355   -0.5342066  
C    2.5128556    2.1077716    2.9199648  
C    1.9592212    1.6432552    4.0696553  
C    0.8915788    0.7479214    3.6910360  
C    0.8684491    0.7287414    2.2159470  
N    1.8754542    1.5738793    1.8102719  
C    0.0000000    0.0000000    1.4700000  
C   -0.9772830   -0.8200135    2.1664417  
O   -1.8021297   -1.5120829    1.5842315  
C   -0.9711318   -0.8147624    3.7284083  
O   -1.7894187   -1.5009653    4.3257297  
C    0.0140216    0.0115358    4.4216297  
H    2.2638494    1.8988021    5.0689105  
H    0.0117648    0.0094386    5.5031631  
H    3.3327358    2.7953732    2.7900019  
H    2.1123206    1.7707734    0.8551938  
