46
0A 1A 10B 31A 35A 36B 16 11 15 44 45 43 2 3 4 2 1 7 3 0 3 0 nosym
C    4.6227521   -2.1147244   -2.7769231  
C    4.8866944   -1.6142460   -4.0308460  
C    3.8102481   -0.7401948   -4.3653565  
C    2.9119791   -0.7471319   -3.2676358  
N    3.4344775   -1.5933827   -2.3213414  
C    1.7334694    0.0049281   -3.2500363  
C    1.4568676    0.7783105   -4.3606886  
O    0.3197451    1.5324428   -4.3960512  
C    2.3405795    0.7981738   -5.4658933  
O    1.9249921    1.6173853   -6.4952243  
C    3.5032514    0.0562913   -5.4840551  
H    5.7484612   -1.8509711   -4.6311073  
H    3.0211641   -1.7910803   -1.4279946  
H    0.3204377    1.9877183   -5.2481010  
H    2.5771518    1.5734201   -7.2011696  
H    4.1606117    0.0915596   -6.3449333  
H    5.1873832   -2.8034334   -2.1720847  
C    1.1319246    0.0015678   -0.8009269  
C    0.7969914    0.0034958   -2.1169402  
C   -0.6453340    0.0035696   -2.1842669  
C   -1.1266833    0.0015410   -0.7896025  
N    0.0000000    0.0000000    0.0000000  
C   -2.4346130    0.0013912   -0.4276293  
C   -3.4350112    0.0031335   -1.4820181  
O   -4.6384613    0.0030876   -1.2583913  
C   -2.9478960    0.0050441   -2.9661073  
O   -3.7809383    0.0062138   -3.8623774  
C   -1.5113825    0.0053055   -3.2312121  
H   -2.7664565    0.0000174    0.6013448  
H   -1.1823532    0.0068381   -4.2614847  
H    2.1104315    0.0009436   -0.3488059  
C    2.4951002    2.0940188    2.9809380  
C    1.9440701    1.6314916    1.8291961  
C    0.8759964    0.7350050    2.2038498  
C    0.8497377    0.7130254    3.6788474  
N    1.8560616    1.5571714    4.0882609  
C   -0.0205033   -0.0168748    4.4215661  
C   -0.9962600   -0.8356168    3.7214979  
O   -1.8224391   -1.5286685    4.3006425  
C   -0.9864710   -0.8277881    2.1595606  
O   -1.8030528   -1.5133726    1.5592035  
C    0.0000000    0.0000000    1.4700000  
H    2.2509283    1.8888011    0.8310761  
H   -0.0229599   -0.0187323    5.5027230  
H    3.3143982    2.7817323    3.1139444  
H    2.0889452    1.7545833    5.0442112  
