50
33A 34A 43B 16A 20A 21B 49 44 48 32 28 29 2 3 4 2 1 7 3 0 3 0 nosym
C    3.3041272    0.0001176   -1.5420431  
C    2.5845372   -0.0004781   -0.3695853  
C    1.2040006   -0.0000009   -0.7283588  
C    1.1422374    0.0006035   -2.1454372  
N    2.4348639    0.0026108   -2.6077465  
C   -0.0655182    0.0008795   -2.8497919  
C   -1.2321769    0.0002322   -2.1101399  
O   -2.4392814    0.0001143   -2.7472520  
C   -1.1911210   -0.0000008   -0.6955264  
O   -2.4371527   -0.0002321   -0.1032861  
C    0.0000000    0.0000000    0.0000000  
H    3.0031535   -0.0000660    0.6222584  
H   -0.1193549    0.0014841   -3.9297469  
H   -3.1132989   -0.0000650   -2.0551785  
H   -2.3200281   -0.0004071    0.8516412  
H    4.3686623    0.0004070   -1.7024293  
C    5.6928651   -2.1325522   -4.8023230  
C    4.8437655   -1.6629840   -3.8271295  
C    3.9187211   -0.7861194   -4.4674429  
C    4.2553076   -0.7600056   -5.8451060  
N    5.3381033   -1.5868709   -6.0138197  
C    3.5511953    0.0032251   -6.7813180  
C    2.4877425    0.7535301   -6.3184051  
O    1.7657457    1.5166936   -7.1897920  
C    2.1367190    0.7408777   -4.9474784  
O    1.0544923    1.5406692   -4.6434018  
C    2.8310664   -0.0116222   -4.0232753  
H    4.8866013   -1.9198941   -2.7825455  
H    5.7930177   -1.7762042   -6.8885694  
H    3.8027866    0.0275507   -7.8326561  
H    1.0801164    1.9528829   -6.6673788  
H    0.8837167    1.4751236   -3.6988685  
H    6.5243671   -2.8124298   -4.7293098  
C    2.5285572    2.1210227    2.9438989  
C    1.9331703    1.6216660    4.0790748  
C    0.8903039    0.7472258    3.6520102  
C    0.8972198    0.7527806    2.2336141  
N    1.9028376    1.5986179    1.8362361  
C    0.0000000    0.0000000    1.4700000  
C   -0.9207814   -0.7726952    2.1506477  
O   -1.8198395   -1.5274828    1.4542253  
C   -0.9436862   -0.7911793    3.5655508  
O   -1.9197945   -1.6098497    4.0950179  
C   -0.0590329   -0.0485852    4.3195194  
H    2.2150357    1.8593692    5.0905303  
H    2.1533708    1.7953814    0.8841339  
H   -2.3621246   -1.9821033    2.1118817  
H   -1.8668290   -1.5649508    5.0545920  
H   -0.1007624   -0.0827977    5.4019087  
H    3.3491200    2.8096064    2.8367138  
