48
5B 10B 34A 43B 13 16 44 46 7 4 3 4 2 0 2 0 nosym
C    2.8310667   -0.0116222   -4.0232749  
C    4.0831549   -0.0141183   -4.5931314  
C    3.8969860   -0.0306989   -6.0072271  
C    2.4982829   -0.0374878   -6.2428327  
N    1.8804354   -0.0275301   -5.0169529  
C    1.9478994   -0.0533747   -7.5279844  
C    2.8254842   -0.0622689   -8.5947294  
O    2.3417506   -0.0774927   -9.8709670  
C    4.2242897   -0.0560813   -8.3799701  
O    4.9653516   -0.0668118   -9.5436094  
C    4.7679602   -0.0406828   -7.1124096  
H    5.0159476   -0.0062033   -4.0557038  
H    0.8876839   -0.0186983   -4.8674623  
H    0.8827811   -0.0587645   -7.7142538  
H    3.1115001   -0.0817931  -10.4546901  
H    5.8986059   -0.0616650   -9.3099137  
H    5.8434540   -0.0364562   -6.9790934  
C    3.3041272    0.0001176   -1.5420430  
C    2.5845372   -0.0004781   -0.3695853  
C    1.2040007   -0.0000009   -0.7283590  
C    1.1422375    0.0006035   -2.1454373  
N    2.4348640    0.0026108   -2.6077464  
C   -0.0655179    0.0008795   -2.8497920  
C   -1.2321766    0.0002322   -2.1101401  
O   -2.4392816    0.0001144   -2.7472523  
C   -1.1911210   -0.0000008   -0.6955265  
O   -2.4371530   -0.0002321   -0.1032862  
C    0.0000000    0.0000000    0.0000000  
H    3.0031534   -0.0000660    0.6222580  
H   -0.1193548    0.0014841   -3.9297472  
H   -3.1132988   -0.0000650   -2.0551788  
H   -2.3200280   -0.0004071    0.8516408  
H    4.3686626    0.0004070   -1.7024289  
C    0.8681109    0.7263879    2.2709268  
C    0.6127770    0.5096195    3.5869401  
C   -0.4920590   -0.4175482    3.6542670  
C   -0.8620974   -0.7254003    2.2596025  
N    0.0000000    0.0000000    1.4700000  
C   -1.8641242   -1.5660088    1.8976294  
C   -2.6293522   -2.2103885    2.9520183  
O   -3.5512764   -2.9839180    2.7283916  
C   -2.2549728   -1.8987399    4.4361073  
O   -2.8923672   -2.4351063    5.3323774  
C   -1.1543735   -0.9755647    4.7012123  
H    1.1382914    0.9492124    4.4159191  
H   -2.1192137   -1.7782617    0.8686553  
H   -0.9013378   -0.7652422    5.7314848  
H    1.6172880    1.3558399    1.8188057  
