48
4A 5B 17A 31A 32A 41B 11 12 30 47 42 46 1 7 2 2 3 4 2 1 3 0 nosym
C    0.5335748   -0.7189657   -5.2240532  
C   -0.2963293   -0.0005341   -4.3948471  
C   -1.1926767    0.7276183   -5.2320779  
C   -0.8591814    0.4107242   -6.5738248  
N    0.1943081   -0.4685464   -6.5330746  
C   -1.5394158    0.9501102   -7.6697871  
C   -2.5753772    1.8251075   -7.4064593  
O   -3.2733096    2.3806007   -8.4395771  
C   -2.9228603    2.1539308   -6.0745636  
O   -3.9763328    3.0394255   -5.9774094  
C   -2.2520522    1.6224013   -4.9928895  
H    0.6400937   -0.8776722   -7.3342440  
H   -1.2900300    0.7127220   -8.6948015  
H   -3.9422216    2.9523885   -8.0409792  
H   -4.1466496    3.2084442   -5.0457288  
H   -2.5407497    1.8930719   -3.9839944  
H    1.3415960   -1.3890956   -4.9853339  
C    3.1301146   -0.0010313   -1.7028256  
C    2.5367765   -0.0002766   -0.4864669  
C    1.1089901    0.0001027   -0.7656184  
C    1.0177865   -0.0004150   -2.2415133  
N    2.1993571   -0.0011612   -2.7963824  
C   -0.2459219   -0.0002879   -2.9257116  
C   -1.3675326   -0.0000606   -2.1698520  
O   -2.6129318    0.0000865   -2.6748483  
C   -1.3083588    0.0000910   -0.6783229  
O   -2.3693264    0.0004206   -0.0541685  
C    0.0000000    0.0000000    0.0000000  
H    3.0096016   -0.0001007    0.4807518  
H   -3.1967444    0.0002093   -1.8949026  
H    4.1849275   -0.0015114   -1.9271979  
C    2.5285572    2.1210227    2.9438989  
C    1.9331703    1.6216660    4.0790748  
C    0.8903039    0.7472258    3.6520102  
C    0.8972198    0.7527806    2.2336141  
N    1.9028376    1.5986179    1.8362361  
C    0.0000000    0.0000000    1.4700000  
C   -0.9207814   -0.7726952    2.1506477  
O   -1.8198395   -1.5274828    1.4542253  
C   -0.9436862   -0.7911793    3.5655508  
O   -1.9197945   -1.6098497    4.0950179  
C   -0.0590329   -0.0485852    4.3195194  
H    2.2150357    1.8593692    5.0905303  
H    2.1533708    1.7953814    0.8841339  
H   -2.3621246   -1.9821033    2.1118817  
H   -1.8668290   -1.5649508    5.0545920  
H   -0.1007624   -0.0827977    5.4019087  
H    3.3491200    2.8096064    2.8367138  
