46
1A 10B 22B 36B 11 15 29 42 3 4 7 7 2 1 1 0 nosym
C    5.5764311    0.0162908   -1.0737992  
C    6.7919964    0.0263689   -1.7178238  
C    6.5213120    0.0157773   -3.1182585  
C    5.1110655   -0.0004852   -3.2694781  
N    4.5679461   -0.0016854   -2.0086701  
C    4.4845781   -0.0138477   -4.5193277  
C    5.2965139   -0.0104297   -5.6368815  
O    4.7370850   -0.0226657   -6.8818326  
C    6.7056144    0.0053414   -5.5064817  
O    7.3754674    0.0063858   -6.7125655  
C    7.3243471    0.0182564   -4.2737899  
H    7.7553163    0.0386079   -1.2373466  
H    3.4102595   -0.0264158   -4.6413247  
H    5.4703756   -0.0180122   -7.5107427  
H    8.3210166    0.0174526   -6.5353098  
H    8.4058489    0.0300184   -4.2052792  
H    5.3490260    0.0190574   -0.0215455  
C    3.1301149   -0.0010311   -1.7028252  
C    2.5367768   -0.0002767   -0.4864665  
C    1.1089904    0.0001028   -0.7656183  
C    1.0177872   -0.0004148   -2.2415132  
N    2.1993578   -0.0011611   -2.7963820  
C   -0.2459209   -0.0002877   -2.9257118  
C   -1.3675319   -0.0000605   -2.1698524  
O   -2.6129313    0.0000867   -2.6748490  
C   -1.3083584    0.0000910   -0.6783232  
O   -2.3693261    0.0004206   -0.0541692  
C    0.0000000    0.0000000    0.0000000  
H    3.0096017   -0.0001007    0.4807525  
H   -0.2829630   -0.0004687   -4.0053125  
H   -3.1967441    0.0002094   -1.8949034  
C    0.8175213    0.6860729    2.3021913  
C    0.0000000    0.0000000    1.4700000  
C   -0.8887526   -0.7456559    2.3478473  
C   -0.4549825   -0.3816753    3.7138435  
N    0.5448156    0.4573574    3.6934124  
C   -1.0945674   -0.9182058    4.8835240  
C   -2.1210866   -1.7789155    4.6970523  
O   -2.8083856   -2.3554314    5.6976972  
C   -2.5824069   -2.1655116    3.3310774  
O   -3.5227682   -2.9541547    3.2362962  
C   -1.9100805   -1.6015804    2.1470656  
H   -0.7567140   -0.6349833    5.8697035  
H   -3.4728268   -2.9124471    5.2533954  
H   -2.2742832   -1.9066565    1.1752040  
H    1.6189533    1.3585343    2.0405121  
