48
4A 5B 31A 35A 36B 11 12 47 43 44 1 7 2 1 7 2 0 3 0 nosym
C    4.1944218   -0.7165773   -4.3917018  
C    3.1006056    0.0006265   -3.9654949  
C    2.6147708    0.7278982   -5.0922782  
C    3.4591430    0.4117567   -6.1872741  
N    4.4087712   -0.4662363   -5.7268918  
C    3.2753264    0.9505928   -7.4642458  
C    2.2197112    1.8242559   -7.6390812  
O    1.9944416    2.3791613   -8.8655998  
C    1.3664667    2.1523121   -6.5587255  
O    0.3614966    3.0364934   -6.8927932  
C    1.5473748    1.6213245   -5.2986260  
H    5.1391358   -0.8746112   -6.2816702  
H    3.9154385    0.7137730   -8.3029196  
H    1.2210913    2.9500286   -8.7691408  
H   -0.1686503    3.2050644   -6.1078525  
H    0.8776854    1.8913829   -4.4905030  
H    4.8395078   -1.3857804   -3.8485720  
C    3.2798083    0.0005856   -1.4499650  
C    2.5571143    0.0005567   -2.5996555  
C    1.1637433    0.0001550   -2.2210361  
C    1.1336964   -0.0000198   -0.7459472  
N    2.4483513   -0.0001427   -0.3402721  
C    0.0000000    0.0000000    0.0000000  
C   -1.2757369   -0.0000185   -0.6964416  
O   -2.3524597   -0.0000637   -0.1142312  
C   -1.2676495   -0.0000871   -2.2584083  
O   -2.3355763   -0.0004098   -2.8557295  
C    0.0181559    0.0001761   -2.9516296  
H    0.0150790    0.0003322   -4.0331631  
H    4.3498547    0.0008612   -1.3200024  
H    2.7563627    0.0012823    0.6148060  
C    2.5311839    2.1237619    3.0120429  
C    1.9795631    1.6616747    1.8395852  
C    0.9223175    0.7739173    2.1983588  
C    0.8753926    0.7337535    3.6154372  
N    1.8668922    1.5631002    4.0777464  
C   -0.0496243   -0.0427881    4.3197917  
C   -0.9437528   -0.7922060    3.5801400  
O   -1.8685244   -1.5680278    4.2172520  
C   -0.9124520   -0.7656372    2.1655264  
O   -1.8671164   -1.5663939    1.5732860  
C    0.0000000    0.0000000    1.4700000  
H    2.3005065    1.9304404    0.8477417  
H    2.0679347    1.7444845    5.0445261  
H   -0.0904770   -0.0778569    5.3997470  
H   -2.3849669   -2.0011402    3.5251786  
H   -1.7775064   -1.4909735    0.6183591  
H    3.3468514    2.8078103    3.1724291  
