48
5B 10B 33A 34A 43B 13 16 47 44 46 7 4 2 3 4 2 0 3 0 nosym
C    3.0267434   -0.0008950   -3.9901702  
C    4.3188041   -0.0020511   -4.4624471  
C    4.2414924   -0.0035852   -5.8867432  
C    2.8649418   -0.0029994   -6.2288459  
N    2.1550073   -0.0033119   -5.0538522  
C    2.4146096   -0.0038551   -7.5524732  
C    3.3713255   -0.0050221   -8.5489019  
O    2.9867657   -0.0055428   -9.8585300  
C    4.7495745   -0.0059976   -8.2275834  
O    5.5775892   -0.0075295   -9.3310932  
C    5.1945598   -0.0054274   -6.9220130  
H    5.2076921   -0.0029225   -3.8551000  
H    1.1537480    0.0075322   -4.9807542  
H    1.3668845   -0.0035593   -7.8198207  
H    3.7989651   -0.0066454  -10.3815944  
H    6.4902030   -0.0080814   -9.0265619  
H    6.2566841   -0.0063847   -6.7066778  
C    3.3003545    0.0005277   -1.4738988  
C    2.5232814    0.0003498   -2.6090748  
C    1.1623201   -0.0001318   -2.1820103  
C    1.1711883    0.0000584   -0.7636142  
N    2.4852301   -0.0014919   -0.3662361  
C    0.0000000    0.0000000    0.0000000  
C   -1.2020384    0.0000521   -0.6806478  
O   -2.3759251    0.0003494    0.0157745  
C   -1.2314656   -0.0005111   -2.0955511  
O   -2.5054392   -0.0008036   -2.6250183  
C   -0.0764516   -0.0007271   -2.8495195  
H    2.8036268    0.0088182    0.5858661  
H   -3.0835639    0.0000348   -0.6418820  
H   -2.4360046   -0.0011526   -3.5845923  
H   -0.1304094   -0.0013419   -3.9319089  
H    4.3715552    0.0004895   -1.3667136  
C    2.5528530    2.1414826    2.8079335  
C    2.0663498    1.7338582    4.0032312  
C    0.9804344    0.8229586    3.6752840  
C    0.9495562    0.7966882    2.1971295  
N    1.8690446    1.5676019    1.6831036  
C    0.0000000    0.0000000    1.4700000  
C   -0.8785127   -0.7372425    2.1869543  
O   -1.8187535   -1.5261249    1.6395491  
C   -0.8723269   -0.7321790    3.6796354  
O   -1.7010379   -1.4274584    4.2670412  
C    0.1115397    0.0933559    4.4024240  
H    2.4028853    2.0163452    4.9860947  
H   -2.2861435   -1.9184361    2.3990168  
H    0.0832434    0.0693689    5.4835595  
H    3.3664920    2.8238276    2.6198634  
