46
0A 4A 5B 36B 16 12 13 42 2 1 7 7 3 0 1 0 nosym
C    2.0511541   -2.1229631   -5.2235189  
C    1.1050321   -1.6610332   -4.3381145  
C    0.2551466   -0.7735135   -5.0624098  
C    0.7354627   -0.7333262   -6.3964292  
N    1.8278202   -1.5624306   -6.4593485  
C    0.1362303    0.0430169   -7.3929232  
C   -0.9681770    0.7922083   -7.0363081  
O   -1.5920421    1.5678298   -7.9702338  
C   -1.4621018    0.7656123   -5.7103567  
O   -2.5682658    1.5661318   -5.5130919  
C   -0.8712826    0.0001710   -4.7267111  
H    1.0365885   -1.9297480   -3.2978739  
H    2.3720975   -1.7437442   -7.2832828  
H    0.4975476    0.0781024   -8.4114617  
H   -2.3278633    2.0008052   -7.5181668  
H   -2.8380458    1.4907091   -4.5926934  
H    2.8684779   -2.8068172   -5.0709272  
C    1.0965514    0.0001359   -0.8010305  
C    0.0000000    0.0000000    0.0000000  
C   -1.1546563    0.0001470   -0.8669513  
C   -0.6372014    0.0003519   -2.2486282  
N    0.7342871    0.0007337   -2.1395014  
C   -1.4147739    0.0001352   -3.3608717  
C   -2.8576049   -0.0001048   -3.1854462  
O   -3.6427779   -0.0002494   -4.1244907  
C   -3.4275840   -0.0000725   -1.7311666  
O   -4.6406831    0.0000333   -1.5710060  
C   -2.4891867   -0.0001091   -0.6116744  
H   -2.8919122   -0.0002918    0.3920866  
H    2.1388272    0.0000663   -0.5261648  
H    1.3735872   -0.0006099   -2.9130262  
C    0.8175213    0.6860729    2.3021913  
C    0.0000000    0.0000000    1.4700000  
C   -0.8887526   -0.7456559    2.3478473  
C   -0.4549825   -0.3816753    3.7138435  
N    0.5448156    0.4573574    3.6934124  
C   -1.0945674   -0.9182058    4.8835240  
C   -2.1210866   -1.7789155    4.6970523  
O   -2.8083856   -2.3554314    5.6976972  
C   -2.5824069   -2.1655116    3.3310774  
O   -3.5227682   -2.9541547    3.2362962  
C   -1.9100805   -1.6015804    2.1470656  
H   -0.7567140   -0.6349833    5.8697035  
H   -3.4728268   -2.9124471    5.2533954  
H   -2.2742832   -1.9066565    1.1752040  
H    1.6189533    1.3585343    2.0405121  
