46
5B 10B 32A 41B 13 16 42 44 7 4 3 4 2 0 2 0 nosym
C    1.6707636   -0.0012341   -3.2725974  
C    3.0463717   -0.0034573   -3.2854247  
C    3.4499895   -0.0053007   -4.6535216  
C    2.2671965   -0.0037951   -5.4364166  
N    1.2050902   -0.0032861   -4.5666193  
C    2.2856090   -0.0046612   -6.8344328  
C    3.5205408   -0.0067845   -7.4533969  
O    3.5962533   -0.0073600   -8.8162173  
C    4.7118869   -0.0086863   -6.6895200  
O    5.8613542   -0.0111078   -7.4524493  
C    4.6944760   -0.0081065   -5.3103091  
H    3.6808661   -0.0048235   -2.4157075  
H    0.2370749    0.0083097   -4.8326886  
H    1.3876878   -0.0036671   -7.4368771  
H    4.5366385   -0.0091915   -9.0374360  
H    6.6195103   -0.0122495   -6.8601641  
H    5.6233663   -0.0097861   -4.7520631  
C    1.0965514    0.0001359   -0.8010306  
C    0.0000000    0.0000000    0.0000000  
C   -1.1546565    0.0001470   -0.8669508  
C   -0.6372019    0.0003521   -2.2486278  
N    0.7342867    0.0007339   -2.1395012  
C   -1.4147744    0.0001355   -3.3608713  
C   -2.8576053   -0.0001045   -3.1854455  
O   -3.6427786   -0.0002490   -4.1244897  
C   -3.4275841   -0.0000724   -1.7311660  
O   -4.6406832    0.0000334   -1.5710050  
C   -2.4891868   -0.0001090   -0.6116739  
H   -1.0150456    0.0001619   -4.3654240  
H   -2.8919122   -0.0002919    0.3920871  
H    2.1388269    0.0000663   -0.5261650  
C    0.8681109    0.7263879    2.2709268  
C    0.6127770    0.5096195    3.5869401  
C   -0.4920590   -0.4175482    3.6542670  
C   -0.8620974   -0.7254003    2.2596025  
N    0.0000000    0.0000000    1.4700000  
C   -1.8641242   -1.5660088    1.8976294  
C   -2.6293522   -2.2103885    2.9520183  
O   -3.5512764   -2.9839180    2.7283916  
C   -2.2549728   -1.8987399    4.4361073  
O   -2.8923672   -2.4351063    5.3323774  
C   -1.1543735   -0.9755647    4.7012123  
H    1.1382914    0.9492124    4.4159191  
H   -2.1192137   -1.7782617    0.8686553  
H   -0.9013378   -0.7652422    5.7314848  
H    1.6172880    1.3558399    1.8188057  
