48
5B 10B 17A 34A 43B 13 16 32 44 46 7 4 2 3 4 2 1 2 0 nosym
C   -0.1387078    0.0017019   -4.3179684  
C    0.8680293    0.0011953   -5.2554904  
C    0.2429721    0.0018231   -6.5376379  
C   -1.1582728    0.0029977   -6.3175531  
N   -1.3554490    0.0009412   -4.9589749  
C   -2.0878504    0.0041704   -7.3619062  
C   -1.5938807    0.0044642   -8.6519335  
O   -2.4574181    0.0059475   -9.7089639  
C   -0.1991530    0.0029313   -8.8918278  
O    0.1346059    0.0030290  -10.2304649  
C    0.7184769    0.0015007   -7.8620318  
H    1.9231275   -0.0006419   -5.0415804  
H   -2.2494821    0.0117257   -4.5022806  
H   -3.1570794    0.0049249   -7.2008116  
H   -1.9125271    0.0055958  -10.5066850  
H    1.0938150    0.0019691  -10.3047650  
H    1.7807470    0.0001627   -8.0766453  
C    3.3041272    0.0001178   -1.5420428  
C    2.5845372   -0.0004779   -0.3695851  
C    1.2040007   -0.0000007   -0.7283589  
C    1.1422375    0.0006038   -2.1454371  
N    2.4348641    0.0026111   -2.6077464  
C   -0.0655179    0.0008799   -2.8497918  
C   -1.2321766    0.0002325   -2.1101402  
O   -2.4392816    0.0001148   -2.7472523  
C   -1.1911209   -0.0000007   -0.6955266  
O   -2.4371527   -0.0002320   -0.1032863  
C    0.0000000    0.0000000    0.0000000  
H    3.0031533   -0.0000660    0.6222584  
H    2.7054632   -0.0071097   -3.5745261  
H   -3.1132986   -0.0000648   -2.0551788  
H   -2.3200284   -0.0004071    0.8516409  
H    4.3686626    0.0004072   -1.7024289  
C    0.8681109    0.7263879    2.2709268  
C    0.6127770    0.5096195    3.5869401  
C   -0.4920590   -0.4175482    3.6542670  
C   -0.8620974   -0.7254003    2.2596025  
N    0.0000000    0.0000000    1.4700000  
C   -1.8641242   -1.5660088    1.8976294  
C   -2.6293522   -2.2103885    2.9520183  
O   -3.5512764   -2.9839180    2.7283916  
C   -2.2549728   -1.8987399    4.4361073  
O   -2.8923672   -2.4351063    5.3323774  
C   -1.1543735   -0.9755647    4.7012123  
H    1.1382914    0.9492124    4.4159191  
H   -2.1192137   -1.7782617    0.8686553  
H   -0.9013378   -0.7652422    5.7314848  
H    1.6172880    1.3558399    1.8188057  
