46
0A 4A 5B 36B 41B 16 12 13 43 45 2 1 7 7 4 3 0 2 0 nosym
C    2.0511541   -2.1229631   -5.2235189  
C    1.1050321   -1.6610332   -4.3381145  
C    0.2551466   -0.7735135   -5.0624098  
C    0.7354627   -0.7333262   -6.3964292  
N    1.8278202   -1.5624306   -6.4593485  
C    0.1362303    0.0430169   -7.3929232  
C   -0.9681770    0.7922083   -7.0363081  
O   -1.5920421    1.5678298   -7.9702338  
C   -1.4621018    0.7656123   -5.7103567  
O   -2.5682658    1.5661318   -5.5130919  
C   -0.8712826    0.0001710   -4.7267111  
H    1.0365885   -1.9297480   -3.2978739  
H    2.3720975   -1.7437442   -7.2832828  
H    0.4975476    0.0781024   -8.4114617  
H   -2.3278633    2.0008052   -7.5181668  
H   -2.8380458    1.4907091   -4.5926934  
H    2.8684779   -2.8068172   -5.0709272  
C    1.0965514    0.0001359   -0.8010305  
C    0.0000000    0.0000000    0.0000000  
C   -1.1546563    0.0001470   -0.8669513  
C   -0.6372014    0.0003519   -2.2486282  
N    0.7342871    0.0007337   -2.1395014  
C   -1.4147739    0.0001352   -3.3608717  
C   -2.8576049   -0.0001048   -3.1854462  
O   -3.6427779   -0.0002494   -4.1244907  
C   -3.4275840   -0.0000725   -1.7311666  
O   -4.6406831    0.0000333   -1.5710060  
C   -2.4891867   -0.0001091   -0.6116744  
H   -2.8919122   -0.0002918    0.3920866  
H    2.1388272    0.0000663   -0.5261648  
H    1.3735872   -0.0006099   -2.9130262  
C    0.0000000    0.0000000    1.4700000  
C    1.0662921    0.0000102    2.3034270  
C    0.4961870   -0.0000064    3.6418889  
C   -0.9663858    0.0000850    3.4240247  
N   -1.2632773    0.0000084    2.1528658  
C   -1.8985362    0.0000517    4.5177257  
C   -1.3925775   -0.0004564    5.7720543  
O   -2.1456383   -0.0005410    6.8851312  
C    0.0786232   -0.0009323    6.0245000  
O    0.4683759   -0.0012588    7.1921102  
C    1.0143166   -0.0008442    4.8859032  
H    2.1107198   -0.0000632    2.0421868  
H   -2.9622183    0.0003270    4.3293377  
H   -1.5042274   -0.0009692    7.6184419  
H    2.0724152   -0.0013148    5.1109744  
