46
5B 10B 27B 36B 41B 13 16 30 43 44 7 4 4 7 4 2 1 2 0 nosym
C   -3.3460096   -0.0004265   -2.7913646  
C   -4.0351702    0.0002975   -1.6007663  
C   -5.4244873    0.0000966   -1.9238723  
C   -5.5227199   -0.0010536   -3.3388900  
N   -4.2424270    0.0006061   -3.8343331  
C   -6.7482123   -0.0018514   -4.0119107  
C   -7.8954377   -0.0017883   -3.2424625  
O   -9.1185480   -0.0028970   -3.8482791  
C   -7.8179689   -0.0002734   -1.8293760  
O   -9.0483375    0.0000108   -1.2052466  
C   -6.6093336    0.0007875   -1.1647523  
H   -3.5911529    0.0020019   -0.6200324  
H   -3.9968103   -0.0102582   -4.8077478  
H   -6.8298400   -0.0025852   -5.0901217  
H   -9.7745212   -0.0023403   -3.1390794  
H   -8.9066633    0.0010310   -0.2536526  
H   -6.5814276    0.0021213   -0.0813789  
C    0.0000000    0.0000000    0.0000000  
C    1.0662919   -0.0000103   -0.8334269  
C    0.4961869    0.0000064   -2.1718889  
C   -0.9663859   -0.0000850   -1.9540246  
N   -1.2632774   -0.0000084   -0.6828657  
C   -1.8985363   -0.0000518   -3.0477257  
C   -1.3925778    0.0004564   -4.3020545  
O   -2.1456384    0.0005409   -5.4151311  
C    0.0786230    0.0009323   -4.5544998  
O    0.4683758    0.0012588   -5.7221098  
C    1.0143164    0.0008442   -3.4159030  
H    2.1107195    0.0000633   -0.5721867  
H   -1.5042275    0.0009691   -6.1484418  
H    2.0724152    0.0013148   -3.6409744  
C    0.0000000    0.0000000    1.4700000  
C    1.0541688    0.0001722    2.3260392  
C    0.5103138    0.0000454    3.6635956  
C   -0.9576371   -0.0002459    3.5155732  
N   -1.2018458    0.0001392    2.1615969  
C   -1.8348311   -0.0008317    4.5510609  
C   -1.2972847   -0.0009736    5.9014604  
O   -2.0050672   -0.0014265    6.9001319  
C    0.2542623   -0.0004184    6.0817573  
O    0.7184670   -0.0002256    7.2139121  
C    1.0974552   -0.0000873    4.8889129  
H    2.0940752    0.0005483    2.0517982  
H   -2.9081052   -0.0011668    4.4207061  
H    2.1707277    0.0000911    5.0223670  
H   -2.1128194   -0.0014912    1.7406791  
