46
0A 1A 10B 36B 41B 16 11 15 43 44 2 3 4 7 4 3 0 2 0 nosym
C    2.0818089   -2.1200045   -5.0693005  
C    2.0013920   -1.6205813   -6.3485881  
C    0.8747652   -0.7464877   -6.3842574  
C    0.3022092   -0.7523127   -5.0865396  
N    1.0583531   -1.5979709   -4.3134120  
C   -0.8287665    0.0000939   -4.7555305  
C   -1.3918308    0.7726859   -5.7526456  
O   -2.4970632    1.5271116   -5.4837277  
C   -0.8353009    0.7914352   -7.0536991  
O   -1.5105883    1.6099590   -7.9353727  
C    0.2802629    0.0492102   -7.3810304  
H    2.6715813   -1.8580192   -7.1569586  
H    0.8985641   -1.7948531   -3.3419769  
H   -2.7238717    1.9817207   -6.3054050  
H   -1.0706022    1.5652575   -8.7897836  
H    0.6838974    0.0836196   -8.3862034  
H    2.7873936   -2.8083999   -4.6366116  
C    1.0672569   -0.0000698   -0.8321910  
C    0.0000000    0.0000000    0.0000000  
C   -1.1601223   -0.0000736   -0.8778472  
C   -0.5938729   -0.0000768   -2.2438435  
N    0.7113367   -0.0001553   -2.2234123  
C   -1.4286985   -0.0001877   -3.4135239  
C   -2.7683113   -0.0006798   -3.2270524  
O   -3.6653902   -0.0008302   -4.2276970  
C   -3.3702024   -0.0010610   -1.8610774  
O   -4.5974910   -0.0013779   -1.7662963  
C   -2.4926825   -0.0008943   -0.6770658  
H   -4.5324245   -0.0012258   -3.7833954  
H   -2.9677772   -0.0012974    0.2947961  
H    2.1134391   -0.0000547   -0.5705119  
C    0.0000000    0.0000000    1.4700000  
C    1.0541688    0.0001722    2.3260392  
C    0.5103138    0.0000454    3.6635956  
C   -0.9576371   -0.0002459    3.5155732  
N   -1.2018458    0.0001392    2.1615969  
C   -1.8348311   -0.0008317    4.5510609  
C   -1.2972847   -0.0009736    5.9014604  
O   -2.0050672   -0.0014265    6.9001319  
C    0.2542623   -0.0004184    6.0817573  
O    0.7184670   -0.0002256    7.2139121  
C    1.0974552   -0.0000873    4.8889129  
H    2.0940752    0.0005483    2.0517982  
H   -2.9081052   -0.0011668    4.4207061  
H    2.1707277    0.0000911    5.0223670  
H   -2.1128194   -0.0014912    1.7406791  
