46
0A 1A 10B 22B 32A 41B 16 11 15 29 42 44 2 3 4 7 3 4 3 1 2 0 nosym
C    6.6962559   -0.0006583    0.9128046  
C    7.6449136   -0.0016134   -0.0834457  
C    6.9440359   -0.0023814   -1.3257701  
C    5.5585247   -0.0015569   -1.0219874  
N    5.4432391   -0.0024703    0.3459768  
C    4.5679461   -0.0016854   -2.0086701  
C    4.9836054   -0.0023571   -3.3260176  
O    4.0581868   -0.0021607   -4.3293194  
C    6.3614227   -0.0035604   -3.6491825  
O    6.6142424   -0.0045344   -5.0054362  
C    7.3392016   -0.0037075   -2.6763132  
H    8.7109485   -0.0028461    0.0667591  
H    4.5782209    0.0083750    0.8554935  
H    4.5542211   -0.0030158   -5.1583030  
H    7.5672639   -0.0052862   -5.1371682  
H    8.3866773   -0.0048230   -2.9542897  
H    6.8142877   -0.0002736    1.9828636  
C    3.1301149   -0.0010311   -1.7028252  
C    2.5367768   -0.0002767   -0.4864665  
C    1.1089904    0.0001028   -0.7656183  
C    1.0177872   -0.0004148   -2.2415132  
N    2.1993578   -0.0011611   -2.7963820  
C   -0.2459209   -0.0002877   -2.9257118  
C   -1.3675319   -0.0000605   -2.1698524  
O   -2.6129313    0.0000867   -2.6748490  
C   -1.3083584    0.0000910   -0.6783232  
O   -2.3693261    0.0004206   -0.0541692  
C    0.0000000    0.0000000    0.0000000  
H    3.0096017   -0.0001007    0.4807525  
H   -0.2829630   -0.0004687   -4.0053125  
H   -3.1967441    0.0002094   -1.8949034  
C    0.8681109    0.7263879    2.2709268  
C    0.6127770    0.5096195    3.5869401  
C   -0.4920590   -0.4175482    3.6542670  
C   -0.8620974   -0.7254003    2.2596025  
N    0.0000000    0.0000000    1.4700000  
C   -1.8641242   -1.5660088    1.8976294  
C   -2.6293522   -2.2103885    2.9520183  
O   -3.5512764   -2.9839180    2.7283916  
C   -2.2549728   -1.8987399    4.4361073  
O   -2.8923672   -2.4351063    5.3323774  
C   -1.1543735   -0.9755647    4.7012123  
H    1.1382914    0.9492124    4.4159191  
H   -2.1192137   -1.7782617    0.8686553  
H   -0.9013378   -0.7652422    5.7314848  
H    1.6172880    1.3558399    1.8188057  
