46
0A 4A 5B 27B 31A 35A 36B 16 12 13 29 44 45 43 2 1 7 4 2 1 7 3 1 3 0 nosym
C   -4.5189774    2.1246700   -0.2045471  
C   -3.4217428    1.6624063   -0.8936444  
C   -3.9056799    0.7751184   -1.9001856  
C   -5.3180923    0.7354099   -1.7759240  
N   -5.6571954    1.5645640   -0.7356691  
C   -6.1291075   -0.0405999   -2.6095012  
C   -5.5029174   -0.7899440   -3.5865103  
O   -6.2471513   -1.5652548   -4.4279512  
C   -4.0948406   -0.7638247   -3.7259891  
O   -3.6223031   -1.5644412   -4.7453341  
C   -3.2941076    0.0012878   -2.9038237  
H   -2.3983454    1.9307556   -0.6945480  
H   -6.5926191    1.7461797   -0.4194752  
H   -7.2061220   -0.0753201   -2.5198571  
H   -5.6225448   -1.9984070   -5.0241987  
H   -2.6635120   -1.4893476   -4.7714905  
H   -4.5796110    2.8084916    0.6247120  
C    0.0000000    0.0000000    0.0000000  
C    1.0541688   -0.0001723   -0.8560392  
C    0.5103136   -0.0000455   -2.1935956  
C   -0.9576373    0.0002461   -2.0455730  
N   -1.2018460   -0.0001389   -0.6915968  
C   -1.8348314    0.0008319   -3.0810607  
C   -1.2972851    0.0009739   -4.4314603  
O   -2.0050676    0.0014268   -5.4301316  
C    0.2542619    0.0004184   -4.6117572  
O    0.7184666    0.0002257   -5.7439122  
C    1.0974551    0.0000873   -3.4189129  
H    2.0940752   -0.0005484   -0.5817983  
H    2.1707276   -0.0000912   -3.5523673  
H   -2.1128194    0.0014915   -0.2706789  
C    3.2573670    0.0002920    2.9809380  
C    2.5379467    0.0001709    1.8291961  
C    1.1435042   -0.0000331    2.2038498  
C    1.1092607    0.0000083    3.6788474  
N    2.4227561   -0.0001909    4.0882609  
C   -0.0265533    0.0002524    4.4215661  
C   -1.3003036    0.0002640    3.7214979  
O   -2.3786784    0.0004133    4.3006425  
C   -1.2877726   -0.0000311    2.1595606  
O   -2.3539958   -0.0003306    1.5592035  
C    0.0000000    0.0000000    1.4700000  
H    2.9384090    0.0000368    0.8310761  
H   -0.0296291    0.0004086    5.5027230  
H    4.3270393    0.0004765    3.1139444  
H    2.7280493    0.0013407    5.0442112  
