46
1A 10B 22B 31A 32A 41B 11 15 29 45 42 44 3 4 7 2 3 4 2 1 3 0 nosym
C    5.5764311    0.0162908   -1.0737992  
C    6.7919964    0.0263689   -1.7178238  
C    6.5213120    0.0157773   -3.1182585  
C    5.1110655   -0.0004852   -3.2694781  
N    4.5679461   -0.0016854   -2.0086701  
C    4.4845781   -0.0138477   -4.5193277  
C    5.2965139   -0.0104297   -5.6368815  
O    4.7370850   -0.0226657   -6.8818326  
C    6.7056144    0.0053414   -5.5064817  
O    7.3754674    0.0063858   -6.7125655  
C    7.3243471    0.0182564   -4.2737899  
H    7.7553163    0.0386079   -1.2373466  
H    3.4102595   -0.0264158   -4.6413247  
H    5.4703756   -0.0180122   -7.5107427  
H    8.3210166    0.0174526   -6.5353098  
H    8.4058489    0.0300184   -4.2052792  
H    5.3490260    0.0190574   -0.0215455  
C    3.1301149   -0.0010311   -1.7028252  
C    2.5367768   -0.0002767   -0.4864665  
C    1.1089904    0.0001028   -0.7656183  
C    1.0177872   -0.0004148   -2.2415132  
N    2.1993578   -0.0011611   -2.7963820  
C   -0.2459209   -0.0002877   -2.9257118  
C   -1.3675319   -0.0000605   -2.1698524  
O   -2.6129313    0.0000867   -2.6748490  
C   -1.3083584    0.0000910   -0.6783232  
O   -2.3693261    0.0004206   -0.0541692  
C    0.0000000    0.0000000    0.0000000  
H    3.0096017   -0.0001007    0.4807525  
H   -0.2829630   -0.0004687   -4.0053125  
H   -3.1967441    0.0002094   -1.8949034  
C    2.5528530    2.1414826    2.8079335  
C    2.0663498    1.7338582    4.0032312  
C    0.9804344    0.8229586    3.6752840  
C    0.9495562    0.7966882    2.1971295  
N    1.8690446    1.5676019    1.6831036  
C    0.0000000    0.0000000    1.4700000  
C   -0.8785127   -0.7372425    2.1869543  
O   -1.8187535   -1.5261249    1.6395491  
C   -0.8723269   -0.7321790    3.6796354  
O   -1.7010379   -1.4274584    4.2670412  
C    0.1115397    0.0933559    4.4024240  
H    2.4028853    2.0163452    4.9860947  
H   -2.2861435   -1.9184361    2.3990168  
H    0.0832434    0.0693689    5.4835595  
H    3.3664920    2.8238276    2.6198634  
