48
0A 1A 10B 31A 32A 41B 16 11 15 47 42 46 2 3 4 2 3 4 3 0 3 0 nosym
C    5.9970950   -2.1175912   -4.3993399  
C    5.8630848   -1.6188244   -5.6743850  
C    4.7353250   -0.7455326   -5.6634628  
C    4.2173445   -0.7511475   -4.3430118  
N    5.0056514   -1.5959158   -3.6016915  
C    3.1006056    0.0006265   -3.9654949  
C    2.4959296    0.7723580   -4.9386215  
O    1.4023229    1.5261398   -4.6242154  
C    2.9977496    0.7908845   -6.2617430  
O    2.2857253    1.6085239   -7.1148725  
C    4.0992359    0.0492832   -6.6349477  
H    6.4991783   -1.8561748   -6.5098749  
H    4.8866203   -1.7924534   -2.6243554  
H    1.1411483    1.9802050   -5.4359280  
H    2.6897592    1.5637280   -7.9868552  
H    4.4606111    0.0835020   -7.6560816  
H    6.7205888   -2.8052918   -3.9961249  
C    3.2798083    0.0005856   -1.4499650  
C    2.5571143    0.0005567   -2.5996555  
C    1.1637433    0.0001550   -2.2210361  
C    1.1336964   -0.0000198   -0.7459472  
N    2.4483513   -0.0001427   -0.3402721  
C    0.0000000    0.0000000    0.0000000  
C   -1.2757369   -0.0000185   -0.6964416  
O   -2.3524597   -0.0000637   -0.1142312  
C   -1.2676495   -0.0000871   -2.2584083  
O   -2.3355763   -0.0004098   -2.8557295  
C    0.0181559    0.0001761   -2.9516296  
H    0.0150790    0.0003322   -4.0331631  
H    4.3498547    0.0008612   -1.3200024  
H    2.7563627    0.0012823    0.6148060  
C    2.5285572    2.1210227    2.9438989  
C    1.9331703    1.6216660    4.0790748  
C    0.8903039    0.7472258    3.6520102  
C    0.8972198    0.7527806    2.2336141  
N    1.9028376    1.5986179    1.8362361  
C    0.0000000    0.0000000    1.4700000  
C   -0.9207814   -0.7726952    2.1506477  
O   -1.8198395   -1.5274828    1.4542253  
C   -0.9436862   -0.7911793    3.5655508  
O   -1.9197945   -1.6098497    4.0950179  
C   -0.0590329   -0.0485852    4.3195194  
H    2.2150357    1.8593692    5.0905303  
H    2.1533708    1.7953814    0.8841339  
H   -2.3621246   -1.9821033    2.1118817  
H   -1.8668290   -1.5649508    5.0545920  
H   -0.1007624   -0.0827977    5.4019087  
H    3.3491200    2.8096064    2.8367138  
