46
4A 5B 31A 35A 36B 11 12 44 45 43 1 7 2 1 7 2 0 3 0 nosym
C    0.2813594   -0.7177047   -5.1361261  
C   -0.8287665    0.0000939   -4.7555305  
C   -1.2667210    0.7282087   -5.9012378  
C   -0.3776755    0.4119448   -6.9602472  
N    0.5513327   -0.4669299   -6.4611073  
C   -0.5077471    0.9514737   -8.2435161  
C   -1.5545516    1.8259687   -8.4617756  
O   -1.7281319    2.3815747   -9.6963552  
C   -2.4518434    2.1541600   -7.4177576  
O   -3.4414046    3.0392073   -7.7929959  
C   -2.3239691    1.6224891   -6.1514637  
H    1.3038951   -0.8755832   -6.9851623  
H    0.1665903    0.7145649   -9.0549001  
H   -2.5044316    2.9529524   -9.6319362  
H   -4.0036811    3.2078124   -7.0307484  
H   -3.0265622    1.8926712   -5.3718209  
H    0.9027873   -1.3876082   -4.5669024  
C    1.0672569   -0.0000698   -0.8321910  
C    0.0000000    0.0000000    0.0000000  
C   -1.1601223   -0.0000736   -0.8778472  
C   -0.5938729   -0.0000768   -2.2438435  
N    0.7113367   -0.0001553   -2.2234123  
C   -1.4286985   -0.0001877   -3.4135239  
C   -2.7683113   -0.0006798   -3.2270524  
O   -3.6653902   -0.0008302   -4.2276970  
C   -3.3702024   -0.0010610   -1.8610774  
O   -4.5974910   -0.0013779   -1.7662963  
C   -2.4926825   -0.0008943   -0.6770658  
H   -4.5324245   -0.0012258   -3.7833954  
H   -2.9677772   -0.0012974    0.2947961  
H    2.1134391   -0.0000547   -0.5705119  
C    2.4951002    2.0940188    2.9809380  
C    1.9440701    1.6314916    1.8291961  
C    0.8759964    0.7350050    2.2038498  
C    0.8497377    0.7130254    3.6788474  
N    1.8560616    1.5571714    4.0882609  
C   -0.0205033   -0.0168748    4.4215661  
C   -0.9962600   -0.8356168    3.7214979  
O   -1.8224391   -1.5286685    4.3006425  
C   -0.9864710   -0.8277881    2.1595606  
O   -1.8030528   -1.5133726    1.5592035  
C    0.0000000    0.0000000    1.4700000  
H    2.2509283    1.8888011    0.8310761  
H   -0.0229599   -0.0187323    5.5027230  
H    3.3143982    2.7817323    3.1139444  
H    2.0889452    1.7545833    5.0442112  
