50
33A 34A 43B 16A 17A 26B 49 44 48 32 27 31 2 3 4 2 3 4 3 0 3 0 nosym
C    1.1188644    0.0008217   -0.8003807  
C    0.0000000    0.0000000    0.0000000  
C   -1.1323862    0.0008904   -0.8673526  
C   -0.6382660    0.0019682   -2.1969280  
N    0.7324018    0.0038477   -2.1202240  
C   -1.4770912    0.0027325   -3.3154810  
C   -2.8395475    0.0020958   -3.0876858  
O   -3.7039195    0.0024443   -4.1440347  
C   -3.3517868    0.0013946   -1.7684332  
O   -4.7300492    0.0012389   -1.7073123  
C   -2.5248543    0.0009136   -0.6644818  
H   -1.1067568    0.0036993   -4.3313811  
H   -4.5940030    0.0021851   -3.7685130  
H   -4.9934599    0.0007287   -0.7819913  
H   -2.9462578    0.0005617    0.3339655  
H    2.1619894    0.0009344   -0.5342067  
C    4.5426424   -2.1280499   -2.8244673  
C    4.7840750   -1.6433696   -4.0890870  
C    3.7027649   -0.7718646   -4.4144297  
C    2.8248668   -0.7640012   -3.3003565  
N    3.3636313   -1.5993793   -2.3535231  
C    1.6478436   -0.0100108   -3.2702998  
C    1.3518122    0.7501210   -4.3850833  
O    0.2151958    1.5054726   -4.4087631  
C    2.2150343    0.7551132   -5.5065293  
O    1.7815980    1.5622762   -6.5380159  
C    3.3762253    0.0113164   -5.5369819  
H    5.6343313   -1.8887267   -4.7021589  
H    2.9665963   -1.7854954   -1.4503588  
H    0.2007700    1.9502733   -5.2662065  
H    2.4205830    1.5086844   -7.2552543  
H    4.0176566    0.0350461   -6.4101842  
H    5.1174422   -2.8101455   -2.2217154  
C    2.5285572    2.1210227    2.9438989  
C    1.9331703    1.6216660    4.0790748  
C    0.8903039    0.7472258    3.6520102  
C    0.8972198    0.7527806    2.2336141  
N    1.9028376    1.5986179    1.8362361  
C    0.0000000    0.0000000    1.4700000  
C   -0.9207814   -0.7726952    2.1506477  
O   -1.8198395   -1.5274828    1.4542253  
C   -0.9436862   -0.7911793    3.5655508  
O   -1.9197945   -1.6098497    4.0950179  
C   -0.0590329   -0.0485852    4.3195194  
H    2.2150357    1.8593692    5.0905303  
H    2.1533708    1.7953814    0.8841339  
H   -2.3621246   -1.9821033    2.1118817  
H   -1.8668290   -1.5649508    5.0545920  
H   -0.1007624   -0.0827977    5.4019087  
H    3.3491200    2.8096064    2.8367138  
