50
1A 10B 22B 34A 43B 11 15 30 44 48 3 4 7 3 4 2 1 2 0 nosym
C    3.3982216   -0.7145342   -2.9707414  
C    4.6647820   -0.4659147   -3.4466420  
C    4.5287039    0.4429083   -4.5375697  
C    3.1442606    0.7157658   -4.6817640  
N    2.4861704   -0.0045250   -3.7159919  
C    2.6410753    1.5757960   -5.6625506  
C    3.5520997    2.1714609   -6.5130770  
O    3.1149983    3.0202280   -7.4885515  
C    4.9373397    1.9114705   -6.3852785  
O    5.7157784    2.5801418   -7.3073713  
C    5.4344294    1.0629304   -5.4181135  
H    5.5747281   -0.8885590   -3.0563048  
H    1.5870424    1.7877939   -5.7777582  
H    3.9017681    3.3202503   -7.9620961  
H    6.6368301    2.3496252   -7.1520319  
H    6.5005864    0.8829716   -5.3446134  
H    3.0731455   -1.3432643   -2.1595802  
C    0.0000000    0.0000000    0.0000000  
C    1.0521669   -0.0011846   -0.8862340  
C    0.4917221   -0.0011929   -2.1979129  
C   -0.9187427    0.0003105   -2.0478683  
N   -1.1833170   -0.0009470   -0.7007914  
C   -1.7951698    0.0010264   -3.1372090  
C   -1.2375835    0.0005167   -4.4010424  
O   -2.0474208    0.0015263   -5.4997579  
C    0.1673584   -0.0013551   -4.5711963  
O    0.5673529   -0.0020652   -5.8915551  
C    1.0325773   -0.0023355   -3.4969889  
H    2.0953059   -0.0030541   -0.6200561  
H   -2.0989778    0.0102266   -0.2891826  
H   -2.8710930    0.0020277   -3.0295514  
H   -1.4634881    0.0006434   -6.2693595  
H    1.5290714   -0.0033067   -5.9180046  
C    1.1243417   -0.0099156    2.2619005  
C    0.7474090   -0.0234034    3.5848544  
C   -0.6787367   -0.0234952    3.6114698  
C   -1.1201739   -0.0099357    2.2635546  
N    0.0000000    0.0000000    1.4700000  
C   -2.4730812   -0.0065396    1.9108239  
C   -3.3971947   -0.0173298    2.9375057  
O   -4.7313508   -0.0149487    2.6493466  
C   -2.9763630   -0.0305536    4.2886322  
O   -4.0166453   -0.0397858    5.1947621  
C   -1.6418541   -0.0336380    4.6373480  
H    1.4178735   -0.0310004    4.4271209  
H   -2.8160170    0.0039190    0.8854031  
H   -5.1938803   -0.0234410    3.4974381  
H   -3.6464643   -0.0484781    6.0827341  
H   -1.3497443   -0.0436789    5.6809233  
H    2.1062470   -0.0051382    1.8205408  
