46
0A 1A 10B 27B 31A 32A 41B 16 11 15 30 44 42 43 2 3 4 4 2 3 4 3 1 3 0 nosym
C   -4.3568015    2.1196432   -0.0439433  
C   -5.5783087    1.6201329   -0.4323717  
C   -5.3394747    0.7460399   -1.5339705  
C   -3.9416100    0.7519547   -1.7745206  
N   -3.3751248    1.5976638   -0.8533862  
C   -3.3460097   -0.0004262   -2.7913647  
C   -4.1766439   -0.7730845   -3.5795420  
O   -3.6475256   -1.5274889   -4.5864787  
C   -5.5738550   -0.7919240   -3.3553485  
O   -6.2652638   -1.6105065   -4.2243825  
C   -6.1621470   -0.0497244   -2.3525632  
H   -6.5251586    1.8575141    0.0216316  
H   -2.3939629    1.7946126   -0.7726814  
H   -4.3895800   -1.9821535   -5.0058840  
H   -7.2009062   -1.5658644   -4.0048715  
H   -7.2352197   -0.0842034   -2.2048989  
H   -4.1083019    2.8080663    0.7455372  
C    0.0000000    0.0000000    0.0000000  
C    1.0662919   -0.0000103   -0.8334272  
C    0.4961868    0.0000066   -2.1718889  
C   -0.9663860   -0.0000849   -1.9540248  
N   -1.2632775   -0.0000084   -0.6828659  
C   -1.8985364   -0.0000515   -3.0477258  
C   -1.3925778    0.0004567   -4.3020543  
O   -2.1456385    0.0005412   -5.4151314  
C    0.0786229    0.0009326   -4.5544999  
O    0.4683756    0.0012594   -5.7221104  
C    1.0143162    0.0008443   -3.4159034  
H    2.1107195    0.0000631   -0.5721869  
H   -1.5042277    0.0009692   -6.1484420  
H    2.0724151    0.0013151   -3.6409746  
C    3.2798086   -0.0005857    2.9199648  
C    2.5571146   -0.0005566    4.0696553  
C    1.1637436   -0.0001548    3.6910360  
C    1.1336965    0.0000200    2.2159470  
N    2.4483514    0.0001428    1.8102719  
C    0.0000000    0.0000000    1.4700000  
C   -1.2757367    0.0000186    2.1664417  
O   -2.3524596    0.0000640    1.5842315  
C   -1.2676493    0.0000873    3.7284083  
O   -2.3355761    0.0004100    4.3257297  
C    0.0181563   -0.0001760    4.4216297  
H    2.9547357   -0.0006076    5.0689105  
H    0.0150794   -0.0003319    5.5031631  
H    4.3498549   -0.0008612    2.7900019  
H    2.7563627   -0.0012824    0.8551938  
