48
5B 10B 22B 38B 13 16 30 44 7 4 7 7 2 1 1 0 nosym
C    2.4861703   -0.0045381   -3.7159920  
C    3.5192652   -0.0069577   -2.8075998  
C    4.7328081   -0.0089742   -3.5572063  
C    4.3743059   -0.0073669   -4.9295761  
N    3.0028458   -0.0066335   -4.9905080  
C    5.3209179   -0.0083539   -5.9585148  
C    6.6537152   -0.0107049   -5.5954387  
O    7.6195178   -0.0114066   -6.5599273  
C    7.0312778   -0.0127113   -4.2315255  
O    8.3964907   -0.0153605   -4.0327041  
C    6.0979609   -0.0120123   -3.2159250  
H    3.4114641   -0.0083403   -1.7364461  
H    2.4594304    0.0050772   -5.8346309  
H    5.0541705   -0.0072834   -7.0063917  
H    8.4675242   -0.0133903   -6.0971674  
H    8.5659225   -0.0165597   -3.0856586  
H    6.4172673   -0.0137764   -2.1803004  
C    0.0000000    0.0000000    0.0000000  
C    1.0521669   -0.0011901   -0.8862341  
C    0.4917220   -0.0011956   -2.1979132  
C   -0.9187428    0.0003148   -2.0478684  
N   -1.1833170   -0.0009411   -0.7007914  
C   -1.7951699    0.0010350   -3.1372091  
C   -1.2375836    0.0005225   -4.4010425  
O   -2.0474210    0.0015361   -5.4997584  
C    0.1673583   -0.0013566   -4.5711960  
O    0.5673528   -0.0020687   -5.8915550  
C    1.0325772   -0.0023412   -3.4969890  
H    2.0953059   -0.0030649   -0.6200562  
H   -2.0989777    0.0102371   -0.2891826  
H   -2.8710931    0.0020420   -3.0295515  
H   -1.4634882    0.0006497   -6.2693595  
H    1.5290713   -0.0033152   -5.9180046  
C    1.0672568    0.0000697    2.3021913  
C    0.0000000    0.0000000    1.4700000  
C   -1.1601224    0.0000736    2.3478473  
C   -0.5938729    0.0000769    3.7138435  
N    0.7113367    0.0001554    3.6934124  
C   -1.4286986    0.0001879    4.8835240  
C   -2.7683114    0.0006799    4.6970523  
O   -3.6653903    0.0008304    5.6976972  
C   -3.3702025    0.0010610    3.3310774  
O   -4.5974910    0.0013779    3.2362962  
C   -2.4926826    0.0008943    2.1470656  
H   -0.9878360   -0.0000190    5.8697035  
H   -4.5324246    0.0012261    5.2533954  
H   -2.9677772    0.0012974    1.1752040  
H    2.1134392    0.0000545    2.0405121  
