48
5B 10B 27B 33A 37A 38B 13 16 32 46 47 45 7 4 4 2 1 7 2 1 3 0 nosym
C   -3.2578655    0.0024039   -2.9908504  
C   -4.0349373    0.0043588   -1.8556751  
C   -5.3958978    0.0056180   -2.2827400  
C   -5.3870308    0.0040491   -3.7011352  
N   -4.0729888    0.0040658   -4.0985144  
C   -6.5582196    0.0043938   -4.4647489  
C   -7.7602566    0.0060511   -3.7841015  
O   -8.9341439    0.0061073   -4.4805229  
C   -7.7896820    0.0080076   -2.3691996  
O   -9.0636545    0.0099262   -1.8397330  
C   -6.6346679    0.0079421   -1.6152317  
H   -3.6662215    0.0059255   -0.8442210  
H   -3.7546021   -0.0074431   -5.0506064  
H   -6.5582204    0.0033486   -5.5460450  
H   -9.6417821    0.0076766   -3.8228672  
H   -8.9942200    0.0111421   -0.8801596  
H   -6.6886246    0.0096504   -0.5328434  
C    0.0000000    0.0000000    0.0000000  
C    1.0521667   -0.0011902   -0.8862342  
C    0.4917216   -0.0011957   -2.1979129  
C   -0.9187429    0.0003148   -2.0478680  
N   -1.1833171   -0.0009412   -0.7007912  
C   -1.7951702    0.0010350   -3.1372088  
C   -1.2375841    0.0005225   -4.4010424  
O   -2.0474217    0.0015360   -5.4997576  
C    0.1673577   -0.0013567   -4.5711964  
O    0.5673522   -0.0020688   -5.8915554  
C    1.0325769   -0.0023413   -3.4969890  
H    2.0953057   -0.0030649   -0.6200562  
H   -2.0989779    0.0102372   -0.2891821  
H   -1.4634887    0.0006498   -6.2693588  
H    1.5290708   -0.0033153   -5.9180049  
H    2.1042148   -0.0039610   -3.6584453  
C    3.2573670    0.0002920    2.9809380  
C    2.5379467    0.0001709    1.8291961  
C    1.1435042   -0.0000331    2.2038498  
C    1.1092607    0.0000083    3.6788474  
N    2.4227561   -0.0001909    4.0882609  
C   -0.0265533    0.0002524    4.4215661  
C   -1.3003036    0.0002640    3.7214979  
O   -2.3786784    0.0004133    4.3006425  
C   -1.2877726   -0.0000311    2.1595606  
O   -2.3539958   -0.0003306    1.5592035  
C    0.0000000    0.0000000    1.4700000  
H    2.9384090    0.0000368    0.8310761  
H   -0.0296291    0.0004086    5.5027230  
H    4.3270393    0.0004765    3.1139444  
H    2.7280493    0.0013407    5.0442112  
