46
0A 4A 5B 31A 32A 41B 16 12 13 44 42 43 2 1 7 2 3 4 3 0 3 0 nosym
C    6.2386722   -2.1223232   -4.2492949  
C    5.2563210   -1.6605102   -3.4042018  
C    4.4370524   -0.7734640   -4.1635093  
C    4.9725246   -0.7334317   -5.4763663  
N    6.0668368   -1.5621683   -5.4935012  
C    4.4150712    0.0424599   -6.4971633  
C    3.2965087    0.7913504   -6.1870693  
O    2.7118370    1.5665271   -7.1463786  
C    2.7477713    0.7649028   -4.8828439  
O    1.6340761    1.5650823   -4.7320482  
C    3.2973504   -0.0000931   -3.8752375  
H    5.1446830   -1.9289971   -2.3676476  
H    6.6450355   -1.7434909   -6.2939940  
H    4.8185038    0.0774252   -7.4997706  
H    1.9576708    1.9993538   -6.7254760  
H    1.3262041    1.4897882   -3.8236709  
H    7.0491603   -2.8058539   -4.0626035  
C    3.3321173    0.0004715   -1.3379333  
C    2.6974184    0.0000117   -2.5332310  
C    1.2800439   -0.0002118   -2.2052839  
C    1.2395035    0.0000643   -0.7271293  
N    2.4394063    0.0005460   -0.2131035  
C    0.0000000    0.0000000    0.0000000  
C   -1.1468702    0.0000634   -0.7169541  
O   -2.3742202    0.0000072   -0.1695491  
C   -1.1388767    0.0001606   -2.2096353  
O   -2.2206230    0.0000901   -2.7970412  
C    0.1454525    0.0001815   -2.9324239  
H   -2.9844345    0.0001024   -0.9290167  
H    0.1083577    0.0003682   -4.0135594  
H    4.3940039    0.0007620   -1.1498632  
C    2.5128556    2.1077716    2.9199648  
C    1.9592212    1.6432552    4.0696553  
C    0.8915788    0.7479214    3.6910360  
C    0.8684491    0.7287414    2.2159470  
N    1.8754542    1.5738793    1.8102719  
C    0.0000000    0.0000000    1.4700000  
C   -0.9772830   -0.8200135    2.1664417  
O   -1.8021297   -1.5120829    1.5842315  
C   -0.9711318   -0.8147624    3.7284083  
O   -1.7894187   -1.5009653    4.3257297  
C    0.0140216    0.0115358    4.4216297  
H    2.2638494    1.8988021    5.0689105  
H    0.0117648    0.0094386    5.5031631  
H    3.3327358    2.7953732    2.7900019  
H    2.1123206    1.7707734    0.8551938  
