50
37A 38B 17A 26B 44 45 27 31 1 7 3 4 2 0 2 0 nosym
C    1.1188644    0.0008217   -0.8003807  
C    0.0000000    0.0000000    0.0000000  
C   -1.1323862    0.0008904   -0.8673526  
C   -0.6382660    0.0019682   -2.1969280  
N    0.7324018    0.0038477   -2.1202240  
C   -1.4770912    0.0027325   -3.3154810  
C   -2.8395475    0.0020958   -3.0876858  
O   -3.7039195    0.0024443   -4.1440347  
C   -3.3517868    0.0013946   -1.7684332  
O   -4.7300492    0.0012389   -1.7073123  
C   -2.5248543    0.0009136   -0.6644818  
H   -1.1067568    0.0036993   -4.3313811  
H   -4.5940030    0.0021851   -3.7685130  
H   -4.9934599    0.0007287   -0.7819913  
H   -2.9462578    0.0005617    0.3339655  
H    2.1619894    0.0009344   -0.5342067  
C    2.8233650   -0.7205623   -3.3382299  
C    3.4268647   -0.4843012   -4.5516699  
C    2.5842317    0.4170767   -5.2672727  
C    1.4720838    0.6983393   -4.4330406  
N    1.6478436   -0.0100108   -3.2702998  
C    0.4355985    1.5542925   -4.8175283  
C    0.5235715    2.1371647   -6.0668077  
O   -0.4608978    2.9814416   -6.4922844  
C    1.6251371    1.8686376   -6.9137220  
O    1.5672671    2.5248768   -8.1258873  
C    2.6478816    1.0241115   -6.5351777  
H    4.3591328   -0.9101991   -4.8810323  
H   -0.4148215    1.7726483   -4.1864111  
H   -0.2071842    3.2724203   -7.3778496  
H    2.3476242    2.2892250   -8.6368809  
H    3.4787760    0.8373913   -7.2054227  
H    3.1377222   -1.3408277   -2.5163969  
C    0.8576279    0.7185626    2.2703808  
C    0.0000000    0.0000000    1.4700000  
C   -0.8668858   -0.7285659    2.3373528  
C   -0.4876752   -0.4117774    3.6669281  
N    0.5635254    0.4678311    3.5902241  
C   -1.1297612   -0.9515493    4.7854808  
C   -2.1738724   -1.8268314    4.5576857  
O   -2.8357962   -2.3827064    5.6140350  
C   -2.5667212   -2.1555554    3.2384331  
O   -3.6226318   -3.0413663    3.1773122  
C   -1.9335634   -1.6236449    2.1344818  
H    1.0363952    0.8769718    4.3757045  
H   -0.8454472   -0.7142436    5.8013813  
H   -3.5178062   -2.9546422    5.2385129  
H   -3.8247440   -3.2102924    2.2519915  
H   -2.2566033   -1.8942483    1.1360343  
H    1.6567807    1.3889844    2.0042067  
