48
4A 5B 37A 38B 11 12 47 44 1 7 1 7 2 0 2 0 nosym
C    2.8170674   -0.7299976   -3.3539683  
C    1.6478435   -0.0100098   -3.2702997  
C    1.5099598    0.7041928   -4.4972889  
C    2.6345493    0.3775761   -5.2976300  
N    3.4089709   -0.4938077   -4.5726616  
C    2.8289258    0.9022210   -6.5789398  
C    1.8704230    1.7721993   -7.0612132  
O    2.0105459    2.3133922   -8.3063999  
C    0.7415952    2.1105566   -6.2775814  
O   -0.1223396    2.9894084   -6.8977268  
C    0.5493288    1.5935720   -5.0133478  
H    4.2679756   -0.9069777   -4.8879119  
H    3.6839521    0.6573667   -7.1939026  
H    1.2432613    2.8840009   -8.4440388  
H   -0.8566635    3.1656155   -6.3016368  
H   -0.3251170    1.8712826   -4.4365471  
H    3.2763587   -1.3922068   -2.6401832  
C    1.1188643    0.0008224   -0.8003807  
C    0.0000000    0.0000000    0.0000000  
C   -1.1323862    0.0008899   -0.8673529  
C   -0.6382661    0.0019679   -2.1969281  
N    0.7324016    0.0038482   -2.1202240  
C   -1.4770912    0.0027317   -3.3154808  
C   -2.8395475    0.0020941   -3.0876858  
O   -3.7039199    0.0024422   -4.1440350  
C   -3.3517869    0.0013928   -1.7684331  
O   -4.7300495    0.0012361   -1.7073122  
C   -2.5248543    0.0009121   -0.6644817  
H   -1.1067569    0.0036986   -4.3313813  
H   -4.5940034    0.0021826   -3.7685132  
H   -4.9934601    0.0007256   -0.7819917  
H   -2.9462578    0.0005600    0.3339658  
H    2.1619896    0.0009355   -0.5342066  
C    0.8400945    0.7047457    2.2710304  
C    0.0000000    0.0000000    1.4700000  
C   -0.8844236   -0.7423113    2.3369512  
C   -0.4878984   -0.4098547    3.7186280  
N    0.5629682    0.4714286    3.6095011  
C   -1.0836927   -0.9095027    4.8308716  
C   -2.1891196   -1.8367527    4.6554461  
O   -2.7906899   -2.3413415    5.5944904  
C   -2.6257283   -2.2031529    3.2011665  
O   -3.5549479   -2.9829990    3.0410059  
C   -1.9068976   -1.5999348    2.0816745  
H   -0.7774656   -0.6525820    5.8354244  
H   -2.2155208   -1.8586617    1.0779135  
H    1.6384792    1.3747609    1.9961646  
H    1.0518368    0.8833920    4.3830260  
