48
0A 1A 10B 17A 33A 34A 43B 16 11 15 32 46 44 45 2 3 4 2 2 3 4 3 1 3 0 nosym
C    2.3028670   -2.1229285   -5.9144802  
C    1.6515880   -1.6243315   -7.0188821  
C    0.6310838   -0.7498518   -6.5409110  
C    0.7086130   -0.7546006   -5.1246156  
N    1.7329568   -1.6000171   -4.7773283  
C   -0.1496417   -0.0015611   -4.3176961  
C   -1.1033416    0.7705689   -4.9520851  
O   -1.9667781    1.5255767   -4.2121834  
C   -1.1966688    0.7882458   -6.3641031  
O   -2.1981099    1.6064258   -6.8447693  
C   -0.3504871    0.0453959   -7.1607691  
H    1.8827975   -1.8625538   -8.0429845  
H    2.0306272   -1.7961916   -3.8387714  
H   -2.5412358    1.9797187   -4.8422771  
H   -2.1929765    1.5609929   -7.8057654  
H   -0.4460636    0.0789863   -8.2397568  
H    3.1279011   -2.8112912   -5.8478993  
C    3.3003542    0.0005275   -1.4738988  
C    2.5232813    0.0003498   -2.6090748  
C    1.1623199   -0.0001318   -2.1820103  
C    1.1711883    0.0000584   -0.7636141  
N    2.4852299   -0.0014919   -0.3662361  
C    0.0000000    0.0000000    0.0000000  
C   -1.2020384    0.0000520   -0.6806476  
O   -2.3759249    0.0003494    0.0157744  
C   -1.2314658   -0.0005112   -2.0955509  
O   -2.5054393   -0.0008037   -2.6250179  
C   -0.0764518   -0.0007271   -2.8495194  
H    2.8919952   -0.0005618   -3.6205305  
H    2.8036266    0.0088182    0.5858661  
H   -3.0835640    0.0000347   -0.6418816  
H   -2.4360050   -0.0011526   -3.5845920  
H    4.3715548    0.0004895   -1.3667138  
C    2.5128556    2.1077716    2.9199648  
C    1.9592212    1.6432552    4.0696553  
C    0.8915788    0.7479214    3.6910360  
C    0.8684491    0.7287414    2.2159470  
N    1.8754542    1.5738793    1.8102719  
C    0.0000000    0.0000000    1.4700000  
C   -0.9772830   -0.8200135    2.1664417  
O   -1.8021297   -1.5120829    1.5842315  
C   -0.9711318   -0.8147624    3.7284083  
O   -1.7894187   -1.5009653    4.3257297  
C    0.0140216    0.0115358    4.4216297  
H    2.2638494    1.8988021    5.0689105  
H    0.0117648    0.0094386    5.5031631  
H    3.3327358    2.7953732    2.7900019  
H    2.1123206    1.7707734    0.8551938  
