46
5B 10B 17A 31A 32A 41B 13 16 30 44 42 43 7 4 2 2 3 4 2 1 3 0 nosym
C    0.0950451    0.0004353   -4.4015596  
C    1.1162041    0.0003986   -5.3233523  
C    0.5111104    0.0000864   -6.6150418  
C   -0.8933803    0.0002297   -6.4167187  
N   -1.1116054   -0.0015102   -5.0613624  
C   -1.8066466    0.0003044   -7.4753659  
C   -1.2927258    0.0005402   -8.7575767  
O   -2.1397636    0.0009732   -9.8278753  
C    0.1055561    0.0000266   -8.9758059  
O    0.4600396   -0.0000773  -10.3091048  
C    1.0071021   -0.0003206   -7.9319004  
H    2.1678583   -0.0005300   -5.0931010  
H   -2.0126233    0.0087263   -4.6185950  
H   -2.8782461    0.0002696   -7.3308775  
H   -1.5825638    0.0007750  -10.6170481  
H    1.4202863   -0.0004048  -10.3685175  
H    2.0725743   -0.0008933   -8.1300089  
C    3.3321174    0.0004715   -1.3379334  
C    2.6974186    0.0000117   -2.5332311  
C    1.2800441   -0.0002117   -2.2052840  
C    1.2395035    0.0000644   -0.7271298  
N    2.4394064    0.0005460   -0.2131035  
C    0.0000000    0.0000000    0.0000000  
C   -1.1468700    0.0000635   -0.7169545  
O   -2.3742202    0.0000072   -0.1695490  
C   -1.1388767    0.0001607   -2.2096356  
O   -2.2206230    0.0000906   -2.7970413  
C    0.1454525    0.0001817   -2.9324241  
H    3.1367988   -0.0000649   -3.5160947  
H   -2.9844345    0.0001026   -0.9290170  
H    4.3940040    0.0007620   -1.1498635  
C    2.5128556    2.1077716    2.9199648  
C    1.9592212    1.6432552    4.0696553  
C    0.8915788    0.7479214    3.6910360  
C    0.8684491    0.7287414    2.2159470  
N    1.8754542    1.5738793    1.8102719  
C    0.0000000    0.0000000    1.4700000  
C   -0.9772830   -0.8200135    2.1664417  
O   -1.8021297   -1.5120829    1.5842315  
C   -0.9711318   -0.8147624    3.7284083  
O   -1.7894187   -1.5009653    4.3257297  
C    0.0140216    0.0115358    4.4216297  
H    2.2638494    1.8988021    5.0689105  
H    0.0117648    0.0094386    5.5031631  
H    3.3327358    2.7953732    2.7900019  
H    2.1123206    1.7707734    0.8551938  
