48
0A 4A 5B 31A 32A 41B 16 12 13 47 42 46 2 1 7 2 3 4 3 0 3 0 nosym
C    2.1121029   -2.1226192   -5.1304014  
C    1.1298504   -1.6609210   -4.2851312  
C    0.3107707   -0.7734093   -5.0440988  
C    0.8462512   -0.7329879   -6.3569404  
N    1.9403871   -1.5619511   -6.3743928  
C    0.2889633    0.0434134   -7.3774399  
C   -0.8294396    0.7924234   -7.0670589  
O   -1.4139462    1.5680922   -8.0260710  
C   -1.3781826    0.7655928   -5.7628436  
O   -2.4917072    1.5659516   -5.6117411  
C   -0.8287665    0.0000939   -4.7555305  
H    1.0181550   -1.9297811   -3.2486801  
H    2.5185469   -1.7430901   -7.1749552  
H    0.6924032    0.0786771   -8.3800338  
H   -2.1680200    2.0009182   -7.6050024  
H   -2.7995953    1.4903753   -4.7033930  
H    2.9224455   -2.8063941   -4.9439720  
C    1.0672569   -0.0000698   -0.8321910  
C    0.0000000    0.0000000    0.0000000  
C   -1.1601223   -0.0000736   -0.8778472  
C   -0.5938729   -0.0000768   -2.2438435  
N    0.7113367   -0.0001553   -2.2234123  
C   -1.4286985   -0.0001877   -3.4135239  
C   -2.7683113   -0.0006798   -3.2270524  
O   -3.6653902   -0.0008302   -4.2276970  
C   -3.3702024   -0.0010610   -1.8610774  
O   -4.5974910   -0.0013779   -1.7662963  
C   -2.4926825   -0.0008943   -0.6770658  
H   -4.5324245   -0.0012258   -3.7833954  
H   -2.9677772   -0.0012974    0.2947961  
H    2.1134391   -0.0000547   -0.5705119  
C    2.5285572    2.1210227    2.9438989  
C    1.9331703    1.6216660    4.0790748  
C    0.8903039    0.7472258    3.6520102  
C    0.8972198    0.7527806    2.2336141  
N    1.9028376    1.5986179    1.8362361  
C    0.0000000    0.0000000    1.4700000  
C   -0.9207814   -0.7726952    2.1506477  
O   -1.8198395   -1.5274828    1.4542253  
C   -0.9436862   -0.7911793    3.5655508  
O   -1.9197945   -1.6098497    4.0950179  
C   -0.0590329   -0.0485852    4.3195194  
H    2.2150357    1.8593692    5.0905303  
H    2.1533708    1.7953814    0.8841339  
H   -2.3621246   -1.9821033    2.1118817  
H   -1.8668290   -1.5649508    5.0545920  
H   -0.1007624   -0.0827977    5.4019087  
H    3.3491200    2.8096064    2.8367138  
