48
5B 10B 35A 36B 13 16 42 43 7 4 1 7 2 0 2 0 nosym
C    1.6707636   -0.0012341   -3.2725974  
C    3.0463717   -0.0034573   -3.2854247  
C    3.4499895   -0.0053007   -4.6535216  
C    2.2671965   -0.0037951   -5.4364166  
N    1.2050902   -0.0032861   -4.5666193  
C    2.2856090   -0.0046612   -6.8344328  
C    3.5205408   -0.0067845   -7.4533969  
O    3.5962533   -0.0073600   -8.8162173  
C    4.7118869   -0.0086863   -6.6895200  
O    5.8613542   -0.0111078   -7.4524493  
C    4.6944760   -0.0081065   -5.3103091  
H    3.6808661   -0.0048235   -2.4157075  
H    0.2370749    0.0083097   -4.8326886  
H    1.3876878   -0.0036671   -7.4368771  
H    4.5366385   -0.0091915   -9.0374360  
H    6.6195103   -0.0122495   -6.8601641  
H    5.6233663   -0.0097861   -4.7520631  
C    1.0965514    0.0001359   -0.8010306  
C    0.0000000    0.0000000    0.0000000  
C   -1.1546565    0.0001470   -0.8669508  
C   -0.6372019    0.0003521   -2.2486278  
N    0.7342867    0.0007339   -2.1395012  
C   -1.4147744    0.0001355   -3.3608713  
C   -2.8576053   -0.0001045   -3.1854455  
O   -3.6427786   -0.0002490   -4.1244897  
C   -3.4275841   -0.0000724   -1.7311660  
O   -4.6406832    0.0000334   -1.5710050  
C   -2.4891868   -0.0001090   -0.6116739  
H   -1.0150456    0.0001619   -4.3654240  
H   -2.8919122   -0.0002919    0.3920871  
H    2.1388269    0.0000663   -0.5261650  
C    0.8576279    0.7185626    2.2703808  
C    0.0000000    0.0000000    1.4700000  
C   -0.8668858   -0.7285659    2.3373528  
C   -0.4876752   -0.4117774    3.6669281  
N    0.5635254    0.4678311    3.5902241  
C   -1.1297612   -0.9515493    4.7854808  
C   -2.1738724   -1.8268314    4.5576857  
O   -2.8357962   -2.3827064    5.6140350  
C   -2.5667212   -2.1555554    3.2384331  
O   -3.6226318   -3.0413663    3.1773122  
C   -1.9335634   -1.6236449    2.1344818  
H    1.0363952    0.8769718    4.3757045  
H   -0.8454472   -0.7142436    5.8013813  
H   -3.5178062   -2.9546422    5.2385129  
H   -3.8247440   -3.2102924    2.2519915  
H   -2.2566033   -1.8942483    1.1360343  
H    1.6567807    1.3889844    2.0042067  
