48
5B 10B 36B 41B 13 16 44 47 7 4 7 4 2 0 2 0 nosym
C    2.8699642   -0.0020523   -4.0185824  
C    4.1418714   -0.0044740   -4.5427134  
C    4.0070339   -0.0065458   -5.9627182  
C    2.6177779   -0.0049686   -6.2488843  
N    1.9559319   -0.0041991   -5.0461472  
C    2.1142957   -0.0060117   -7.5532208  
C    3.0299398   -0.0083890   -8.5875162  
O    2.5927426   -0.0091453   -9.8805245  
C    4.4200523   -0.0103660   -8.3221857  
O    5.2027707   -0.0130471   -9.4582707  
C    4.9174617   -0.0096117   -7.0356750  
H    5.0545882   -0.0058225   -3.9718023  
H    0.9584560    0.0075020   -4.9326308  
H    1.0566184   -0.0049643   -7.7779879  
H    3.3831278   -0.0111390  -10.4359996  
H    6.1269506   -0.0142234   -9.1908872  
H    5.9874229   -0.0113545   -6.8634594  
C    3.2573670   -0.0002919   -1.5109381  
C    2.5379468   -0.0001709   -0.3591962  
C    1.1435042    0.0000332   -0.7338498  
C    1.1092608   -0.0000081   -2.2088474  
N    2.4227562    0.0001911   -2.6182609  
C   -0.0265531   -0.0002522   -2.9515663  
C   -1.3003034   -0.0002638   -2.2514980  
O   -2.3786783   -0.0004131   -2.8306426  
C   -1.2877724    0.0000312   -0.6895608  
O   -2.3539957    0.0003306   -0.0892036  
C    0.0000000    0.0000000    0.0000000  
H    2.9384090   -0.0000367    0.6389241  
H   -0.0296290   -0.0004083   -4.0327231  
H    4.3270393   -0.0004763   -1.6439444  
C    0.0000000    0.0000000    1.4700000  
C    1.0521667    0.0011902    2.3562342  
C    0.4917218    0.0011957    3.6679131  
C   -0.9187428   -0.0003148    3.5178682  
N   -1.1833171    0.0009411    2.1707914  
C   -1.7951701   -0.0010350    4.6072090  
C   -1.2375837   -0.0005224    5.8710424  
O   -2.0474215   -0.0015360    6.9697579  
C    0.1673580    0.0013566    6.0411963  
O    0.5673524    0.0020687    7.3615553  
C    1.0325770    0.0023412    4.9669890  
H    2.0953057    0.0030649    2.0900562  
H   -2.0989778   -0.0102372    1.7591824  
H   -2.8710934   -0.0020419    4.4995513  
H   -1.4634884   -0.0006497    7.7393593  
H    1.5290710    0.0033153    7.3880045  
H    2.1042148    0.0039609    5.1284455  
