48
5B 10B 17A 33A 37A 38B 13 16 32 46 47 45 7 4 2 2 1 7 2 1 3 0 nosym
C   -0.1496419   -0.0015610   -4.3176961  
C    0.8570953   -0.0030495   -5.2552170  
C    0.2320381   -0.0039080   -6.5373647  
C   -1.1692069   -0.0025865   -6.3172803  
N   -1.3663830   -0.0031296   -4.9587012  
C   -2.0987845   -0.0026545   -7.3616341  
C   -1.6048147   -0.0037758   -8.6516619  
O   -2.4683523   -0.0035428   -9.7086933  
C   -0.2100870   -0.0054783   -8.8915534  
O    0.1236720   -0.0068617  -10.2301899  
C    0.7075430   -0.0056854   -7.8617575  
H    1.9121937   -0.0045706   -5.0413050  
H   -2.2604168    0.0081043   -4.5020193  
H   -3.1680135   -0.0017956   -7.2005413  
H   -1.9234612   -0.0047522  -10.5064135  
H    1.0828811   -0.0079365  -10.3044897  
H    1.7698132   -0.0071885   -8.0763685  
C    3.3003543    0.0005277   -1.4738990  
C    2.5232811    0.0003499   -2.6090749  
C    1.1623198   -0.0001317   -2.1820104  
C    1.1711883    0.0000584   -0.7636142  
N    2.4852300   -0.0014918   -0.3662362  
C    0.0000000    0.0000000    0.0000000  
C   -1.2020384    0.0000520   -0.6806476  
O   -2.3759250    0.0003494    0.0157745  
C   -1.2314658   -0.0005111   -2.0955509  
O   -2.5054393   -0.0008036   -2.6250178  
C   -0.0764519   -0.0007271   -2.8495194  
H    2.8919951   -0.0005617   -3.6205306  
H    2.8036267    0.0088181    0.5858660  
H   -3.0835640    0.0000348   -0.6418815  
H   -2.4360053   -0.0011525   -3.5845919  
H    4.3715545    0.0004896   -1.3667140  
C    2.4951002    2.0940188    2.9809380  
C    1.9440701    1.6314916    1.8291961  
C    0.8759964    0.7350050    2.2038498  
C    0.8497377    0.7130254    3.6788474  
N    1.8560616    1.5571714    4.0882609  
C   -0.0205033   -0.0168748    4.4215661  
C   -0.9962600   -0.8356168    3.7214979  
O   -1.8224391   -1.5286685    4.3006425  
C   -0.9864710   -0.8277881    2.1595606  
O   -1.8030528   -1.5133726    1.5592035  
C    0.0000000    0.0000000    1.4700000  
H    2.2509283    1.8888011    0.8310761  
H   -0.0229599   -0.0187323    5.5027230  
H    3.3143982    2.7817323    3.1139444  
H    2.0889452    1.7545833    5.0442112  
