46
4A 5B 35A 36B 11 12 45 42 1 7 1 7 2 0 2 0 nosym
C    0.2813594   -0.7177047   -5.1361261  
C   -0.8287665    0.0000939   -4.7555305  
C   -1.2667210    0.7282087   -5.9012378  
C   -0.3776755    0.4119448   -6.9602472  
N    0.5513327   -0.4669299   -6.4611073  
C   -0.5077471    0.9514737   -8.2435161  
C   -1.5545516    1.8259687   -8.4617756  
O   -1.7281319    2.3815747   -9.6963552  
C   -2.4518434    2.1541600   -7.4177576  
O   -3.4414046    3.0392073   -7.7929959  
C   -2.3239691    1.6224891   -6.1514637  
H    1.3038951   -0.8755832   -6.9851623  
H    0.1665903    0.7145649   -9.0549001  
H   -2.5044316    2.9529524   -9.6319362  
H   -4.0036811    3.2078124   -7.0307484  
H   -3.0265622    1.8926712   -5.3718209  
H    0.9027873   -1.3876082   -4.5669024  
C    1.0672569   -0.0000698   -0.8321910  
C    0.0000000    0.0000000    0.0000000  
C   -1.1601223   -0.0000736   -0.8778472  
C   -0.5938729   -0.0000768   -2.2438435  
N    0.7113367   -0.0001553   -2.2234123  
C   -1.4286985   -0.0001877   -3.4135239  
C   -2.7683113   -0.0006798   -3.2270524  
O   -3.6653902   -0.0008302   -4.2276970  
C   -3.3702024   -0.0010610   -1.8610774  
O   -4.5974910   -0.0013779   -1.7662963  
C   -2.4926825   -0.0008943   -0.6770658  
H   -4.5324245   -0.0012258   -3.7833954  
H   -2.9677772   -0.0012974    0.2947961  
H    2.1134391   -0.0000547   -0.5705119  
C    0.8400945    0.7047457    2.2710304  
C    0.0000000    0.0000000    1.4700000  
C   -0.8844236   -0.7423113    2.3369512  
C   -0.4878984   -0.4098547    3.7186280  
N    0.5629682    0.4714286    3.6095011  
C   -1.0836927   -0.9095027    4.8308716  
C   -2.1891196   -1.8367527    4.6554461  
O   -2.7906899   -2.3413415    5.5944904  
C   -2.6257283   -2.2031529    3.2011665  
O   -3.5549479   -2.9829990    3.0410059  
C   -1.9068976   -1.5999348    2.0816745  
H   -0.7774656   -0.6525820    5.8354244  
H   -2.2155208   -1.8586617    1.0779135  
H    1.6384792    1.3747609    1.9961646  
H    1.0518368    0.8833920    4.3830260  
