46
0A 4A 5B 22B 36B 41B 16 12 13 29 43 44 2 1 7 7 7 4 3 1 2 0 nosym
C    4.4883239   -2.1196448   -1.5653714  
C    3.2264838   -1.6584956   -1.8612904  
C    3.3569173   -0.7714021   -2.9706381  
C    4.7331981   -0.7306582   -3.3113972  
N    5.3921665   -1.5590348   -2.4372284  
C    5.2292268    0.0454724   -4.3632362  
C    4.3192911    0.7938750   -5.0844080  
O    4.7496005    1.5692568   -6.1220166  
C    2.9421625    0.7667151   -4.7594530  
O    2.1637877    1.5664734   -5.5705400  
C    2.4521485    0.0014830   -3.7217479  
H    2.3232775   -1.9274437   -1.3408302  
H    6.3797235   -1.7398423   -2.4416104  
H    6.2770283    0.0809795   -4.6279116  
H    3.9649679    2.0016674   -6.4834551  
H    1.2484462    1.4907074   -5.2841609  
H    4.8153072   -2.8029906   -0.8004667  
C    0.0000000    0.0000000    0.0000000  
C    1.0662923   -0.0000105   -0.8334269  
C    0.4961874    0.0000060   -2.1718887  
C   -0.9663853   -0.0000854   -1.9540249  
N   -1.2632772   -0.0000086   -0.6828660  
C   -1.8985357   -0.0000523   -3.0477261  
C   -1.3925768    0.0004559   -4.3020546  
O   -2.1456376    0.0005405   -5.4151317  
C    0.0786242    0.0009317   -4.5545000  
O    0.4683768    0.0012580   -5.7221103  
C    1.0143173    0.0008436   -3.4159030  
H    2.1107200    0.0000630   -0.5721863  
H   -2.9622180   -0.0003275   -2.8593382  
H   -1.5042263    0.0009682   -6.1484421  
C    0.0000000    0.0000000    1.4700000  
C    1.0541688    0.0001722    2.3260392  
C    0.5103138    0.0000454    3.6635956  
C   -0.9576371   -0.0002459    3.5155732  
N   -1.2018458    0.0001392    2.1615969  
C   -1.8348311   -0.0008317    4.5510609  
C   -1.2972847   -0.0009736    5.9014604  
O   -2.0050672   -0.0014265    6.9001319  
C    0.2542623   -0.0004184    6.0817573  
O    0.7184670   -0.0002256    7.2139121  
C    1.0974552   -0.0000873    4.8889129  
H    2.0940752    0.0005483    2.0517982  
H   -2.9081052   -0.0011668    4.4207061  
H    2.1707277    0.0000911    5.0223670  
H   -2.1128194   -0.0014912    1.7406791  
