46
0A 4A 5B 31A 32A 41B 16 12 13 45 42 44 2 1 7 2 3 4 3 0 3 0 nosym
C    5.7496317   -2.1277640   -4.7142976  
C    4.8676130   -1.6639754   -3.7659244  
C    3.9699051   -0.7769345   -4.4306642  
C    4.3563246   -0.7389409   -5.7949082  
N    5.4412136   -1.5688350   -5.9324215  
C    3.6896770    0.0363779   -6.7484547  
C    2.6131449    0.7867818   -6.3170027  
O    1.9262736    1.5614835   -7.2064178  
C    2.2125958    0.7623771   -4.9598803  
O    1.1232595    1.5638849   -4.6873456  
C    2.8699635   -0.0020528   -4.0185828  
H    4.8715184   -1.9311761   -2.7230527  
H    5.9267861   -1.7516624   -6.7919404  
H    3.9793186    0.0697919   -7.7897006  
H    1.2239009    1.9955697   -6.7049129  
H    0.9180877    1.4899365   -3.7503081  
H    6.5752159   -2.8119268   -4.6179090  
C    3.2573667   -0.0002919   -1.5109386  
C    2.5379468   -0.0001709   -0.3591965  
C    1.1435041    0.0000331   -0.7338500  
C    1.1092604   -0.0000084   -2.2088475  
N    2.4227558    0.0001908   -2.6182613  
C   -0.0265536   -0.0002526   -2.9515663  
C   -1.3003039   -0.0002641   -2.2514979  
O   -2.3786786   -0.0004135   -2.8306422  
C   -1.2877726    0.0000311   -0.6895607  
O   -2.3539957    0.0003306   -0.0892033  
C    0.0000000    0.0000000    0.0000000  
H    2.9384090   -0.0000368    0.6389236  
H   -0.0296296   -0.0004089   -4.0327231  
H    4.3270391   -0.0004765   -1.6439450  
C    2.5528530    2.1414826    2.8079335  
C    2.0663498    1.7338582    4.0032312  
C    0.9804344    0.8229586    3.6752840  
C    0.9495562    0.7966882    2.1971295  
N    1.8690446    1.5676019    1.6831036  
C    0.0000000    0.0000000    1.4700000  
C   -0.8785127   -0.7372425    2.1869543  
O   -1.8187535   -1.5261249    1.6395491  
C   -0.8723269   -0.7321790    3.6796354  
O   -1.7010379   -1.4274584    4.2670412  
C    0.1115397    0.0933559    4.4024240  
H    2.4028853    2.0163452    4.9860947  
H   -2.2861435   -1.9184361    2.3990168  
H    0.0832434    0.0693689    5.4835595  
H    3.3664920    2.8238276    2.6198634  
