50
5B 10B 22B 33A 34A 43B 13 16 30 49 44 48 7 4 7 2 3 4 2 1 3 0 nosym
C    2.4861703   -0.0045381   -3.7159920  
C    3.5192652   -0.0069577   -2.8075998  
C    4.7328081   -0.0089742   -3.5572063  
C    4.3743059   -0.0073669   -4.9295761  
N    3.0028458   -0.0066335   -4.9905080  
C    5.3209179   -0.0083539   -5.9585148  
C    6.6537152   -0.0107049   -5.5954387  
O    7.6195178   -0.0114066   -6.5599273  
C    7.0312778   -0.0127113   -4.2315255  
O    8.3964907   -0.0153605   -4.0327041  
C    6.0979609   -0.0120123   -3.2159250  
H    3.4114641   -0.0083403   -1.7364461  
H    2.4594304    0.0050772   -5.8346309  
H    5.0541705   -0.0072834   -7.0063917  
H    8.4675242   -0.0133903   -6.0971674  
H    8.5659225   -0.0165597   -3.0856586  
H    6.4172673   -0.0137764   -2.1803004  
C    0.0000000    0.0000000    0.0000000  
C    1.0521669   -0.0011901   -0.8862341  
C    0.4917220   -0.0011956   -2.1979132  
C   -0.9187428    0.0003148   -2.0478684  
N   -1.1833170   -0.0009411   -0.7007914  
C   -1.7951699    0.0010350   -3.1372091  
C   -1.2375836    0.0005225   -4.4010425  
O   -2.0474210    0.0015361   -5.4997584  
C    0.1673583   -0.0013566   -4.5711960  
O    0.5673528   -0.0020687   -5.8915550  
C    1.0325772   -0.0023412   -3.4969890  
H    2.0953059   -0.0030649   -0.6200562  
H   -2.0989777    0.0102371   -0.2891826  
H   -2.8710931    0.0020420   -3.0295515  
H   -1.4634882    0.0006497   -6.2693595  
H    1.5290713   -0.0033152   -5.9180046  
C    3.3003543   -0.0005276    2.9438989  
C    2.5232812   -0.0003497    4.0790748  
C    1.1623199    0.0001319    3.6520102  
C    1.1711883   -0.0000583    2.2336141  
N    2.4852299    0.0014920    1.8362361  
C    0.0000000    0.0000000    1.4700000  
C   -1.2020384   -0.0000520    2.1506477  
O   -2.3759250   -0.0003494    1.4542253  
C   -1.2314658    0.0005113    3.5655508  
O   -2.5054393    0.0008037    4.0950179  
C   -0.0764518    0.0007272    4.3195194  
H    2.8919952    0.0005619    5.0905303  
H    2.8036267   -0.0088181    0.8841339  
H   -3.0835639   -0.0000348    2.1118817  
H   -2.4360050    0.0011527    5.0545920  
H   -0.1304098    0.0013421    5.4019087  
H    4.3715549   -0.0004895    2.8367138  
