46
1A 10B 36B 41B 11 15 43 45 3 4 7 4 2 0 2 0 nosym
C    2.9111096   -0.7032330   -3.3049958  
C    3.5364888   -0.4513206   -4.5041238  
C    2.7058176    0.4576976   -5.2240341  
C    1.5780790    0.7272752   -4.4070522  
N    1.7334694    0.0049281   -3.2500363  
C    0.5475613    1.5865594   -4.8000571  
C    0.6576403    2.1848375   -6.0402680  
O   -0.3200977    3.0330157   -6.4734361  
C    1.7750125    1.9281367   -6.8699676  
O    1.7384798    2.5991344   -8.0748626  
C    2.7918838    1.0803343   -6.4830180  
H    4.4753021   -0.8719511   -4.8214463  
H   -0.3146599    1.7960631   -4.1820887  
H   -0.0505630    3.3351690   -7.3505449  
H    2.5284651    2.3707713   -8.5742394  
H    3.6352556    0.9029191   -7.1400766  
H    3.2112166   -1.3331394   -2.4851711  
C    1.1319246    0.0015678   -0.8009269  
C    0.7969914    0.0034958   -2.1169402  
C   -0.6453340    0.0035696   -2.1842669  
C   -1.1266833    0.0015410   -0.7896025  
N    0.0000000    0.0000000    0.0000000  
C   -2.4346130    0.0013912   -0.4276293  
C   -3.4350112    0.0031335   -1.4820181  
O   -4.6384613    0.0030876   -1.2583913  
C   -2.9478960    0.0050441   -2.9661073  
O   -3.7809383    0.0062138   -3.8623774  
C   -1.5113825    0.0053055   -3.2312121  
H   -2.7664565    0.0000174    0.6013448  
H   -1.1823532    0.0068381   -4.2614847  
H    2.1104315    0.0009436   -0.3488059  
C    0.0000000    0.0000000    1.4700000  
C    1.0662921    0.0000102    2.3034270  
C    0.4961870   -0.0000064    3.6418889  
C   -0.9663858    0.0000850    3.4240247  
N   -1.2632773    0.0000084    2.1528658  
C   -1.8985362    0.0000517    4.5177257  
C   -1.3925775   -0.0004564    5.7720543  
O   -2.1456383   -0.0005410    6.8851312  
C    0.0786232   -0.0009323    6.0245000  
O    0.4683759   -0.0012588    7.1921102  
C    1.0143166   -0.0008442    4.8859032  
H    2.1107198   -0.0000632    2.0421868  
H   -2.9622183    0.0003270    4.3293377  
H   -1.5042274   -0.0009692    7.6184419  
H    2.0724152   -0.0013148    5.1109744  
