48
0A 4A 5B 31A 32A 41B 16 12 13 47 42 46 2 1 7 2 3 4 3 0 3 0 nosym
C    6.0248187   -2.1202135   -4.4616489  
C    5.0783100   -1.6588027   -3.5763868  
C    4.2276820   -0.7722182   -4.3009554  
C    4.7079645   -0.7320399   -5.6349872  
N    5.8010155   -1.5602488   -5.6976512  
C    4.1080824    0.0434942   -6.6317203  
C    3.0030484    0.7918705   -6.2753359  
O    2.3785341    1.5666819   -7.2095005  
C    2.5091459    0.7652698   -4.9493763  
O    1.4023121    1.5649237   -4.7523579  
C    3.1006056    0.0006265   -3.9654949  
H    5.0100915   -1.9272544   -2.5360634  
H    6.3454447   -1.7413608   -6.5215297  
H    4.4693702    0.0785683   -7.6502697  
H    1.6423509    1.9991801   -6.7575668  
H    1.1325952    1.4895590   -3.8319362  
H    6.8427146   -2.8033362   -4.3088466  
C    3.2798083    0.0005856   -1.4499650  
C    2.5571143    0.0005567   -2.5996555  
C    1.1637433    0.0001550   -2.2210361  
C    1.1336964   -0.0000198   -0.7459472  
N    2.4483513   -0.0001427   -0.3402721  
C    0.0000000    0.0000000    0.0000000  
C   -1.2757369   -0.0000185   -0.6964416  
O   -2.3524597   -0.0000637   -0.1142312  
C   -1.2676495   -0.0000871   -2.2584083  
O   -2.3355763   -0.0004098   -2.8557295  
C    0.0181559    0.0001761   -2.9516296  
H    0.0150790    0.0003322   -4.0331631  
H    4.3498547    0.0008612   -1.3200024  
H    2.7563627    0.0012823    0.6148060  
C    2.5285572    2.1210227    2.9438989  
C    1.9331703    1.6216660    4.0790748  
C    0.8903039    0.7472258    3.6520102  
C    0.8972198    0.7527806    2.2336141  
N    1.9028376    1.5986179    1.8362361  
C    0.0000000    0.0000000    1.4700000  
C   -0.9207814   -0.7726952    2.1506477  
O   -1.8198395   -1.5274828    1.4542253  
C   -0.9436862   -0.7911793    3.5655508  
O   -1.9197945   -1.6098497    4.0950179  
C   -0.0590329   -0.0485852    4.3195194  
H    2.2150357    1.8593692    5.0905303  
H    2.1533708    1.7953814    0.8841339  
H   -2.3621246   -1.9821033    2.1118817  
H   -1.8668290   -1.5649508    5.0545920  
H   -0.1007624   -0.0827977    5.4019087  
H    3.3491200    2.8096064    2.8367138  
