48
1A 10B 27B 31A 35A 36B 11 15 29 47 43 44 3 4 4 2 1 7 2 1 3 0 nosym
C   -3.9747611    0.7101856   -1.9417825  
C   -5.3221354    0.4600631   -2.0621548  
C   -5.4813673   -0.4485679   -3.1501045  
C   -4.1854348   -0.7197647   -3.6589637  
N   -3.2941076    0.0012878   -2.9038237  
C   -3.9615344   -1.5791666   -4.7388187  
C   -5.0659635   -2.1758990   -5.3152941  
O   -4.9043396   -3.0241169   -6.3723739  
C   -6.3670286   -1.9175698   -4.8220266  
O   -7.3627229   -2.5871479   -5.5029093  
C   -6.5886805   -1.0696504   -3.7569305  
H   -6.0952349    0.8816080   -1.4427920  
H   -2.9763329   -1.7899000   -5.1314647  
H   -5.7886692   -3.3250681   -6.6186545  
H   -8.2090766   -2.3577378   -5.1071051  
H   -7.5966695   -0.8909694   -3.4012489  
H   -3.4455417    1.3392830   -1.2467128  
C    0.0000000    0.0000000    0.0000000  
C    1.0541688   -0.0001723   -0.8560392  
C    0.5103136   -0.0000455   -2.1935956  
C   -0.9576373    0.0002461   -2.0455730  
N   -1.2018460   -0.0001389   -0.6915968  
C   -1.8348314    0.0008319   -3.0810607  
C   -1.2972851    0.0009739   -4.4314603  
O   -2.0050676    0.0014268   -5.4301316  
C    0.2542619    0.0004184   -4.6117572  
O    0.7184666    0.0002257   -5.7439122  
C    1.0974551    0.0000873   -3.4189129  
H    2.0940752   -0.0005484   -0.5817983  
H    2.1707276   -0.0000912   -3.5523673  
H   -2.1128194    0.0014915   -0.2706789  
C    3.3041272   -0.0001177    3.0120429  
C    2.5845372    0.0004780    1.8395852  
C    1.2040006    0.0000008    2.1983588  
C    1.1422373   -0.0006037    3.6154372  
N    2.4348639   -0.0026109    4.0777464  
C   -0.0655181   -0.0008797    4.3197917  
C   -1.2321768   -0.0002324    3.5801400  
O   -2.4392816   -0.0001146    4.2172520  
C   -1.1911209    0.0000007    2.1655264  
O   -2.4371527    0.0002320    1.5732860  
C    0.0000000    0.0000000    1.4700000  
H    3.0031534    0.0000661    0.8477417  
H    2.7054629    0.0071099    5.0445261  
H   -0.1193549   -0.0014844    5.3997470  
H   -3.1132988    0.0000648    3.5251786  
H   -2.3200282    0.0004071    0.6183591  
H    4.3686625   -0.0004071    3.1724291  
