46
5B 10B 17A 31A 36B 13 16 29 45 43 7 4 2 2 7 2 1 2 0 nosym
C   -0.0307354   -0.0004645   -4.4215603  
C    1.0189059   -0.0016748   -5.3107842  
C    0.4547315   -0.0019272   -6.6208633  
C   -0.9553006   -0.0005398   -6.4668061  
N   -1.2160414   -0.0016283   -5.1189823  
C   -1.8348234   -0.0000669   -7.5536496  
C   -1.2808348   -0.0007048   -8.8190637  
O   -2.0937951    0.0000670   -9.9154712  
C    0.1236173   -0.0024642   -8.9932143  
O    0.5198538   -0.0033260  -10.3147050  
C    0.9918889   -0.0032049   -7.9214727  
H    2.0627981   -0.0034040   -5.0475745  
H   -2.1305285    0.0095155   -4.7047719  
H   -2.9104363    0.0008452   -7.4429318  
H   -1.5120539   -0.0008705  -10.6867311  
H    1.4814934   -0.0044777  -10.3438909  
H    2.0630632   -0.0047379   -8.0859766  
C    3.2573669   -0.0002919   -1.5109381  
C    2.5379467   -0.0001709   -0.3591962  
C    1.1435042    0.0000332   -0.7338501  
C    1.1092607   -0.0000081   -2.2088477  
N    2.4227561    0.0001910   -2.6182614  
C   -0.0265534   -0.0002522   -2.9515663  
C   -1.3003036   -0.0002639   -2.2514981  
O   -2.3786785   -0.0004131   -2.8306428  
C   -1.2877726    0.0000312   -0.6895608  
O   -2.3539957    0.0003306   -0.0892035  
C    0.0000000    0.0000000    0.0000000  
H    2.9384091   -0.0000368    0.6389238  
H    4.3270391   -0.0004764   -1.6439447  
H    2.7280492   -0.0013405   -3.5742114  
C    2.3971438    2.0127888    3.1728260  
C    1.9431056    1.6308205    1.9564670  
C    0.8496017    0.7127664    2.2356185  
C    0.7794028    0.6545384    3.7115134  
N    1.6840587    1.4146091    4.2663826  
C   -0.1885723   -0.1578550    4.3957118  
C   -1.0476298   -0.8789867    3.6398520  
O   -2.0015663   -1.6796266    4.1448486  
C   -1.0022026   -0.8410666    2.1483229  
O   -1.8147390   -1.5232959    1.5241687  
C    0.0000000    0.0000000    1.4700000  
H    2.3054237    1.9346118    0.9892483  
H   -0.2170646   -0.1815267    5.4753125  
H   -2.4487139   -2.0549881    3.3649027  
H    3.2048689    2.6911772    3.3971983  
