46
0A 4A 5B 31A 36B 16 12 13 45 43 2 1 7 2 7 3 0 2 0 nosym
C    5.7496317   -2.1277640   -4.7142976  
C    4.8676130   -1.6639754   -3.7659244  
C    3.9699051   -0.7769345   -4.4306642  
C    4.3563246   -0.7389409   -5.7949082  
N    5.4412136   -1.5688350   -5.9324215  
C    3.6896770    0.0363779   -6.7484547  
C    2.6131449    0.7867818   -6.3170027  
O    1.9262736    1.5614835   -7.2064178  
C    2.2125958    0.7623771   -4.9598803  
O    1.1232595    1.5638849   -4.6873456  
C    2.8699635   -0.0020528   -4.0185828  
H    4.8715184   -1.9311761   -2.7230527  
H    5.9267861   -1.7516624   -6.7919404  
H    3.9793186    0.0697919   -7.7897006  
H    1.2239009    1.9955697   -6.7049129  
H    0.9180877    1.4899365   -3.7503081  
H    6.5752159   -2.8119268   -4.6179090  
C    3.2573667   -0.0002919   -1.5109386  
C    2.5379468   -0.0001709   -0.3591965  
C    1.1435041    0.0000331   -0.7338500  
C    1.1092604   -0.0000084   -2.2088475  
N    2.4227558    0.0001908   -2.6182613  
C   -0.0265536   -0.0002526   -2.9515663  
C   -1.3003039   -0.0002641   -2.2514979  
O   -2.3786786   -0.0004135   -2.8306422  
C   -1.2877726    0.0000311   -0.6895607  
O   -2.3539957    0.0003306   -0.0892033  
C    0.0000000    0.0000000    0.0000000  
H    2.9384090   -0.0000368    0.6389236  
H   -0.0296296   -0.0004089   -4.0327231  
H    4.3270391   -0.0004765   -1.6439450  
C    2.3971438    2.0127888    3.1728260  
C    1.9431056    1.6308205    1.9564670  
C    0.8496017    0.7127664    2.2356185  
C    0.7794028    0.6545384    3.7115134  
N    1.6840587    1.4146091    4.2663826  
C   -0.1885723   -0.1578550    4.3957118  
C   -1.0476298   -0.8789867    3.6398520  
O   -2.0015663   -1.6796266    4.1448486  
C   -1.0022026   -0.8410666    2.1483229  
O   -1.8147390   -1.5232959    1.5241687  
C    0.0000000    0.0000000    1.4700000  
H    2.3054237    1.9346118    0.9892483  
H   -0.2170646   -0.1815267    5.4753125  
H   -2.4487139   -2.0549881    3.3649027  
H    3.2048689    2.6911772    3.3971983  
