46
1A 10B 17A 36B 41B 11 15 30 43 44 3 4 2 7 4 2 1 2 0 nosym
C    0.9407942   -0.7075078   -5.2230669  
C    0.6134859   -0.4569318   -6.5355261  
C   -0.4865817    0.4509911   -6.5242558  
C   -0.7892285    0.7213084   -5.1651162  
N    0.0950452    0.0004352   -4.4015596  
C   -1.8220582    1.5798545   -4.7765924  
C   -2.5626673    2.1766200   -5.7783645  
O   -3.5826122    3.0240229   -5.4548940  
C   -2.2762259    1.9191609   -7.1401587  
O   -3.1032304    2.5886541   -8.0183309  
C   -1.2576378    1.0720860   -7.5241746  
H    1.1062033   -0.8777279   -7.3952665  
H   -2.0578699    1.7899155   -3.7424411  
H   -3.9627899    3.3251531   -6.2903880  
H   -2.8428295    2.3598632   -8.9157994  
H   -1.0618888    0.8940603   -8.5751111  
H    1.7097008   -1.3363238   -4.8079381  
C    3.3321174    0.0004718   -1.3379334  
C    2.6974185    0.0000117   -2.5332310  
C    1.2800440   -0.0002117   -2.2052839  
C    1.2395036    0.0000644   -0.7271297  
N    2.4394063    0.0005460   -0.2131035  
C    0.0000000    0.0000000    0.0000000  
C   -1.1468700    0.0000635   -0.7169545  
O   -2.3742202    0.0000073   -0.1695490  
C   -1.1388767    0.0001607   -2.2096357  
O   -2.2206230    0.0000904   -2.7970414  
C    0.1454526    0.0001816   -2.9324241  
H    3.1367988   -0.0000648   -3.5160946  
H   -2.9844344    0.0001025   -0.9290171  
H    4.3940040    0.0007621   -1.1498634  
C    0.0000000    0.0000000    1.4700000  
C    1.0541688    0.0001722    2.3260392  
C    0.5103138    0.0000454    3.6635956  
C   -0.9576371   -0.0002459    3.5155732  
N   -1.2018458    0.0001392    2.1615969  
C   -1.8348311   -0.0008317    4.5510609  
C   -1.2972847   -0.0009736    5.9014604  
O   -2.0050672   -0.0014265    6.9001319  
C    0.2542623   -0.0004184    6.0817573  
O    0.7184670   -0.0002256    7.2139121  
C    1.0974552   -0.0000873    4.8889129  
H    2.0940752    0.0005483    2.0517982  
H   -2.9081052   -0.0011668    4.4207061  
H    2.1707277    0.0000911    5.0223670  
H   -2.1128194   -0.0014912    1.7406791  
