50
33A 34A 43B 17A 26B 49 44 48 27 31 2 3 4 3 4 3 0 2 0 nosym
C    3.3041272    0.0001176   -1.5420431  
C    2.5845372   -0.0004781   -0.3695853  
C    1.2040006   -0.0000009   -0.7283588  
C    1.1422374    0.0006035   -2.1454372  
N    2.4348639    0.0026108   -2.6077465  
C   -0.0655182    0.0008795   -2.8497919  
C   -1.2321769    0.0002322   -2.1101399  
O   -2.4392814    0.0001143   -2.7472520  
C   -1.1911210   -0.0000008   -0.6955264  
O   -2.4371527   -0.0002321   -0.1032861  
C    0.0000000    0.0000000    0.0000000  
H    3.0031535   -0.0000660    0.6222584  
H   -0.1193549    0.0014841   -3.9297469  
H   -3.1132989   -0.0000650   -2.0551785  
H   -2.3200281   -0.0004071    0.8516412  
H    4.3686623    0.0004070   -1.7024293  
C    3.8878171   -0.7221153   -4.5427235  
C    3.9719333   -0.4862754   -5.8954137  
C    2.9171610    0.4147682   -6.2273411  
C    2.2168609    0.6962702   -5.0263988  
N    2.8310664   -0.0116222   -4.0232753  
C    1.1122536    1.5520018   -4.9778752  
C    0.7074031    2.1344020   -6.1632377  
O   -0.3652174    2.9784454   -6.1726997  
C    1.3930195    1.8656299   -7.3717530  
O    0.8682191    2.5214010   -8.4662358  
C    2.4826538    1.0213222   -7.4204129  
H    4.7028564   -0.9122323   -6.5612256  
H    0.5741181    1.7705381   -4.0658149  
H   -0.4758797    3.2691033   -7.0873241  
H    1.3885186    2.2856096   -9.2403768  
H    2.9875790    0.8344052   -8.3609398  
H    4.4971336   -1.3420435   -3.9076006  
C    2.5285572    2.1210227    2.9438989  
C    1.9331703    1.6216660    4.0790748  
C    0.8903039    0.7472258    3.6520102  
C    0.8972198    0.7527806    2.2336141  
N    1.9028376    1.5986179    1.8362361  
C    0.0000000    0.0000000    1.4700000  
C   -0.9207814   -0.7726952    2.1506477  
O   -1.8198395   -1.5274828    1.4542253  
C   -0.9436862   -0.7911793    3.5655508  
O   -1.9197945   -1.6098497    4.0950179  
C   -0.0590329   -0.0485852    4.3195194  
H    2.2150357    1.8593692    5.0905303  
H    2.1533708    1.7953814    0.8841339  
H   -2.3621246   -1.9821033    2.1118817  
H   -1.8668290   -1.5649508    5.0545920  
H   -0.1007624   -0.0827977    5.4019087  
H    3.3491200    2.8096064    2.8367138  
