46
0A 4A 5B 27B 36B 41B 16 12 13 30 43 45 2 1 7 4 7 4 3 1 2 0 nosym
C    6.8742265    0.0003231   -4.0661422  
C    5.5942422    0.0007865   -3.5620504  
C    5.7067592    0.0007575   -2.1401011  
C    7.0913504    0.0005504   -1.8321526  
N    7.7720040   -0.0016616   -3.0243453  
C    7.5742853    0.0007717   -0.5200691  
C    6.6425079    0.0015172    0.4997194  
O    7.0593435    0.0021141    1.7994356  
C    5.2567325    0.0013590    0.2125911  
O    4.4562654    0.0017482    1.3362440  
C    4.7795901    0.0008674   -1.0815733  
H    4.6906031    0.0000007   -4.1472242  
H    8.7711565    0.0082505   -3.1221989  
H    8.6283021    0.0004717   -0.2787181  
H    6.2603298    0.0022789    2.3424296  
H    3.5363981    0.0016363    1.0543799  
H    7.2178047   -0.0001944   -5.0863935  
C    3.3321168    0.0004716   -1.3379341  
C    2.6974177    0.0000118   -2.5332316  
C    1.2800432   -0.0002116   -2.2052842  
C    1.2395033    0.0000644   -0.7271298  
N    2.4394059    0.0005460   -0.2131041  
C    0.0000000    0.0000000    0.0000000  
C   -1.1468704    0.0000635   -0.7169542  
O   -2.3742206    0.0000074   -0.1695488  
C   -1.1388774    0.0001608   -2.2096352  
O   -2.2206238    0.0000906   -2.7970409  
C    0.1454514    0.0001818   -2.9324241  
H    3.1367978   -0.0000649   -3.5160956  
H   -2.9844350    0.0001027   -0.9290164  
H    0.1083567    0.0003684   -4.0135594  
C    0.0000000    0.0000000    1.4700000  
C    1.0662921    0.0000102    2.3034270  
C    0.4961870   -0.0000064    3.6418889  
C   -0.9663858    0.0000850    3.4240247  
N   -1.2632773    0.0000084    2.1528658  
C   -1.8985362    0.0000517    4.5177257  
C   -1.3925775   -0.0004564    5.7720543  
O   -2.1456383   -0.0005410    6.8851312  
C    0.0786232   -0.0009323    6.0245000  
O    0.4683759   -0.0012588    7.1921102  
C    1.0143166   -0.0008442    4.8859032  
H    2.1107198   -0.0000632    2.0421868  
H   -2.9622183    0.0003270    4.3293377  
H   -1.5042274   -0.0009692    7.6184419  
H    2.0724152   -0.0013148    5.1109744  
