50
1A 10B 38B 43B 11 15 46 49 3 4 7 4 2 0 2 0 nosym
C    0.1177584   -0.7041719   -5.1422752  
C    0.3059610   -0.4523677   -6.4815446  
C   -0.7176658    0.4566408   -6.8821586  
C   -1.5071139    0.7263239   -5.7350014  
N   -0.9736297    0.0040464   -4.6965763  
C   -2.6097128    1.5856292   -5.7606857  
C   -2.9208566    2.1838199   -6.9663120  
O   -3.9871531    3.0320142   -7.0475013  
C   -2.1454321    1.9270133   -8.1219869  
O   -2.5829249    2.5979327   -9.2452902  
C   -1.0577190    1.0791902   -8.0974447  
H    1.0845190   -0.8730618   -7.0946165  
H   -3.2155193    1.7952128   -4.8898961  
H   -4.0265652    3.3340972   -7.9642659  
H   -2.0055192    2.3695006   -9.9801547  
H   -0.4827518    0.9016931   -8.9987691  
H    0.6748209   -1.3340378   -4.4700334  
C    1.1188642    0.0008222   -0.8003808  
C    0.0000000    0.0000000    0.0000000  
C   -1.1323862    0.0008899   -0.8673528  
C   -0.6382663    0.0019679   -2.1969280  
N    0.7324016    0.0038481   -2.1202242  
C   -1.4770914    0.0027318   -3.3154808  
C   -2.8395473    0.0020945   -3.0876857  
O   -3.7039201    0.0024425   -4.1440349  
C   -3.3517868    0.0013931   -1.7684331  
O   -4.7300497    0.0012366   -1.7073121  
C   -2.5248543    0.0009123   -0.6644817  
H    1.3576314   -0.0056167   -2.9057046  
H   -4.5940032    0.0021826   -3.7685128  
H   -4.9934602    0.0007259   -0.7819913  
H   -2.9462577    0.0005603    0.3339659  
H    2.1619895    0.0009355   -0.5342068  
C    0.0000000    0.0000000    1.4700000  
C    1.0521667    0.0011902    2.3562342  
C    0.4917218    0.0011957    3.6679131  
C   -0.9187428   -0.0003148    3.5178682  
N   -1.1833171    0.0009411    2.1707914  
C   -1.7951701   -0.0010350    4.6072090  
C   -1.2375837   -0.0005224    5.8710424  
O   -2.0474215   -0.0015360    6.9697579  
C    0.1673580    0.0013566    6.0411963  
O    0.5673524    0.0020687    7.3615553  
C    1.0325770    0.0023412    4.9669890  
H    2.0953057    0.0030649    2.0900562  
H   -2.0989778   -0.0102372    1.7591824  
H   -2.8710934   -0.0020419    4.4995513  
H   -1.4634884   -0.0006497    7.7393593  
H    1.5290710    0.0033153    7.3880045  
H    2.1042148    0.0039609    5.1284455  
