48
4A 5B 33A 38B 11 12 47 45 1 7 2 7 2 0 2 0 nosym
C    2.8170674   -0.7299976   -3.3539683  
C    1.6478435   -0.0100098   -3.2702997  
C    1.5099598    0.7041928   -4.4972889  
C    2.6345493    0.3775761   -5.2976300  
N    3.4089709   -0.4938077   -4.5726616  
C    2.8289258    0.9022210   -6.5789398  
C    1.8704230    1.7721993   -7.0612132  
O    2.0105459    2.3133922   -8.3063999  
C    0.7415952    2.1105566   -6.2775814  
O   -0.1223396    2.9894084   -6.8977268  
C    0.5493288    1.5935720   -5.0133478  
H    4.2679756   -0.9069777   -4.8879119  
H    3.6839521    0.6573667   -7.1939026  
H    1.2432613    2.8840009   -8.4440388  
H   -0.8566635    3.1656155   -6.3016368  
H   -0.3251170    1.8712826   -4.4365471  
H    3.2763587   -1.3922068   -2.6401832  
C    1.1188643    0.0008224   -0.8003807  
C    0.0000000    0.0000000    0.0000000  
C   -1.1323862    0.0008899   -0.8673529  
C   -0.6382661    0.0019679   -2.1969281  
N    0.7324016    0.0038482   -2.1202240  
C   -1.4770912    0.0027317   -3.3154808  
C   -2.8395475    0.0020941   -3.0876858  
O   -3.7039199    0.0024422   -4.1440350  
C   -3.3517869    0.0013928   -1.7684331  
O   -4.7300495    0.0012361   -1.7073122  
C   -2.5248543    0.0009121   -0.6644817  
H   -1.1067569    0.0036986   -4.3313813  
H   -4.5940034    0.0021826   -3.7685132  
H   -4.9934601    0.0007256   -0.7819917  
H   -2.9462578    0.0005600    0.3339658  
H    2.1619896    0.0009355   -0.5342066  
C    2.3971438    2.0127888    3.1728260  
C    1.9431056    1.6308205    1.9564670  
C    0.8496017    0.7127664    2.2356185  
C    0.7794028    0.6545384    3.7115134  
N    1.6840587    1.4146091    4.2663826  
C   -0.1885723   -0.1578550    4.3957118  
C   -1.0476298   -0.8789867    3.6398520  
O   -2.0015663   -1.6796266    4.1448486  
C   -1.0022026   -0.8410666    2.1483229  
O   -1.8147390   -1.5232959    1.5241687  
C    0.0000000    0.0000000    1.4700000  
H    2.3054237    1.9346118    0.9892483  
H   -0.2170646   -0.1815267    5.4753125  
H   -2.4487139   -2.0549881    3.3649027  
H    3.2048689    2.6911772    3.3971983  
