46
1A 10B 17A 36B 11 15 29 42 3 4 2 7 2 1 1 0 nosym
C    0.8852641   -0.7074226   -5.2161084  
C    0.5993468   -0.4569339   -6.5382184  
C   -0.5006920    0.4507934   -6.5615731  
C   -0.8459783    0.7210872   -5.2126307  
N    0.0139740    0.0003882   -4.4216236  
C   -1.8906672    1.5794580   -4.8568025  
C   -2.5995126    2.1760696   -5.8813859  
O   -3.6292754    3.0232981   -5.5901735  
C   -2.2703427    1.9186313   -7.2334917  
O   -3.0694405    2.5879579   -8.1372552  
C   -1.2400320    1.0717291   -7.5852622  
H    1.1189315   -0.8776614   -7.3820273  
H   -2.1589207    1.7895000   -3.8305842  
H   -3.9830443    3.3243422   -6.4372181  
H   -2.7809050    2.3591935   -9.0260846  
H   -1.0112991    0.8937149   -8.6295182  
H    1.6408470   -1.3360925   -4.7769874  
C    3.2798084    0.0005857   -1.4499648  
C    2.5571144    0.0005567   -2.5996554  
C    1.1637435    0.0001550   -2.2210360  
C    1.1336965   -0.0000199   -0.7459471  
N    2.4483512   -0.0001427   -0.3402718  
C    0.0000000    0.0000000    0.0000000  
C   -1.2757368   -0.0000186   -0.6964414  
O   -2.3524597   -0.0000639   -0.1142313  
C   -1.2676495   -0.0000872   -2.2584081  
O   -2.3355764   -0.0004099   -2.8557294  
C    0.0181561    0.0001761   -2.9516296  
H    2.9547355    0.0006077   -3.5989105  
H    4.3498548    0.0008614   -1.3200022  
H    2.7563628    0.0012824    0.6148063  
C    0.8175213    0.6860729    2.3021913  
C    0.0000000    0.0000000    1.4700000  
C   -0.8887526   -0.7456559    2.3478473  
C   -0.4549825   -0.3816753    3.7138435  
N    0.5448156    0.4573574    3.6934124  
C   -1.0945674   -0.9182058    4.8835240  
C   -2.1210866   -1.7789155    4.6970523  
O   -2.8083856   -2.3554314    5.6976972  
C   -2.5824069   -2.1655116    3.3310774  
O   -3.5227682   -2.9541547    3.2362962  
C   -1.9100805   -1.6015804    2.1470656  
H   -0.7567140   -0.6349833    5.8697035  
H   -3.4728268   -2.9124471    5.2533954  
H   -2.2742832   -1.9066565    1.1752040  
H    1.6189533    1.3585343    2.0405121  
