50
5B 10B 33A 34A 43B 13 16 49 44 48 7 4 2 3 4 2 0 3 0 nosym
C    2.8310667   -0.0116222   -4.0232749  
C    4.0831549   -0.0141183   -4.5931314  
C    3.8969860   -0.0306989   -6.0072271  
C    2.4982829   -0.0374878   -6.2428327  
N    1.8804354   -0.0275301   -5.0169529  
C    1.9478994   -0.0533747   -7.5279844  
C    2.8254842   -0.0622689   -8.5947294  
O    2.3417506   -0.0774927   -9.8709670  
C    4.2242897   -0.0560813   -8.3799701  
O    4.9653516   -0.0668118   -9.5436094  
C    4.7679602   -0.0406828   -7.1124096  
H    5.0159476   -0.0062033   -4.0557038  
H    0.8876839   -0.0186983   -4.8674623  
H    0.8827811   -0.0587645   -7.7142538  
H    3.1115001   -0.0817931  -10.4546901  
H    5.8986059   -0.0616650   -9.3099137  
H    5.8434540   -0.0364562   -6.9790934  
C    3.3041272    0.0001176   -1.5420430  
C    2.5845372   -0.0004781   -0.3695853  
C    1.2040007   -0.0000009   -0.7283590  
C    1.1422375    0.0006035   -2.1454373  
N    2.4348640    0.0026108   -2.6077464  
C   -0.0655179    0.0008795   -2.8497920  
C   -1.2321766    0.0002322   -2.1101401  
O   -2.4392816    0.0001144   -2.7472523  
C   -1.1911210   -0.0000008   -0.6955265  
O   -2.4371530   -0.0002321   -0.1032862  
C    0.0000000    0.0000000    0.0000000  
H    3.0031534   -0.0000660    0.6222580  
H   -0.1193548    0.0014841   -3.9297472  
H   -3.1132988   -0.0000650   -2.0551788  
H   -2.3200280   -0.0004071    0.8516408  
H    4.3686626    0.0004070   -1.7024289  
C    2.5285572    2.1210227    2.9438989  
C    1.9331703    1.6216660    4.0790748  
C    0.8903039    0.7472258    3.6520102  
C    0.8972198    0.7527806    2.2336141  
N    1.9028376    1.5986179    1.8362361  
C    0.0000000    0.0000000    1.4700000  
C   -0.9207814   -0.7726952    2.1506477  
O   -1.8198395   -1.5274828    1.4542253  
C   -0.9436862   -0.7911793    3.5655508  
O   -1.9197945   -1.6098497    4.0950179  
C   -0.0590329   -0.0485852    4.3195194  
H    2.2150357    1.8593692    5.0905303  
H    2.1533708    1.7953814    0.8841339  
H   -2.3621246   -1.9821033    2.1118817  
H   -1.8668290   -1.5649508    5.0545920  
H   -0.1007624   -0.0827977    5.4019087  
H    3.3491200    2.8096064    2.8367138  
