46
0A 1A 10B 17A 36B 41B 16 11 15 30 43 45 2 3 4 2 7 4 3 1 2 0 nosym
C    2.1798966   -2.1221802   -5.9542194  
C    1.5460050   -1.6229248   -7.0683974  
C    0.5185212   -0.7482579   -6.6059743  
C    0.5740702   -0.7535762   -5.1886487  
N    1.5926023   -1.5994968   -4.8258419  
C   -0.2963293   -0.0005341   -4.3948471  
C   -1.2397987    0.7721841   -5.0436536  
O   -2.1143391    1.5272219   -4.3169415  
C   -1.3112055    0.7904346   -6.4569424  
O   -2.3047781    1.6091613   -6.9527674  
C   -0.4530328    0.0475826   -7.2406751  
H    1.7929872   -1.8608395   -8.0888824  
H    1.8756082   -1.7961380   -3.8828567  
H   -2.6787918    1.9818131   -4.9556939  
H   -2.2847549    1.5640940   -7.9135858  
H   -0.5318489    0.0816200   -8.3210023  
H    3.0035530   -2.8108674   -5.8751160  
C    3.1301146   -0.0010313   -1.7028256  
C    2.5367765   -0.0002766   -0.4864669  
C    1.1089901    0.0001027   -0.7656184  
C    1.0177865   -0.0004150   -2.2415133  
N    2.1993571   -0.0011612   -2.7963824  
C   -0.2459219   -0.0002879   -2.9257116  
C   -1.3675326   -0.0000606   -2.1698520  
O   -2.6129318    0.0000865   -2.6748483  
C   -1.3083588    0.0000910   -0.6783229  
O   -2.3693264    0.0004206   -0.0541685  
C    0.0000000    0.0000000    0.0000000  
H    3.0096016   -0.0001007    0.4807518  
H   -3.1967444    0.0002093   -1.8949026  
H    4.1849275   -0.0015114   -1.9271979  
C    0.0000000    0.0000000    1.4700000  
C    1.0662921    0.0000102    2.3034270  
C    0.4961870   -0.0000064    3.6418889  
C   -0.9663858    0.0000850    3.4240247  
N   -1.2632773    0.0000084    2.1528658  
C   -1.8985362    0.0000517    4.5177257  
C   -1.3925775   -0.0004564    5.7720543  
O   -2.1456383   -0.0005410    6.8851312  
C    0.0786232   -0.0009323    6.0245000  
O    0.4683759   -0.0012588    7.1921102  
C    1.0143166   -0.0008442    4.8859032  
H    2.1107198   -0.0000632    2.0421868  
H   -2.9622183    0.0003270    4.3293377  
H   -1.5042274   -0.0009692    7.6184419  
H    2.0724152   -0.0013148    5.1109744  
