46
4A 5B 27B 36B 41B 11 12 30 43 44 1 7 4 7 4 2 1 2 0 nosym
C   -3.9846528    0.7173436   -1.8067791  
C   -3.3460097   -0.0004262   -2.7913647  
C   -4.3511560   -0.7286178   -3.4942283  
C   -5.5942657   -0.4124284   -2.8887287  
N   -5.3355280    0.4664777   -1.8663804  
C   -6.8075834   -0.9520447   -3.3262939  
C   -6.7652524   -1.8265515   -4.3947614  
O   -7.9207778   -2.3822414   -4.8627194  
C   -5.5346845   -2.1546697   -5.0118986  
O   -5.6585302   -3.0397397   -6.0629247  
C   -4.3373005   -1.6229124   -4.5805841  
H   -6.0265585    0.8750934   -1.2634786  
H   -7.7583636   -0.7151928   -2.8689973  
H   -7.6698751   -2.9536130   -5.6001791  
H   -4.7826146   -3.2082912   -6.4234333  
H   -3.4104548   -1.8930396   -5.0729932  
H   -3.5832773    1.3872842   -1.0658095  
C    0.0000000    0.0000000    0.0000000  
C    1.0662919   -0.0000103   -0.8334272  
C    0.4961868    0.0000066   -2.1718889  
C   -0.9663860   -0.0000849   -1.9540248  
N   -1.2632775   -0.0000084   -0.6828659  
C   -1.8985364   -0.0000515   -3.0477258  
C   -1.3925778    0.0004567   -4.3020543  
O   -2.1456385    0.0005412   -5.4151314  
C    0.0786229    0.0009326   -4.5544999  
O    0.4683756    0.0012594   -5.7221104  
C    1.0143162    0.0008443   -3.4159034  
H    2.1107195    0.0000631   -0.5721869  
H   -1.5042277    0.0009692   -6.1484420  
H    2.0724151    0.0013151   -3.6409746  
C    0.0000000    0.0000000    1.4700000  
C    1.0541688    0.0001722    2.3260392  
C    0.5103138    0.0000454    3.6635956  
C   -0.9576371   -0.0002459    3.5155732  
N   -1.2018458    0.0001392    2.1615969  
C   -1.8348311   -0.0008317    4.5510609  
C   -1.2972847   -0.0009736    5.9014604  
O   -2.0050672   -0.0014265    6.9001319  
C    0.2542623   -0.0004184    6.0817573  
O    0.7184670   -0.0002256    7.2139121  
C    1.0974552   -0.0000873    4.8889129  
H    2.0940752    0.0005483    2.0517982  
H   -2.9081052   -0.0011668    4.4207061  
H    2.1707277    0.0000911    5.0223670  
H   -2.1128194   -0.0014912    1.7406791  
