46
4A 5B 17A 32A 41B 11 12 30 42 44 1 7 2 3 4 2 1 2 0 nosym
C    0.9257301   -0.7167803   -5.2310367  
C    0.0950452    0.0004352   -4.4015596  
C   -0.8020936    0.7279284   -5.2385158  
C   -0.4682541    0.4119037   -6.5803821  
N    0.5861910   -0.4662359   -6.5399635  
C   -1.1490748    0.9509634   -7.6761409  
C   -2.1859873    1.8247342   -7.4124830  
O   -2.8845233    2.3798580   -8.4453911  
C   -2.5338276    2.1526767   -6.0804633  
O   -3.5882621    3.0369881   -5.9829751  
C   -1.8624417    1.6214686   -4.9989898  
H    1.0324211   -0.8745743   -7.3412873  
H   -0.8994312    0.7142335   -8.7012447  
H   -3.5540566    2.9507673   -8.0465776  
H   -3.7587624    3.2054698   -5.0512309  
H   -2.1514330    1.8914441   -3.9899927  
H    1.7344794   -1.3861210   -4.9925702  
C    3.3321174    0.0004718   -1.3379334  
C    2.6974185    0.0000117   -2.5332310  
C    1.2800440   -0.0002117   -2.2052839  
C    1.2395036    0.0000644   -0.7271297  
N    2.4394063    0.0005460   -0.2131035  
C    0.0000000    0.0000000    0.0000000  
C   -1.1468700    0.0000635   -0.7169545  
O   -2.3742202    0.0000073   -0.1695490  
C   -1.1388767    0.0001607   -2.2096357  
O   -2.2206230    0.0000904   -2.7970414  
C    0.1454526    0.0001816   -2.9324241  
H    3.1367988   -0.0000648   -3.5160946  
H   -2.9844344    0.0001025   -0.9290171  
H    4.3940040    0.0007621   -1.1498634  
C    0.8681109    0.7263879    2.2709268  
C    0.6127770    0.5096195    3.5869401  
C   -0.4920590   -0.4175482    3.6542670  
C   -0.8620974   -0.7254003    2.2596025  
N    0.0000000    0.0000000    1.4700000  
C   -1.8641242   -1.5660088    1.8976294  
C   -2.6293522   -2.2103885    2.9520183  
O   -3.5512764   -2.9839180    2.7283916  
C   -2.2549728   -1.8987399    4.4361073  
O   -2.8923672   -2.4351063    5.3323774  
C   -1.1543735   -0.9755647    4.7012123  
H    1.1382914    0.9492124    4.4159191  
H   -2.1192137   -1.7782617    0.8686553  
H   -0.9013378   -0.7652422    5.7314848  
H    1.6172880    1.3558399    1.8188057  
