46
4A 5B 17A 31A 35A 36B 11 12 29 44 45 43 1 7 2 2 1 7 2 1 3 0 nosym
C    0.8250154   -0.7186619   -5.2242751  
C   -0.0307352   -0.0004646   -4.4215603  
C   -0.9004936    0.7274898   -5.2865476  
C   -0.5248891    0.4107217   -6.6171509  
N    0.5270189   -0.4682862   -6.5433121  
C   -1.1704575    0.9499720   -7.7339499  
C   -2.2144074    1.8247015   -7.5033098  
O   -2.8796454    2.3800526   -8.5578515  
C   -2.6036860    2.1533957   -6.1829924  
O   -3.6599148    3.0386230   -6.1189942  
C   -1.9670919    1.6219999   -5.0807708  
H    0.9978815   -0.8772750   -7.3300763  
H   -0.8889013    0.7126787   -8.7506213  
H   -3.5609048    2.9516599   -8.1804728  
H   -3.8594888    3.2075696   -5.1931265  
H   -2.2874418    1.8925663   -4.0814470  
H    1.6252982   -1.3885969   -4.9602796  
C    3.2573670   -0.0002920   -1.5109380  
C    2.5379468   -0.0001709   -0.3591961  
C    1.1435043    0.0000332   -0.7338500  
C    1.1092609   -0.0000082   -2.2088477  
N    2.4227562    0.0001909   -2.6182613  
C   -0.0265532   -0.0002522   -2.9515663  
C   -1.3003035   -0.0002639   -2.2514981  
O   -2.3786784   -0.0004131   -2.8306429  
C   -1.2877725    0.0000312   -0.6895608  
O   -2.3539958    0.0003307   -0.0892036  
C    0.0000000    0.0000000    0.0000000  
H    2.9384091   -0.0000369    0.6389239  
H    4.3270394   -0.0004765   -1.6439446  
H    2.7280494   -0.0013406   -3.5742113  
C    2.4951002    2.0940188    2.9809380  
C    1.9440701    1.6314916    1.8291961  
C    0.8759964    0.7350050    2.2038498  
C    0.8497377    0.7130254    3.6788474  
N    1.8560616    1.5571714    4.0882609  
C   -0.0205033   -0.0168748    4.4215661  
C   -0.9962600   -0.8356168    3.7214979  
O   -1.8224391   -1.5286685    4.3006425  
C   -0.9864710   -0.8277881    2.1595606  
O   -1.8030528   -1.5133726    1.5592035  
C    0.0000000    0.0000000    1.4700000  
H    2.2509283    1.8888011    0.8310761  
H   -0.0229599   -0.0187323    5.5027230  
H    3.3143982    2.7817323    3.1139444  
H    2.0889452    1.7545833    5.0442112  
