48
5B 10B 38B 43B 13 16 45 47 7 4 7 4 2 0 2 0 nosym
C   -1.2456305    0.0472573   -4.5828764  
C    0.0064701    0.0513568   -5.1526962  
C   -0.1796822    0.0650600   -6.5668248  
C   -1.5783872    0.0690962   -6.8024816  
N   -2.1962608    0.0560943   -5.5766434  
C   -2.1287558    0.0823423   -8.0876696  
C   -1.2511526    0.0919910   -9.1543918  
O   -1.7348694    0.1054325  -10.4306567  
C    0.1476542    0.0877880   -8.9395912  
O    0.8887339    0.0981984  -10.1032211  
C    0.6913085    0.0744488   -7.6719996  
H    0.9392556    0.0441199   -4.6152466  
H   -3.1889751    0.0660008   -5.4269732  
H   -3.1938762    0.0853389   -8.2739810  
H   -0.9651098    0.1100554  -11.0143641  
H    1.8219876    0.0945268   -9.8694951  
H    1.7668026    0.0713498   -7.5386544  
C    1.1243415    0.0099154   -0.7919005  
C    0.7474088    0.0234032   -2.1148544  
C   -0.6787370    0.0234950   -2.1414699  
C   -1.1201740    0.0099356   -0.7935545  
N    0.0000000    0.0000000    0.0000000  
C   -2.4730813    0.0065397   -0.4408236  
C   -3.3971949    0.0173298   -1.4675052  
O   -4.7313510    0.0149489   -1.1793464  
C   -2.9763633    0.0305535   -2.8186320  
O   -4.0166457    0.0397857   -3.7247617  
C   -1.6418545    0.0336378   -3.1673479  
H    1.4178731    0.0310000   -2.9571212  
H   -2.8160169   -0.0039188    0.5845970  
H   -5.1938804    0.0234411   -2.0274375  
H   -3.6464653    0.0484778   -4.6127338  
H    2.1062467    0.0051380   -0.3505411  
C    0.0000000    0.0000000    1.4700000  
C    1.0662921    0.0000102    2.3034270  
C    0.4961870   -0.0000064    3.6418889  
C   -0.9663858    0.0000850    3.4240247  
N   -1.2632773    0.0000084    2.1528658  
C   -1.8985362    0.0000517    4.5177257  
C   -1.3925775   -0.0004564    5.7720543  
O   -2.1456383   -0.0005410    6.8851312  
C    0.0786232   -0.0009323    6.0245000  
O    0.4683759   -0.0012588    7.1921102  
C    1.0143166   -0.0008442    4.8859032  
H    2.1107198   -0.0000632    2.0421868  
H   -2.9622183    0.0003270    4.3293377  
H   -1.5042274   -0.0009692    7.6184419  
H    2.0724152   -0.0013148    5.1109744  
