48
5B 10B 17A 38B 13 16 32 44 7 4 2 7 2 1 1 0 nosym
C   -0.1387078    0.0017019   -4.3179684  
C    0.8680293    0.0011953   -5.2554904  
C    0.2429721    0.0018231   -6.5376379  
C   -1.1582728    0.0029977   -6.3175531  
N   -1.3554490    0.0009412   -4.9589749  
C   -2.0878504    0.0041704   -7.3619062  
C   -1.5938807    0.0044642   -8.6519335  
O   -2.4574181    0.0059475   -9.7089639  
C   -0.1991530    0.0029313   -8.8918278  
O    0.1346059    0.0030290  -10.2304649  
C    0.7184769    0.0015007   -7.8620318  
H    1.9231275   -0.0006419   -5.0415804  
H   -2.2494821    0.0117257   -4.5022806  
H   -3.1570794    0.0049249   -7.2008116  
H   -1.9125271    0.0055958  -10.5066850  
H    1.0938150    0.0019691  -10.3047650  
H    1.7807470    0.0001627   -8.0766453  
C    3.3041272    0.0001178   -1.5420428  
C    2.5845372   -0.0004779   -0.3695851  
C    1.2040007   -0.0000007   -0.7283589  
C    1.1422375    0.0006038   -2.1454371  
N    2.4348641    0.0026111   -2.6077464  
C   -0.0655179    0.0008799   -2.8497918  
C   -1.2321766    0.0002325   -2.1101402  
O   -2.4392816    0.0001148   -2.7472523  
C   -1.1911209   -0.0000007   -0.6955266  
O   -2.4371527   -0.0002320   -0.1032863  
C    0.0000000    0.0000000    0.0000000  
H    3.0031533   -0.0000660    0.6222584  
H    2.7054632   -0.0071097   -3.5745261  
H   -3.1132986   -0.0000648   -2.0551788  
H   -2.3200284   -0.0004071    0.8516409  
H    4.3686626    0.0004072   -1.7024289  
C    0.8175213    0.6860729    2.3021913  
C    0.0000000    0.0000000    1.4700000  
C   -0.8887526   -0.7456559    2.3478473  
C   -0.4549825   -0.3816753    3.7138435  
N    0.5448156    0.4573574    3.6934124  
C   -1.0945674   -0.9182058    4.8835240  
C   -2.1210866   -1.7789155    4.6970523  
O   -2.8083856   -2.3554314    5.6976972  
C   -2.5824069   -2.1655116    3.3310774  
O   -3.5227682   -2.9541547    3.2362962  
C   -1.9100805   -1.6015804    2.1470656  
H   -0.7567140   -0.6349833    5.8697035  
H   -3.4728268   -2.9124471    5.2533954  
H   -2.2742832   -1.9066565    1.1752040  
H    1.6189533    1.3585343    2.0405121  
