46
0A 1A 10B 22B 32A 41B 16 11 15 29 42 44 2 3 4 7 3 4 3 1 2 0 nosym
C    4.3307339   -2.1193154   -1.2711418  
C    5.3837983   -1.6206410   -2.0024735  
C    4.8313684   -0.7469983   -2.9854129  
C    3.4246650   -0.7523137   -2.8035251  
N    3.1543582   -1.5972489   -1.7558436  
C    2.5562217   -0.0001540   -3.6003003  
C    3.1180970    0.7716628   -4.5986852  
O    2.3161051    1.5258166   -5.4055771  
C    4.5193622    0.7898947   -4.7960196  
O    4.9243875    1.6076656   -5.8306928  
C    5.3766838    0.0479127   -4.0105334  
H    6.4222899   -1.8582764   -1.8473674  
H    2.2404344   -1.7936469   -1.3895761  
H    2.9018489    1.9798778   -6.0252525  
H    5.8831614    1.5626528   -5.8964989  
H    6.4456538    0.0819122   -4.1855320  
H    4.3255773   -2.8071981   -0.4430423  
C    0.0000000    0.0000000    0.0000000  
C    1.0541688   -0.0001718   -0.8560391  
C    0.5103141   -0.0000448   -2.1935955  
C   -0.9576367    0.0002462   -2.0455732  
N   -1.2018459   -0.0001391   -0.6915971  
C   -1.8348307    0.0008319   -3.0810611  
C   -1.2972843    0.0009743   -4.4314607  
O   -2.0050666    0.0014272   -5.4301322  
C    0.2542627    0.0004194   -4.6117573  
O    0.7184676    0.0002268   -5.7439121  
C    1.0974555    0.0000882   -3.4189128  
H    2.0940752   -0.0005478   -0.5817980  
H   -2.9081051    0.0011669   -2.9507063  
H   -2.1128195    0.0014909   -0.2706793  
C    1.1319247   -0.0015655    2.2709268  
C    0.7969915   -0.0034943    3.5869401  
C   -0.6453339   -0.0035710    3.6542670  
C   -1.1266833   -0.0015433    2.2596025  
N    0.0000000    0.0000000    1.4700000  
C   -2.4346130   -0.0013964    1.8976294  
C   -3.4350110   -0.0031408    2.9520183  
O   -4.6384611   -0.0030974    2.7283916  
C   -2.9478959   -0.0050506    4.4361073  
O   -3.7809380   -0.0062218    5.3323774  
C   -1.5113823   -0.0053090    4.7012123  
H    1.4821238   -0.0045407    4.4159191  
H   -2.7664565   -0.0000232    0.8686553  
H   -1.1823530   -0.0068408    5.7314848  
H    2.1104316   -0.0009391    1.8188057  
