46
1A 10B 31A 32A 41B 11 15 44 42 43 3 4 2 3 4 2 0 3 0 nosym
C    3.9420067   -0.7120701   -4.5063815  
C    4.0760568   -0.4635061   -5.8527519  
C    3.0376219    0.4452895   -6.2137833  
C    2.2953676    0.7181881   -5.0362809  
N    2.8699635   -0.0020528   -4.0185828  
C    1.1931549    1.5782059   -5.0193800  
C    0.8338811    2.1738164   -6.2128408  
O   -0.2343100    3.0225690   -6.2528411  
C    1.5617868    1.9137842   -7.3983165  
O    1.0796407    2.5824028   -8.5045842  
C    2.6490869    1.0652563   -7.4157840  
H    4.8289333   -0.8861686   -6.4958128  
H    0.6231804    1.7902352   -4.1253027  
H   -0.3105739    3.3225516   -7.1679692  
H    1.6267216    2.3518606   -9.2616551  
H    3.1870320    0.8852644   -8.3392000  
H    4.5254118   -1.3407657   -3.8557364  
C    3.2573667   -0.0002919   -1.5109386  
C    2.5379468   -0.0001709   -0.3591965  
C    1.1435041    0.0000331   -0.7338500  
C    1.1092604   -0.0000084   -2.2088475  
N    2.4227558    0.0001908   -2.6182613  
C   -0.0265536   -0.0002526   -2.9515663  
C   -1.3003039   -0.0002641   -2.2514979  
O   -2.3786786   -0.0004135   -2.8306422  
C   -1.2877726    0.0000311   -0.6895607  
O   -2.3539957    0.0003306   -0.0892033  
C    0.0000000    0.0000000    0.0000000  
H    2.9384090   -0.0000368    0.6389236  
H   -0.0296296   -0.0004089   -4.0327231  
H    4.3270391   -0.0004765   -1.6439450  
C    2.5128556    2.1077716    2.9199648  
C    1.9592212    1.6432552    4.0696553  
C    0.8915788    0.7479214    3.6910360  
C    0.8684491    0.7287414    2.2159470  
N    1.8754542    1.5738793    1.8102719  
C    0.0000000    0.0000000    1.4700000  
C   -0.9772830   -0.8200135    2.1664417  
O   -1.8021297   -1.5120829    1.5842315  
C   -0.9711318   -0.8147624    3.7284083  
O   -1.7894187   -1.5009653    4.3257297  
C    0.0140216    0.0115358    4.4216297  
H    2.2638494    1.8988021    5.0689105  
H    0.0117648    0.0094386    5.5031631  
H    3.3327358    2.7953732    2.7900019  
H    2.1123206    1.7707734    0.8551938  
