46
0A 4A 5B 17A 32A 41B 16 12 13 29 42 44 2 1 7 2 3 4 3 1 2 0 nosym
C    2.4963630   -2.1240789   -5.9704919  
C    1.9480121   -1.6619031   -4.7965362  
C    0.8896199   -0.7743521   -5.1524286  
C    0.8386579   -0.7343998   -6.5693736  
N    1.8289599   -1.5636685   -7.0343824  
C   -0.0884729    0.0419047   -7.2712053  
C   -0.9806035    0.7912986   -6.5291208  
O   -1.9072977    1.5668932   -7.1637113  
C   -0.9452746    0.7649387   -5.1145986  
O   -1.8983674    1.5656411   -4.5197596  
C   -0.0307352   -0.0004646   -4.4215603  
H    2.2718153   -1.9304785   -3.8055714  
H    2.0272776   -1.7451627   -8.0017035  
H   -0.1324031    0.0768116   -8.3510448  
H   -2.4218328    2.0000300   -6.4702339  
H   -1.8060302    1.4903719   -3.5650808  
H    3.3116712   -2.8080312   -6.1330998  
C    3.2573670   -0.0002920   -1.5109380  
C    2.5379468   -0.0001709   -0.3591961  
C    1.1435043    0.0000332   -0.7338500  
C    1.1092609   -0.0000082   -2.2088477  
N    2.4227562    0.0001909   -2.6182613  
C   -0.0265532   -0.0002522   -2.9515663  
C   -1.3003035   -0.0002639   -2.2514981  
O   -2.3786784   -0.0004131   -2.8306429  
C   -1.2877725    0.0000312   -0.6895608  
O   -2.3539958    0.0003307   -0.0892036  
C    0.0000000    0.0000000    0.0000000  
H    2.9384091   -0.0000369    0.6389239  
H    4.3270394   -0.0004765   -1.6439446  
H    2.7280494   -0.0013406   -3.5742113  
C    0.8681109    0.7263879    2.2709268  
C    0.6127770    0.5096195    3.5869401  
C   -0.4920590   -0.4175482    3.6542670  
C   -0.8620974   -0.7254003    2.2596025  
N    0.0000000    0.0000000    1.4700000  
C   -1.8641242   -1.5660088    1.8976294  
C   -2.6293522   -2.2103885    2.9520183  
O   -3.5512764   -2.9839180    2.7283916  
C   -2.2549728   -1.8987399    4.4361073  
O   -2.8923672   -2.4351063    5.3323774  
C   -1.1543735   -0.9755647    4.7012123  
H    1.1382914    0.9492124    4.4159191  
H   -2.1192137   -1.7782617    0.8686553  
H   -0.9013378   -0.7652422    5.7314848  
H    1.6172880    1.3558399    1.8188057  
