46
4A 5B 27B 31A 36B 11 12 30 45 43 1 7 4 2 7 2 1 2 0 nosym
C    5.7628304   -0.0004875   -2.0437087  
C    4.7795901    0.0008674   -1.0815733  
C    5.4361689    0.0009683    0.1847223  
C    6.8315415   -0.0000820   -0.0699536  
N    6.9950512   -0.0028995   -1.4329921  
C    7.7866662    0.0000162    0.9510877  
C    7.3247563    0.0015034    2.2529382  
O    8.2141749    0.0020177    3.2882869  
C    5.9363882    0.0021922    2.5272560  
O    5.6358414    0.0032537    3.8737380  
C    4.9935670    0.0018225    1.5204720  
H    7.8775300    0.0063587   -1.9116632  
H    8.8515836   -0.0009249    0.7635969  
H    7.6891825    0.0027716    4.0992407  
H    4.6787630    0.0036911    3.9717405  
H    3.9369293    0.0021875    1.7612929  
H    5.6826510   -0.0013700   -3.1172676  
C    3.3321168    0.0004716   -1.3379341  
C    2.6974177    0.0000118   -2.5332316  
C    1.2800432   -0.0002116   -2.2052842  
C    1.2395033    0.0000644   -0.7271298  
N    2.4394059    0.0005460   -0.2131041  
C    0.0000000    0.0000000    0.0000000  
C   -1.1468704    0.0000635   -0.7169542  
O   -2.3742206    0.0000074   -0.1695488  
C   -1.1388774    0.0001608   -2.2096352  
O   -2.2206238    0.0000906   -2.7970409  
C    0.1454514    0.0001818   -2.9324241  
H    3.1367978   -0.0000649   -3.5160956  
H   -2.9844350    0.0001027   -0.9290164  
H    0.1083567    0.0003684   -4.0135594  
C    2.3971438    2.0127888    3.1728260  
C    1.9431056    1.6308205    1.9564670  
C    0.8496017    0.7127664    2.2356185  
C    0.7794028    0.6545384    3.7115134  
N    1.6840587    1.4146091    4.2663826  
C   -0.1885723   -0.1578550    4.3957118  
C   -1.0476298   -0.8789867    3.6398520  
O   -2.0015663   -1.6796266    4.1448486  
C   -1.0022026   -0.8410666    2.1483229  
O   -1.8147390   -1.5232959    1.5241687  
C    0.0000000    0.0000000    1.4700000  
H    2.3054237    1.9346118    0.9892483  
H   -0.2170646   -0.1815267    5.4753125  
H   -2.4487139   -2.0549881    3.3649027  
H    3.2048689    2.6911772    3.3971983  
