46
0A 4A 5B 31A 32A 41B 16 12 13 45 42 44 2 1 7 2 3 4 3 0 3 0 nosym
C    4.6027089   -2.1265791   -2.8462619  
C    3.4309131   -1.6630272   -2.2944635  
C    2.8451604   -0.7759514   -3.2455631  
C    3.7117809   -0.7376939   -4.3678065  
N    4.7699758   -1.5674709   -4.0915609  
C    3.4480290    0.0377286   -5.5009189  
C    2.2881492    0.7879665   -5.5012619  
O    1.9817485    1.5627593   -6.5823861  
C    1.4110652    0.7632977   -4.3908875  
O    0.2984700    1.5646654   -4.5434816  
C    1.6707639   -0.0012345   -3.2725973  
H    3.0462478   -1.9304037   -1.3251669  
H    5.5407092   -1.7501111   -4.7084822  
H    4.1045592    0.0713436   -6.3594292  
H    1.1430813    1.9967000   -6.3784301  
H   -0.2408558    1.4905408   -3.7502371  
H    5.3331290   -2.8106869   -2.4494725  
C    1.0965515    0.0001358   -0.8010305  
C    0.0000000    0.0000000    0.0000000  
C   -1.1546564    0.0001470   -0.8669509  
C   -0.6372017    0.0003518   -2.2486278  
N    0.7342868    0.0007337   -2.1395011  
C   -1.4147742    0.0001351   -3.3608713  
C   -2.8576052   -0.0001048   -3.1854458  
O   -3.6427782   -0.0002494   -4.1244899  
C   -3.4275841   -0.0000725   -1.7311663  
O   -4.6406831    0.0000333   -1.5710053  
C   -2.4891868   -0.0001090   -0.6116741  
H   -1.0150454    0.0001614   -4.3654241  
H   -2.8919123   -0.0002920    0.3920869  
H    2.1388270    0.0000662   -0.5261648  
C    2.5528530    2.1414826    2.8079335  
C    2.0663498    1.7338582    4.0032312  
C    0.9804344    0.8229586    3.6752840  
C    0.9495562    0.7966882    2.1971295  
N    1.8690446    1.5676019    1.6831036  
C    0.0000000    0.0000000    1.4700000  
C   -0.8785127   -0.7372425    2.1869543  
O   -1.8187535   -1.5261249    1.6395491  
C   -0.8723269   -0.7321790    3.6796354  
O   -1.7010379   -1.4274584    4.2670412  
C    0.1115397    0.0933559    4.4024240  
H    2.4028853    2.0163452    4.9860947  
H   -2.2861435   -1.9184361    2.3990168  
H    0.0832434    0.0693689    5.4835595  
H    3.3664920    2.8238276    2.6198634  
