48
5B 10B 34A 43B 13 16 44 46 7 4 3 4 2 0 2 0 nosym
C   -1.2456305    0.0472573   -4.5828764  
C    0.0064701    0.0513568   -5.1526962  
C   -0.1796822    0.0650600   -6.5668248  
C   -1.5783872    0.0690962   -6.8024816  
N   -2.1962608    0.0560943   -5.5766434  
C   -2.1287558    0.0823423   -8.0876696  
C   -1.2511526    0.0919910   -9.1543918  
O   -1.7348694    0.1054325  -10.4306567  
C    0.1476542    0.0877880   -8.9395912  
O    0.8887339    0.0981984  -10.1032211  
C    0.6913085    0.0744488   -7.6719996  
H    0.9392556    0.0441199   -4.6152466  
H   -3.1889751    0.0660008   -5.4269732  
H   -3.1938762    0.0853389   -8.2739810  
H   -0.9651098    0.1100554  -11.0143641  
H    1.8219876    0.0945268   -9.8694951  
H    1.7668026    0.0713498   -7.5386544  
C    1.1243415    0.0099154   -0.7919005  
C    0.7474088    0.0234032   -2.1148544  
C   -0.6787370    0.0234950   -2.1414699  
C   -1.1201740    0.0099356   -0.7935545  
N    0.0000000    0.0000000    0.0000000  
C   -2.4730813    0.0065397   -0.4408236  
C   -3.3971949    0.0173298   -1.4675052  
O   -4.7313510    0.0149489   -1.1793464  
C   -2.9763633    0.0305535   -2.8186320  
O   -4.0166457    0.0397857   -3.7247617  
C   -1.6418545    0.0336378   -3.1673479  
H    1.4178731    0.0310000   -2.9571212  
H   -2.8160169   -0.0039188    0.5845970  
H   -5.1938804    0.0234411   -2.0274375  
H   -3.6464653    0.0484778   -4.6127338  
H    2.1062467    0.0051380   -0.3505411  
C    0.8681109    0.7263879    2.2709268  
C    0.6127770    0.5096195    3.5869401  
C   -0.4920590   -0.4175482    3.6542670  
C   -0.8620974   -0.7254003    2.2596025  
N    0.0000000    0.0000000    1.4700000  
C   -1.8641242   -1.5660088    1.8976294  
C   -2.6293522   -2.2103885    2.9520183  
O   -3.5512764   -2.9839180    2.7283916  
C   -2.2549728   -1.8987399    4.4361073  
O   -2.8923672   -2.4351063    5.3323774  
C   -1.1543735   -0.9755647    4.7012123  
H    1.1382914    0.9492124    4.4159191  
H   -2.1192137   -1.7782617    0.8686553  
H   -0.9013378   -0.7652422    5.7314848  
H    1.6172880    1.3558399    1.8188057  
