48
5B 10B 17A 35A 36B 13 16 30 42 43 7 4 2 1 7 2 1 2 0 nosym
C    0.0950451    0.0004353   -4.4015596  
C    1.1162041    0.0003986   -5.3233523  
C    0.5111104    0.0000864   -6.6150418  
C   -0.8933803    0.0002297   -6.4167187  
N   -1.1116054   -0.0015102   -5.0613624  
C   -1.8066466    0.0003044   -7.4753659  
C   -1.2927258    0.0005402   -8.7575767  
O   -2.1397636    0.0009732   -9.8278753  
C    0.1055561    0.0000266   -8.9758059  
O    0.4600396   -0.0000773  -10.3091048  
C    1.0071021   -0.0003206   -7.9319004  
H    2.1678583   -0.0005300   -5.0931010  
H   -2.0126233    0.0087263   -4.6185950  
H   -2.8782461    0.0002696   -7.3308775  
H   -1.5825638    0.0007750  -10.6170481  
H    1.4202863   -0.0004048  -10.3685175  
H    2.0725743   -0.0008933   -8.1300089  
C    3.3321174    0.0004715   -1.3379334  
C    2.6974186    0.0000117   -2.5332311  
C    1.2800441   -0.0002117   -2.2052840  
C    1.2395035    0.0000644   -0.7271298  
N    2.4394064    0.0005460   -0.2131035  
C    0.0000000    0.0000000    0.0000000  
C   -1.1468700    0.0000635   -0.7169545  
O   -2.3742202    0.0000072   -0.1695490  
C   -1.1388767    0.0001607   -2.2096356  
O   -2.2206230    0.0000906   -2.7970413  
C    0.1454525    0.0001817   -2.9324241  
H    3.1367988   -0.0000649   -3.5160947  
H   -2.9844345    0.0001026   -0.9290170  
H    4.3940040    0.0007620   -1.1498635  
C    0.8576279    0.7185626    2.2703808  
C    0.0000000    0.0000000    1.4700000  
C   -0.8668858   -0.7285659    2.3373528  
C   -0.4876752   -0.4117774    3.6669281  
N    0.5635254    0.4678311    3.5902241  
C   -1.1297612   -0.9515493    4.7854808  
C   -2.1738724   -1.8268314    4.5576857  
O   -2.8357962   -2.3827064    5.6140350  
C   -2.5667212   -2.1555554    3.2384331  
O   -3.6226318   -3.0413663    3.1773122  
C   -1.9335634   -1.6236449    2.1344818  
H    1.0363952    0.8769718    4.3757045  
H   -0.8454472   -0.7142436    5.8013813  
H   -3.5178062   -2.9546422    5.2385129  
H   -3.8247440   -3.2102924    2.2519915  
H   -2.2566033   -1.8942483    1.1360343  
H    1.6567807    1.3889844    2.0042067  
