48
5B 10B 33A 38B 13 16 47 45 7 4 2 7 2 0 2 0 nosym
C    3.0267434   -0.0008950   -3.9901702  
C    4.3188041   -0.0020511   -4.4624471  
C    4.2414924   -0.0035852   -5.8867432  
C    2.8649418   -0.0029994   -6.2288459  
N    2.1550073   -0.0033119   -5.0538522  
C    2.4146096   -0.0038551   -7.5524732  
C    3.3713255   -0.0050221   -8.5489019  
O    2.9867657   -0.0055428   -9.8585300  
C    4.7495745   -0.0059976   -8.2275834  
O    5.5775892   -0.0075295   -9.3310932  
C    5.1945598   -0.0054274   -6.9220130  
H    5.2076921   -0.0029225   -3.8551000  
H    1.1537480    0.0075322   -4.9807542  
H    1.3668845   -0.0035593   -7.8198207  
H    3.7989651   -0.0066454  -10.3815944  
H    6.4902030   -0.0080814   -9.0265619  
H    6.2566841   -0.0063847   -6.7066778  
C    3.3003545    0.0005277   -1.4738988  
C    2.5232814    0.0003498   -2.6090748  
C    1.1623201   -0.0001318   -2.1820103  
C    1.1711883    0.0000584   -0.7636142  
N    2.4852301   -0.0014919   -0.3662361  
C    0.0000000    0.0000000    0.0000000  
C   -1.2020384    0.0000521   -0.6806478  
O   -2.3759251    0.0003494    0.0157745  
C   -1.2314656   -0.0005111   -2.0955511  
O   -2.5054392   -0.0008036   -2.6250183  
C   -0.0764516   -0.0007271   -2.8495195  
H    2.8036268    0.0088182    0.5858661  
H   -3.0835639    0.0000348   -0.6418820  
H   -2.4360046   -0.0011526   -3.5845923  
H   -0.1304094   -0.0013419   -3.9319089  
H    4.3715552    0.0004895   -1.3667136  
C    2.3971438    2.0127888    3.1728260  
C    1.9431056    1.6308205    1.9564670  
C    0.8496017    0.7127664    2.2356185  
C    0.7794028    0.6545384    3.7115134  
N    1.6840587    1.4146091    4.2663826  
C   -0.1885723   -0.1578550    4.3957118  
C   -1.0476298   -0.8789867    3.6398520  
O   -2.0015663   -1.6796266    4.1448486  
C   -1.0022026   -0.8410666    2.1483229  
O   -1.8147390   -1.5232959    1.5241687  
C    0.0000000    0.0000000    1.4700000  
H    2.3054237    1.9346118    0.9892483  
H   -0.2170646   -0.1815267    5.4753125  
H   -2.4487139   -2.0549881    3.3649027  
H    3.2048689    2.6911772    3.3971983  
