48
5B 10B 31A 32A 41B 13 16 47 42 46 7 4 2 3 4 2 0 3 0 nosym
C    3.1006056    0.0006265   -3.9654949  
C    4.4058792    0.0006161   -4.3999234  
C    4.3701029    0.0000669   -5.8258686  
C    3.0041045    0.0000452   -6.2079351  
N    2.2602350   -0.0015608   -5.0541277  
C    2.5925319   -0.0001305   -7.5441227  
C    3.5778764    0.0000198   -8.5122525  
O    3.2316403    0.0002100   -9.8325301  
C    4.9461777   -0.0003319   -8.1509103  
O    5.8059957   -0.0005488   -9.2298252  
C    5.3529322   -0.0004320   -6.8329289  
H    5.2766933   -0.0001433   -3.7669341  
H    1.2572642    0.0086079   -5.0102282  
H    1.5530421   -0.0002921   -7.8418863  
H    4.0587364   -0.0000084  -10.3317068  
H    6.7093493   -0.0007543   -8.8988324  
H    6.4083314   -0.0008853   -6.5867362  
C    3.2798085    0.0005858   -1.4499649  
C    2.5571143    0.0005567   -2.5996554  
C    1.1637433    0.0001549   -2.2210360  
C    1.1336964   -0.0000199   -0.7459472  
N    2.4483513   -0.0001427   -0.3402721  
C    0.0000000    0.0000000    0.0000000  
C   -1.2757369   -0.0000186   -0.6964416  
O   -2.3524596   -0.0000640   -0.1142312  
C   -1.2676496   -0.0000872   -2.2584084  
O   -2.3355764   -0.0004100   -2.8557297  
C    0.0181559    0.0001762   -2.9516297  
H    0.0150790    0.0003321   -4.0331631  
H    4.3498546    0.0008613   -1.3200024  
H    2.7563627    0.0012824    0.6148061  
C    2.5285572    2.1210227    2.9438989  
C    1.9331703    1.6216660    4.0790748  
C    0.8903039    0.7472258    3.6520102  
C    0.8972198    0.7527806    2.2336141  
N    1.9028376    1.5986179    1.8362361  
C    0.0000000    0.0000000    1.4700000  
C   -0.9207814   -0.7726952    2.1506477  
O   -1.8198395   -1.5274828    1.4542253  
C   -0.9436862   -0.7911793    3.5655508  
O   -1.9197945   -1.6098497    4.0950179  
C   -0.0590329   -0.0485852    4.3195194  
H    2.2150357    1.8593692    5.0905303  
H    2.1533708    1.7953814    0.8841339  
H   -2.3621246   -1.9821033    2.1118817  
H   -1.8668290   -1.5649508    5.0545920  
H   -0.1007624   -0.0827977    5.4019087  
H    3.3491200    2.8096064    2.8367138  
