48
4A 5B 33A 38B 11 12 47 45 1 7 2 7 2 0 2 0 nosym
C   -0.2037734   -0.6658585   -5.1293021  
C   -1.2456336    0.0471730   -4.5828764  
C   -1.8468919    0.7857103   -5.6447855  
C   -1.1232374    0.4804250   -6.8259082  
N   -0.1313243   -0.4022233   -6.4771138  
C   -1.4402451    1.0320029   -8.0709214  
C   -2.5074046    1.9074824   -8.1246301  
O   -2.8602870    2.4746294   -9.3149379  
C   -3.2414136    2.2248286   -6.9570098  
O   -4.2750137    3.1124102   -7.1742967  
C   -2.9290712    1.6812681   -5.7283888  
H    0.5358984   -0.8051183   -7.1099413  
H   -0.8925489    0.8034984   -8.9748116  
H   -3.6184636    3.0445890   -9.1316934  
H   -4.7191126    3.2731938   -6.3361269  
H   -3.5093662    1.9433175   -4.8514248  
H    0.4942809   -1.3405206   -4.6639956  
C    1.1243408    0.0099924   -0.7919005  
C    0.7474073    0.0234547   -2.1148544  
C   -0.6787385    0.0234491   -2.1414699  
C   -1.1201747    0.0098593   -0.7935545  
N    0.0000000    0.0000000    0.0000000  
C   -2.4730817    0.0063708   -0.4408237  
C   -3.3971961    0.0170979   -1.4675053  
O   -4.7313517    0.0146259   -1.1793464  
C   -2.9763655    0.0303507   -2.8186320  
O   -4.0166483    0.0395117   -3.7247617  
C   -1.6418568    0.0335262   -3.1673479  
H    1.4178711    0.0310976   -2.9571212  
H   -2.8160166   -0.0041112    0.5845970  
H   -5.1938825    0.0230867   -2.0274377  
H   -3.6464683    0.0482297   -4.6127338  
H    2.1062465    0.0052822   -0.3505410  
C    2.3971438    2.0127888    3.1728260  
C    1.9431056    1.6308205    1.9564670  
C    0.8496017    0.7127664    2.2356185  
C    0.7794028    0.6545384    3.7115134  
N    1.6840587    1.4146091    4.2663826  
C   -0.1885723   -0.1578550    4.3957118  
C   -1.0476298   -0.8789867    3.6398520  
O   -2.0015663   -1.6796266    4.1448486  
C   -1.0022026   -0.8410666    2.1483229  
O   -1.8147390   -1.5232959    1.5241687  
C    0.0000000    0.0000000    1.4700000  
H    2.3054237    1.9346118    0.9892483  
H   -0.2170646   -0.1815267    5.4753125  
H   -2.4487139   -2.0549881    3.3649027  
H    3.2048689    2.6911772    3.3971983  
