46
1A 10B 36B 41B 11 15 43 45 3 4 7 4 2 0 2 0 nosym
C    2.8474534   -0.7110767   -3.3262154  
C    3.4731675   -0.4622735   -4.5258177  
C    2.6437145    0.4464934   -5.2474480  
C    1.5163399    0.7191288   -4.4309786  
N    1.6707639   -0.0012345   -3.2725973  
C    0.4869745    1.5790485   -4.8256100  
C    0.5978533    2.1748299   -6.0669512  
O   -0.3787474    3.0234967   -6.5017246  
C    1.7148788    1.9150610   -6.8961625  
O    1.6792439    2.5838248   -8.1023253  
C    2.7306131    1.0666299   -6.5076081  
H    4.4114155   -0.8847623   -4.8423428  
H   -0.3749638    1.7908775   -4.2080399  
H   -0.1088094    3.3236276   -7.3794036  
H    2.4689213    2.3534579   -8.6012684  
H    3.5737451    0.8868407   -7.1643292  
H    3.1467170   -1.3398320   -2.5051996  
C    1.0965515    0.0001358   -0.8010305  
C    0.0000000    0.0000000    0.0000000  
C   -1.1546564    0.0001470   -0.8669509  
C   -0.6372017    0.0003518   -2.2486278  
N    0.7342868    0.0007337   -2.1395011  
C   -1.4147742    0.0001351   -3.3608713  
C   -2.8576052   -0.0001048   -3.1854458  
O   -3.6427782   -0.0002494   -4.1244899  
C   -3.4275841   -0.0000725   -1.7311663  
O   -4.6406831    0.0000333   -1.5710053  
C   -2.4891868   -0.0001090   -0.6116741  
H   -1.0150454    0.0001614   -4.3654241  
H   -2.8919123   -0.0002920    0.3920869  
H    2.1388270    0.0000662   -0.5261648  
C    0.0000000    0.0000000    1.4700000  
C    1.0662921    0.0000102    2.3034270  
C    0.4961870   -0.0000064    3.6418889  
C   -0.9663858    0.0000850    3.4240247  
N   -1.2632773    0.0000084    2.1528658  
C   -1.8985362    0.0000517    4.5177257  
C   -1.3925775   -0.0004564    5.7720543  
O   -2.1456383   -0.0005410    6.8851312  
C    0.0786232   -0.0009323    6.0245000  
O    0.4683759   -0.0012588    7.1921102  
C    1.0143166   -0.0008442    4.8859032  
H    2.1107198   -0.0000632    2.0421868  
H   -2.9622183    0.0003270    4.3293377  
H   -1.5042274   -0.0009692    7.6184419  
H    2.0724152   -0.0013148    5.1109744  
