48
1A 10B 27B 34A 43B 11 15 32 44 46 3 4 4 3 4 2 1 2 0 nosym
C   -3.9582709    0.7120302   -2.0436198  
C   -5.3029505    0.4626727   -2.1923646  
C   -5.4397028   -0.4462016   -3.2831653  
C   -4.1334694   -0.7183282   -3.7644431  
N   -3.2578655    0.0024282   -2.9908505  
C   -3.8873159   -1.5781987   -4.8390685  
C   -4.9796747   -2.1744531   -5.4385778  
O   -4.7962584   -3.0230954   -6.4917525  
C   -6.2907176   -1.9151955   -4.9729925  
O   -7.2722035   -2.5843923   -5.6745652  
C   -6.5343185   -1.0668135   -3.9130716  
H   -6.0887123    0.8848704   -1.5896037  
H   -2.8941639   -1.7896414   -5.2107444  
H   -5.6753674   -3.3235965   -6.7565767  
H   -8.1265947   -2.3543552   -5.2968038  
H   -7.5494911   -0.8874214   -3.5788242  
H   -3.4434798    1.3410285   -1.3377090  
C    0.0000000    0.0000000    0.0000000  
C    1.0521666   -0.0011982   -0.8862343  
C    0.4917215   -0.0011996   -2.1979132  
C   -0.9187429    0.0003215   -2.0478682  
N   -1.1833171   -0.0009323   -0.7007913  
C   -1.7951703    0.0010483   -3.1372089  
C   -1.2375841    0.0005313   -4.4010422  
O   -2.0474218    0.0015510   -5.4997578  
C    0.1673576   -0.0013585   -4.5711963  
O    0.5673520   -0.0020735   -5.8915554  
C    1.0325768   -0.0023493   -3.4969892  
H    2.0953056   -0.0030808   -0.6200564  
H   -2.0989778    0.0102529   -0.2891822  
H   -1.4634888    0.0006601   -6.2693595  
H    1.5290707   -0.0033271   -5.9180047  
H    2.1042146   -0.0039770   -3.6584456  
C    1.1319247   -0.0015655    2.2709268  
C    0.7969915   -0.0034943    3.5869401  
C   -0.6453339   -0.0035710    3.6542670  
C   -1.1266833   -0.0015433    2.2596025  
N    0.0000000    0.0000000    1.4700000  
C   -2.4346130   -0.0013964    1.8976294  
C   -3.4350110   -0.0031408    2.9520183  
O   -4.6384611   -0.0030974    2.7283916  
C   -2.9478959   -0.0050506    4.4361073  
O   -3.7809380   -0.0062218    5.3323774  
C   -1.5113823   -0.0053090    4.7012123  
H    1.4821238   -0.0045407    4.4159191  
H   -2.7664565   -0.0000232    0.8686553  
H   -1.1823530   -0.0068408    5.7314848  
H    2.1104316   -0.0009391    1.8188057  
