46
0A 4A 5B 17A 31A 35A 36B 16 12 13 29 44 45 43 2 1 7 2 2 1 7 3 1 3 0 nosym
C    2.5432463   -2.1201840   -5.9711743  
C    1.9944225   -1.6589126   -4.7970839  
C    0.9351213   -0.7723428   -5.1527175  
C    0.8841180   -0.7320296   -6.5696508  
N    1.8752691   -1.5601475   -7.0349013  
C   -0.0438078    0.0435293   -7.2712561  
C   -0.9367056    0.7917923   -6.5289532  
O   -1.8641942    1.5666219   -7.1633175  
C   -0.9013494    0.7650561   -5.1144387  
O   -1.8552619    1.5646080   -4.5193663  
C    0.0139740    0.0003882   -4.4216236  
H    2.3185009   -1.9274451   -3.8061974  
H    2.0737724   -1.7411563   -8.0022753  
H   -0.0877740    0.0787059   -8.3510855  
H   -2.3791726    1.9990291   -6.4697139  
H   -1.7628474    1.4891551   -3.5647095  
H    3.3592548   -2.8032532   -6.1339816  
C    3.2798084    0.0005857   -1.4499648  
C    2.5571144    0.0005567   -2.5996554  
C    1.1637435    0.0001550   -2.2210360  
C    1.1336965   -0.0000199   -0.7459471  
N    2.4483512   -0.0001427   -0.3402718  
C    0.0000000    0.0000000    0.0000000  
C   -1.2757368   -0.0000186   -0.6964414  
O   -2.3524597   -0.0000639   -0.1142313  
C   -1.2676495   -0.0000872   -2.2584081  
O   -2.3355764   -0.0004099   -2.8557294  
C    0.0181561    0.0001761   -2.9516296  
H    2.9547355    0.0006077   -3.5989105  
H    4.3498548    0.0008614   -1.3200022  
H    2.7563628    0.0012824    0.6148063  
C    2.4951002    2.0940188    2.9809380  
C    1.9440701    1.6314916    1.8291961  
C    0.8759964    0.7350050    2.2038498  
C    0.8497377    0.7130254    3.6788474  
N    1.8560616    1.5571714    4.0882609  
C   -0.0205033   -0.0168748    4.4215661  
C   -0.9962600   -0.8356168    3.7214979  
O   -1.8224391   -1.5286685    4.3006425  
C   -0.9864710   -0.8277881    2.1595606  
O   -1.8030528   -1.5133726    1.5592035  
C    0.0000000    0.0000000    1.4700000  
H    2.2509283    1.8888011    0.8310761  
H   -0.0229599   -0.0187323    5.5027230  
H    3.3143982    2.7817323    3.1139444  
H    2.0889452    1.7545833    5.0442112  
