50
5B 10B 37A 38B 13 16 44 45 7 4 1 7 2 0 2 0 nosym
C    1.6628973    0.0337773   -3.2649299  
C    3.0380384    0.0327237   -3.3030581  
C    3.4164368    0.0452332   -4.6782879  
C    2.2194498    0.0538855   -5.4392567  
N    1.1735138    0.0446617   -4.5501279  
C    2.2121576    0.0673888   -6.8373102  
C    3.4355022    0.0725531   -7.4788538  
O    3.4861478    0.0860287   -8.8427702  
C    4.6406913    0.0637063   -6.7370602  
O    5.7759400    0.0699862   -7.5209706  
C    4.6486396    0.0501106   -5.3578295  
H    3.6884154    0.0229057   -2.4452081  
H    0.2007640    0.0582587   -4.7982289  
H    1.3033121    0.0738916   -7.4231088  
H    4.4223079    0.0871784   -9.0812408  
H    6.5448574    0.0633347   -6.9427617  
H    5.5876367    0.0433996   -4.8167956  
C    1.1243418    0.0099159   -0.7919003  
C    0.7474092    0.0234036   -2.1148542  
C   -0.6787365    0.0234950   -2.1414698  
C   -1.1201738    0.0099353   -0.7935546  
N    0.0000000    0.0000000    0.0000000  
C   -2.4730813    0.0065388   -0.4408240  
C   -3.3971946    0.0173288   -1.4675058  
O   -4.7313507    0.0149473   -1.1793467  
C   -2.9763626    0.0305528   -2.8186323  
O   -4.0166448    0.0397846   -3.7247623  
C   -1.6418539    0.0336375   -3.1673480  
H   -2.8160169   -0.0039199    0.5845966  
H   -5.1938803    0.0234395   -2.0274386  
H   -3.6464640    0.0484770   -4.6127344  
H   -1.3497438    0.0436785   -4.2109234  
H    2.1062470    0.0051388   -0.3505405  
C    0.8576279    0.7185626    2.2703808  
C    0.0000000    0.0000000    1.4700000  
C   -0.8668858   -0.7285659    2.3373528  
C   -0.4876752   -0.4117774    3.6669281  
N    0.5635254    0.4678311    3.5902241  
C   -1.1297612   -0.9515493    4.7854808  
C   -2.1738724   -1.8268314    4.5576857  
O   -2.8357962   -2.3827064    5.6140350  
C   -2.5667212   -2.1555554    3.2384331  
O   -3.6226318   -3.0413663    3.1773122  
C   -1.9335634   -1.6236449    2.1344818  
H    1.0363952    0.8769718    4.3757045  
H   -0.8454472   -0.7142436    5.8013813  
H   -3.5178062   -2.9546422    5.2385129  
H   -3.8247440   -3.2102924    2.2519915  
H   -2.2566033   -1.8942483    1.1360343  
H    1.6567807    1.3889844    2.0042067  
