48
4A 5B 33A 37A 38B 11 12 46 47 45 1 7 2 1 7 2 0 3 0 nosym
C    3.8758971   -0.7315584   -4.5547713  
C    2.8310666   -0.0116219   -4.0232749  
C    2.2267732    0.7021012   -5.1003213  
C    2.9517237    0.3752583   -6.2748623  
N    3.9472874   -0.4957928   -5.9077926  
C    2.6324610    0.8994266   -7.5310901  
C    1.5616731    1.7691522   -7.6029843  
O    1.2064694    2.3098782   -8.8048413  
C    0.8263182    2.1077289   -6.4421938  
O   -0.2109563    2.9862816   -6.6778849  
C    1.1408832    1.5912145   -5.2025214  
H    4.6161969   -0.9090222   -6.5321186  
H    3.1811272    0.6543980   -8.4300491  
H    0.4459250    2.8803795   -8.6334797  
H   -0.6557431    3.1626645   -5.8432248  
H    0.5594792    1.8690835   -4.3311796  
H    4.5767367   -1.3934617   -4.0755358  
C    3.3041272    0.0001179   -1.5420430  
C    2.5845372   -0.0004780   -0.3695853  
C    1.2040006   -0.0000008   -0.7283591  
C    1.1422374    0.0006037   -2.1454374  
N    2.4348639    0.0026110   -2.6077464  
C   -0.0655180    0.0008797   -2.8497920  
C   -1.2321768    0.0002322   -2.1101401  
O   -2.4392814    0.0001145   -2.7472522  
C   -1.1911210   -0.0000007   -0.6955265  
O   -2.4371526   -0.0002322   -0.1032861  
C    0.0000000    0.0000000    0.0000000  
H    3.0031533   -0.0000659    0.6222580  
H   -0.1193548    0.0014842   -3.9297472  
H   -3.1132988   -0.0000649   -2.0551787  
H   -2.3200282   -0.0004073    0.8516408  
H    4.3686625    0.0004071   -1.7024290  
C    2.4951002    2.0940188    2.9809380  
C    1.9440701    1.6314916    1.8291961  
C    0.8759964    0.7350050    2.2038498  
C    0.8497377    0.7130254    3.6788474  
N    1.8560616    1.5571714    4.0882609  
C   -0.0205033   -0.0168748    4.4215661  
C   -0.9962600   -0.8356168    3.7214979  
O   -1.8224391   -1.5286685    4.3006425  
C   -0.9864710   -0.8277881    2.1595606  
O   -1.8030528   -1.5133726    1.5592035  
C    0.0000000    0.0000000    1.4700000  
H    2.2509283    1.8888011    0.8310761  
H   -0.0229599   -0.0187323    5.5027230  
H    3.3143982    2.7817323    3.1139444  
H    2.0889452    1.7545833    5.0442112  
