46
0A 4A 5B 17A 36B 41B 16 12 13 29 43 45 2 1 7 2 7 4 3 1 2 0 nosym
C    2.5432463   -2.1201840   -5.9711743  
C    1.9944225   -1.6589126   -4.7970839  
C    0.9351213   -0.7723428   -5.1527175  
C    0.8841180   -0.7320296   -6.5696508  
N    1.8752691   -1.5601475   -7.0349013  
C   -0.0438078    0.0435293   -7.2712561  
C   -0.9367056    0.7917923   -6.5289532  
O   -1.8641942    1.5666219   -7.1633175  
C   -0.9013494    0.7650561   -5.1144387  
O   -1.8552619    1.5646080   -4.5193663  
C    0.0139740    0.0003882   -4.4216236  
H    2.3185009   -1.9274451   -3.8061974  
H    2.0737724   -1.7411563   -8.0022753  
H   -0.0877740    0.0787059   -8.3510855  
H   -2.3791726    1.9990291   -6.4697139  
H   -1.7628474    1.4891551   -3.5647095  
H    3.3592548   -2.8032532   -6.1339816  
C    3.2798084    0.0005857   -1.4499648  
C    2.5571144    0.0005567   -2.5996554  
C    1.1637435    0.0001550   -2.2210360  
C    1.1336965   -0.0000199   -0.7459471  
N    2.4483512   -0.0001427   -0.3402718  
C    0.0000000    0.0000000    0.0000000  
C   -1.2757368   -0.0000186   -0.6964414  
O   -2.3524597   -0.0000639   -0.1142313  
C   -1.2676495   -0.0000872   -2.2584081  
O   -2.3355764   -0.0004099   -2.8557294  
C    0.0181561    0.0001761   -2.9516296  
H    2.9547355    0.0006077   -3.5989105  
H    4.3498548    0.0008614   -1.3200022  
H    2.7563628    0.0012824    0.6148063  
C    0.0000000    0.0000000    1.4700000  
C    1.0662921    0.0000102    2.3034270  
C    0.4961870   -0.0000064    3.6418889  
C   -0.9663858    0.0000850    3.4240247  
N   -1.2632773    0.0000084    2.1528658  
C   -1.8985362    0.0000517    4.5177257  
C   -1.3925775   -0.0004564    5.7720543  
O   -2.1456383   -0.0005410    6.8851312  
C    0.0786232   -0.0009323    6.0245000  
O    0.4683759   -0.0012588    7.1921102  
C    1.0143166   -0.0008442    4.8859032  
H    2.1107198   -0.0000632    2.0421868  
H   -2.9622183    0.0003270    4.3293377  
H   -1.5042274   -0.0009692    7.6184419  
H    2.0724152   -0.0013148    5.1109744  
