50
33A 37A 38B 17A 26B 49 45 46 27 31 2 1 7 3 4 3 0 2 0 nosym
C    3.3041272    0.0001176   -1.5420431  
C    2.5845372   -0.0004781   -0.3695853  
C    1.2040006   -0.0000009   -0.7283588  
C    1.1422374    0.0006035   -2.1454372  
N    2.4348639    0.0026108   -2.6077465  
C   -0.0655182    0.0008795   -2.8497919  
C   -1.2321769    0.0002322   -2.1101399  
O   -2.4392814    0.0001143   -2.7472520  
C   -1.1911210   -0.0000008   -0.6955264  
O   -2.4371527   -0.0002321   -0.1032861  
C    0.0000000    0.0000000    0.0000000  
H    3.0031535   -0.0000660    0.6222584  
H   -0.1193549    0.0014841   -3.9297469  
H   -3.1132989   -0.0000650   -2.0551785  
H   -2.3200281   -0.0004071    0.8516412  
H    4.3686623    0.0004070   -1.7024293  
C    3.8878171   -0.7221153   -4.5427235  
C    3.9719333   -0.4862754   -5.8954137  
C    2.9171610    0.4147682   -6.2273411  
C    2.2168609    0.6962702   -5.0263988  
N    2.8310664   -0.0116222   -4.0232753  
C    1.1122536    1.5520018   -4.9778752  
C    0.7074031    2.1344020   -6.1632377  
O   -0.3652174    2.9784454   -6.1726997  
C    1.3930195    1.8656299   -7.3717530  
O    0.8682191    2.5214010   -8.4662358  
C    2.4826538    1.0213222   -7.4204129  
H    4.7028564   -0.9122323   -6.5612256  
H    0.5741181    1.7705381   -4.0658149  
H   -0.4758797    3.2691033   -7.0873241  
H    1.3885186    2.2856096   -9.2403768  
H    2.9875790    0.8344052   -8.3609398  
H    4.4971336   -1.3420435   -3.9076006  
C    2.5311839    2.1237619    3.0120429  
C    1.9795631    1.6616747    1.8395852  
C    0.9223175    0.7739173    2.1983588  
C    0.8753926    0.7337535    3.6154372  
N    1.8668922    1.5631002    4.0777464  
C   -0.0496243   -0.0427881    4.3197917  
C   -0.9437528   -0.7922060    3.5801400  
O   -1.8685244   -1.5680278    4.2172520  
C   -0.9124520   -0.7656372    2.1655264  
O   -1.8671164   -1.5663939    1.5732860  
C    0.0000000    0.0000000    1.4700000  
H    2.3005065    1.9304404    0.8477417  
H    2.0679347    1.7444845    5.0445261  
H   -0.0904770   -0.0778569    5.3997470  
H   -2.3849669   -2.0011402    3.5251786  
H   -1.7775064   -1.4909735    0.6183591  
H    3.3468514    2.8078103    3.1724291  
