46
5B 10B 36B 13 16 42 7 4 7 2 0 1 0 nosym
C    1.7334696    0.0049245   -3.2500362  
C    3.1090793    0.0045671   -3.2628649  
C    3.5126985    0.0058536   -4.6309622  
C    2.3299041    0.0072577   -5.4138552  
N    1.2677986    0.0046985   -4.5440606  
C    2.3483170    0.0090624   -6.8118705  
C    3.5832502    0.0097639   -7.4308350  
O    3.6589625    0.0118693   -8.7936541  
C    4.7745982    0.0080110   -6.6669608  
O    5.9240672    0.0085724   -7.4298910  
C    4.7571873    0.0059569   -5.2877513  
H    3.7435755    0.0024041   -2.3931507  
H    0.2997685    0.0155020   -4.8101093  
H    1.4503949    0.0099948   -7.4143135  
H    4.5993491    0.0117154   -9.0148740  
H    6.6822245    0.0073245   -6.8376075  
H    5.6860792    0.0044642   -4.7295077  
C    1.1319246    0.0015655   -0.8009268  
C    0.7969915    0.0034942   -2.1169401  
C   -0.6453340    0.0035709   -2.1842669  
C   -1.1266832    0.0015433   -0.7896025  
N    0.0000000    0.0000000    0.0000000  
C   -2.4346130    0.0013964   -0.4276293  
C   -3.4350112    0.0031409   -1.4820183  
O   -4.6384613    0.0030974   -1.2583915  
C   -2.9478958    0.0050505   -2.9661074  
O   -3.7809383    0.0062217   -3.8623776  
C   -1.5113824    0.0053089   -3.2312122  
H   -2.7664564    0.0000233    0.6013448  
H   -1.1823530    0.0068406   -4.2614847  
H    2.1104315    0.0009390   -0.3488058  
C    0.8175213    0.6860729    2.3021913  
C    0.0000000    0.0000000    1.4700000  
C   -0.8887526   -0.7456559    2.3478473  
C   -0.4549825   -0.3816753    3.7138435  
N    0.5448156    0.4573574    3.6934124  
C   -1.0945674   -0.9182058    4.8835240  
C   -2.1210866   -1.7789155    4.6970523  
O   -2.8083856   -2.3554314    5.6976972  
C   -2.5824069   -2.1655116    3.3310774  
O   -3.5227682   -2.9541547    3.2362962  
C   -1.9100805   -1.6015804    2.1470656  
H   -0.7567140   -0.6349833    5.8697035  
H   -3.4728268   -2.9124471    5.2533954  
H   -2.2742832   -1.9066565    1.1752040  
H    1.6189533    1.3585343    2.0405121  
