48
5B 10B 37A 38B 13 16 47 44 7 4 1 7 2 0 2 0 nosym
C    3.0267434   -0.0008950   -3.9901702  
C    4.3188041   -0.0020511   -4.4624471  
C    4.2414924   -0.0035852   -5.8867432  
C    2.8649418   -0.0029994   -6.2288459  
N    2.1550073   -0.0033119   -5.0538522  
C    2.4146096   -0.0038551   -7.5524732  
C    3.3713255   -0.0050221   -8.5489019  
O    2.9867657   -0.0055428   -9.8585300  
C    4.7495745   -0.0059976   -8.2275834  
O    5.5775892   -0.0075295   -9.3310932  
C    5.1945598   -0.0054274   -6.9220130  
H    5.2076921   -0.0029225   -3.8551000  
H    1.1537480    0.0075322   -4.9807542  
H    1.3668845   -0.0035593   -7.8198207  
H    3.7989651   -0.0066454  -10.3815944  
H    6.4902030   -0.0080814   -9.0265619  
H    6.2566841   -0.0063847   -6.7066778  
C    3.3003545    0.0005277   -1.4738988  
C    2.5232814    0.0003498   -2.6090748  
C    1.1623201   -0.0001318   -2.1820103  
C    1.1711883    0.0000584   -0.7636142  
N    2.4852301   -0.0014919   -0.3662361  
C    0.0000000    0.0000000    0.0000000  
C   -1.2020384    0.0000521   -0.6806478  
O   -2.3759251    0.0003494    0.0157745  
C   -1.2314656   -0.0005111   -2.0955511  
O   -2.5054392   -0.0008036   -2.6250183  
C   -0.0764516   -0.0007271   -2.8495195  
H    2.8036268    0.0088182    0.5858661  
H   -3.0835639    0.0000348   -0.6418820  
H   -2.4360046   -0.0011526   -3.5845923  
H   -0.1304094   -0.0013419   -3.9319089  
H    4.3715552    0.0004895   -1.3667136  
C    0.8400945    0.7047457    2.2710304  
C    0.0000000    0.0000000    1.4700000  
C   -0.8844236   -0.7423113    2.3369512  
C   -0.4878984   -0.4098547    3.7186280  
N    0.5629682    0.4714286    3.6095011  
C   -1.0836927   -0.9095027    4.8308716  
C   -2.1891196   -1.8367527    4.6554461  
O   -2.7906899   -2.3413415    5.5944904  
C   -2.6257283   -2.2031529    3.2011665  
O   -3.5549479   -2.9829990    3.0410059  
C   -1.9068976   -1.5999348    2.0816745  
H   -0.7774656   -0.6525820    5.8354244  
H   -2.2155208   -1.8586617    1.0779135  
H    1.6384792    1.3747609    1.9961646  
H    1.0518368    0.8833920    4.3830260  
