48
5B 10B 38B 43B 13 16 45 47 7 4 7 4 2 0 2 0 nosym
C    1.6628973    0.0337773   -3.2649299  
C    3.0380384    0.0327237   -3.3030581  
C    3.4164368    0.0452332   -4.6782879  
C    2.2194498    0.0538855   -5.4392567  
N    1.1735138    0.0446617   -4.5501279  
C    2.2121576    0.0673888   -6.8373102  
C    3.4355022    0.0725531   -7.4788538  
O    3.4861478    0.0860287   -8.8427702  
C    4.6406913    0.0637063   -6.7370602  
O    5.7759400    0.0699862   -7.5209706  
C    4.6486396    0.0501106   -5.3578295  
H    3.6884154    0.0229057   -2.4452081  
H    0.2007640    0.0582587   -4.7982289  
H    1.3033121    0.0738916   -7.4231088  
H    4.4223079    0.0871784   -9.0812408  
H    6.5448574    0.0633347   -6.9427617  
H    5.5876367    0.0433996   -4.8167956  
C    1.1243418    0.0099159   -0.7919003  
C    0.7474092    0.0234036   -2.1148542  
C   -0.6787365    0.0234950   -2.1414698  
C   -1.1201738    0.0099353   -0.7935546  
N    0.0000000    0.0000000    0.0000000  
C   -2.4730813    0.0065388   -0.4408240  
C   -3.3971946    0.0173288   -1.4675058  
O   -4.7313507    0.0149473   -1.1793467  
C   -2.9763626    0.0305528   -2.8186323  
O   -4.0166448    0.0397846   -3.7247623  
C   -1.6418539    0.0336375   -3.1673480  
H   -2.8160169   -0.0039199    0.5845966  
H   -5.1938803    0.0234395   -2.0274386  
H   -3.6464640    0.0484770   -4.6127344  
H   -1.3497438    0.0436785   -4.2109234  
H    2.1062470    0.0051388   -0.3505405  
C    0.0000000    0.0000000    1.4700000  
C    1.0662921    0.0000102    2.3034270  
C    0.4961870   -0.0000064    3.6418889  
C   -0.9663858    0.0000850    3.4240247  
N   -1.2632773    0.0000084    2.1528658  
C   -1.8985362    0.0000517    4.5177257  
C   -1.3925775   -0.0004564    5.7720543  
O   -2.1456383   -0.0005410    6.8851312  
C    0.0786232   -0.0009323    6.0245000  
O    0.4683759   -0.0012588    7.1921102  
C    1.0143166   -0.0008442    4.8859032  
H    2.1107198   -0.0000632    2.0421868  
H   -2.9622183    0.0003270    4.3293377  
H   -1.5042274   -0.0009692    7.6184419  
H    2.0724152   -0.0013148    5.1109744  
