46
0A 4A 5B 31A 32A 41B 16 12 13 44 42 43 2 1 7 2 3 4 3 0 3 0 nosym
C    1.8180630   -2.1129497   -5.3329859  
C    0.9354851   -1.6527937   -4.3833644  
C    0.0367045   -0.7650452   -5.0457060  
C    0.4230765   -0.7228967   -6.4098414  
N    1.5089683   -1.5511034   -6.5495950  
C   -0.2445092    0.0541902   -7.3612902  
C   -1.3219475    0.8021224   -6.9278137  
O   -2.0097561    1.5783945   -7.8151330  
C   -1.7224656    0.7735648   -5.5707632  
O   -2.8127701    1.5730149   -5.2960654  
C   -1.0641730    0.0073887   -4.6315340  
H    0.9397145   -1.9228074   -3.3412189  
H    1.9947608   -1.7310194   -7.4096044  
H    0.0450909    0.0907690   -8.4024413  
H   -2.7126526    2.0102736   -7.3124581  
H   -3.0178516    1.4962858   -4.3592318  
H    2.6444742   -2.7963717   -5.2384451  
C    1.1319249    0.0015673   -0.8009268  
C    0.7969919    0.0034954   -2.1169403  
C   -0.6453335    0.0035697   -2.1842672  
C   -1.1266831    0.0015413   -0.7896029  
N    0.0000000    0.0000000    0.0000000  
C   -2.4346128    0.0013921   -0.4276299  
C   -3.4350109    0.0031346   -1.4820187  
O   -4.6384610    0.0030891   -1.2583924  
C   -2.9478954    0.0050451   -2.9661078  
O   -3.7809375    0.0062147   -3.8623779  
C   -1.5113818    0.0053061   -3.2312126  
H    1.4821242    0.0045430   -2.9459191  
H   -2.7664565    0.0000184    0.6013444  
H    2.1104318    0.0009428   -0.3488057  
C    2.5128556    2.1077716    2.9199648  
C    1.9592212    1.6432552    4.0696553  
C    0.8915788    0.7479214    3.6910360  
C    0.8684491    0.7287414    2.2159470  
N    1.8754542    1.5738793    1.8102719  
C    0.0000000    0.0000000    1.4700000  
C   -0.9772830   -0.8200135    2.1664417  
O   -1.8021297   -1.5120829    1.5842315  
C   -0.9711318   -0.8147624    3.7284083  
O   -1.7894187   -1.5009653    4.3257297  
C    0.0140216    0.0115358    4.4216297  
H    2.2638494    1.8988021    5.0689105  
H    0.0117648    0.0094386    5.5031631  
H    3.3327358    2.7953732    2.7900019  
H    2.1123206    1.7707734    0.8551938  
