48
5B 10B 17A 31A 35A 36B 13 16 29 47 43 44 7 4 2 2 1 7 2 1 3 0 nosym
C    0.0139745    0.0003876   -4.4216236  
C    1.0636164    0.0005120   -5.3108476  
C    0.4994424    0.0000634   -6.6209269  
C   -0.9105904   -0.0000387   -6.4668695  
N   -1.1713297   -0.0017872   -5.1190461  
C   -1.7901133   -0.0001502   -7.5537130  
C   -1.2361245    0.0001484   -8.8191281  
O   -2.0490853    0.0004068   -9.9155345  
C    0.1683286   -0.0001213   -8.9932770  
O    0.5645656   -0.0001919  -10.3147688  
C    1.0366007   -0.0002848   -7.9215364  
H    2.1075098   -0.0002243   -5.0476383  
H   -2.0858277    0.0082988   -4.7048326  
H   -2.8657266   -0.0003724   -7.4429951  
H   -1.4673435    0.0002901  -10.6867945  
H    1.5262059   -0.0003499  -10.3439549  
H    2.1077759   -0.0006724   -8.0860406  
C    3.2798088    0.0005856   -1.4499645  
C    2.5571147    0.0005564   -2.5996552  
C    1.1637438    0.0001547   -2.2210359  
C    1.1336966   -0.0000200   -0.7459470  
N    2.4483516   -0.0001428   -0.3402716  
C    0.0000000    0.0000000    0.0000000  
C   -1.2757366   -0.0000187   -0.6964415  
O   -2.3524596   -0.0000640   -0.1142315  
C   -1.2676492   -0.0000874   -2.2584082  
O   -2.3355759   -0.0004102   -2.8557296  
C    0.0181564    0.0001758   -2.9516296  
H    2.9547358    0.0006073   -3.5989103  
H    4.3498553    0.0008611   -1.3200018  
H    2.7563628    0.0012824    0.6148065  
C    2.5311839    2.1237619    3.0120429  
C    1.9795631    1.6616747    1.8395852  
C    0.9223175    0.7739173    2.1983588  
C    0.8753926    0.7337535    3.6154372  
N    1.8668922    1.5631002    4.0777464  
C   -0.0496243   -0.0427881    4.3197917  
C   -0.9437528   -0.7922060    3.5801400  
O   -1.8685244   -1.5680278    4.2172520  
C   -0.9124520   -0.7656372    2.1655264  
O   -1.8671164   -1.5663939    1.5732860  
C    0.0000000    0.0000000    1.4700000  
H    2.3005065    1.9304404    0.8477417  
H    2.0679347    1.7444845    5.0445261  
H   -0.0904770   -0.0778569    5.3997470  
H   -2.3849669   -2.0011402    3.5251786  
H   -1.7775064   -1.4909735    0.6183591  
H    3.3468514    2.8078103    3.1724291  
