50
33A 34A 43B 5A 16A 17B 26B 49 44 48 13 32 27 31 2 3 4 7 2 3 4 3 1 3 0 nosym
C    3.3041269    0.0001177   -1.5420434  
C    2.5845370   -0.0004780   -0.3695856  
C    1.2040006   -0.0000007   -0.7283591  
C    1.1422372    0.0006038   -2.1454374  
N    2.4348634    0.0026110   -2.6077469  
C   -0.0655187    0.0008799   -2.8497915  
C   -1.2321772    0.0002326   -2.1101397  
O   -2.4392820    0.0001149   -2.7472517  
C   -1.1911209   -0.0000007   -0.6955263  
O   -2.4371523   -0.0002319   -0.1032858  
C    0.0000000    0.0000000    0.0000000  
H    3.0031535   -0.0000661    0.6222578  
H    2.7054623   -0.0071098   -3.5745264  
H   -0.1193555    0.0014846   -3.9297470  
H   -3.1132995   -0.0000646   -2.0551782  
H   -2.3200286   -0.0004070    0.8516413  
C    6.7068652   -0.0034179    1.2828885  
C    7.7136027   -0.0021476    0.3453674  
C    7.0885452   -0.0007422   -0.9367797  
C    5.6872998   -0.0009463   -0.7166947  
N    5.4901253   -0.0045363    0.6418804  
C    4.7577216    0.0005129   -1.7610467  
C    5.2516908    0.0025159   -3.0510729  
O    4.3881527    0.0043528   -4.1081030  
C    6.6464198    0.0023763   -3.2909677  
O    6.9801783    0.0041001   -4.6296035  
C    7.5640500    0.0006641   -2.2611728  
H    8.7687021   -0.0033297    0.5592763  
H    4.5960836    0.0050495    1.0985848  
H    4.9330440    0.0052559   -4.9058230  
H    7.9393886    0.0039069   -4.7039040  
H    8.6263215    0.0004196   -2.4757859  
H    6.7604661   -0.0050605    2.3581015  
C    2.5285572    2.1210227    2.9438989  
C    1.9331703    1.6216660    4.0790748  
C    0.8903039    0.7472258    3.6520102  
C    0.8972198    0.7527806    2.2336141  
N    1.9028376    1.5986179    1.8362361  
C    0.0000000    0.0000000    1.4700000  
C   -0.9207814   -0.7726952    2.1506477  
O   -1.8198395   -1.5274828    1.4542253  
C   -0.9436862   -0.7911793    3.5655508  
O   -1.9197945   -1.6098497    4.0950179  
C   -0.0590329   -0.0485852    4.3195194  
H    2.2150357    1.8593692    5.0905303  
H    2.1533708    1.7953814    0.8841339  
H   -2.3621246   -1.9821033    2.1118817  
H   -1.8668290   -1.5649508    5.0545920  
H   -0.1007624   -0.0827977    5.4019087  
H    3.3491200    2.8096064    2.8367138  
