46
1A 10B 27B 35A 36B 11 15 30 45 42 3 4 4 1 7 2 1 2 0 nosym
C    5.7554220   -0.0170917   -2.0504792  
C    6.9923544   -0.0274548   -1.4485177  
C    6.7698532   -0.0170660   -0.0396227  
C    5.3656239   -0.0006279    0.1598691  
N    4.7795901    0.0008674   -1.0815733  
C    4.7823652    0.0126086    1.4304686  
C    5.6321446    0.0088817    2.5195229  
O    5.1157369    0.0209830    3.7829269  
C    7.0359421   -0.0070684    2.3408777  
O    7.7467595   -0.0084166    3.5232824  
C    7.6120396   -0.0198592    1.0876920  
H    7.9386305   -0.0397486   -1.9617472  
H    3.7128637    0.0253093    1.5892351  
H    5.8701618    0.0161161    4.3863214  
H    8.6856717   -0.0195880    3.3137054  
H    8.6905548   -0.0317640    0.9821342  
H    5.4920676   -0.0196443   -3.0943165  
C    3.3321168    0.0004716   -1.3379341  
C    2.6974177    0.0000118   -2.5332316  
C    1.2800432   -0.0002116   -2.2052842  
C    1.2395033    0.0000644   -0.7271298  
N    2.4394059    0.0005460   -0.2131041  
C    0.0000000    0.0000000    0.0000000  
C   -1.1468704    0.0000635   -0.7169542  
O   -2.3742206    0.0000074   -0.1695488  
C   -1.1388774    0.0001608   -2.2096352  
O   -2.2206238    0.0000906   -2.7970409  
C    0.1454514    0.0001818   -2.9324241  
H    3.1367978   -0.0000649   -3.5160956  
H   -2.9844350    0.0001027   -0.9290164  
H    0.1083567    0.0003684   -4.0135594  
C    0.8400945    0.7047457    2.2710304  
C    0.0000000    0.0000000    1.4700000  
C   -0.8844236   -0.7423113    2.3369512  
C   -0.4878984   -0.4098547    3.7186280  
N    0.5629682    0.4714286    3.6095011  
C   -1.0836927   -0.9095027    4.8308716  
C   -2.1891196   -1.8367527    4.6554461  
O   -2.7906899   -2.3413415    5.5944904  
C   -2.6257283   -2.2031529    3.2011665  
O   -3.5549479   -2.9829990    3.0410059  
C   -1.9068976   -1.5999348    2.0816745  
H   -0.7774656   -0.6525820    5.8354244  
H   -2.2155208   -1.8586617    1.0779135  
H    1.6384792    1.3747609    1.9961646  
H    1.0518368    0.8833920    4.3830260  
