46
1A 10B 22B 31A 36B 11 15 29 45 43 3 4 7 2 7 2 1 2 0 nosym
C    3.4497183   -0.7084681   -2.8313375  
C    4.7277965   -0.4583047   -3.2745106  
C    4.6186617    0.4497401   -4.3691083  
C    3.2380221    0.7205537   -4.5491658  
N    2.5562217   -0.0001540   -3.6003003  
C    2.7591270    1.5793431   -5.5431119  
C    3.6909758    2.1758466   -6.3701673  
O    3.2780211    3.0234694   -7.3570899  
C    5.0728172    1.9178921   -6.2064865  
O    5.8738704    2.5871746   -7.1085495  
C    5.5459545    1.0705770   -5.2263214  
H    5.6279511   -0.8794471   -2.8605614  
H    1.7081241    1.7897826   -5.6856249  
H    4.0763362    3.3243554   -7.8103285  
H    6.7909261    2.3580497   -6.9293428  
H    6.6101095    0.8921717   -5.1252075  
H    3.1046849   -1.3372250   -2.0284831  
C    0.0000000    0.0000000    0.0000000  
C    1.0541688   -0.0001718   -0.8560391  
C    0.5103141   -0.0000448   -2.1935955  
C   -0.9576367    0.0002462   -2.0455732  
N   -1.2018459   -0.0001391   -0.6915971  
C   -1.8348307    0.0008319   -3.0810611  
C   -1.2972843    0.0009743   -4.4314607  
O   -2.0050666    0.0014272   -5.4301322  
C    0.2542627    0.0004194   -4.6117573  
O    0.7184676    0.0002268   -5.7439121  
C    1.0974555    0.0000882   -3.4189128  
H    2.0940752   -0.0005478   -0.5817980  
H   -2.9081051    0.0011669   -2.9507063  
H   -2.1128195    0.0014909   -0.2706793  
C    3.1301144    0.0010313    3.1728260  
C    2.5367765    0.0002768    1.9564670  
C    1.1089900   -0.0001027    2.2356185  
C    1.0177864    0.0004150    3.7115134  
N    2.1993570    0.0011613    4.2663826  
C   -0.2459220    0.0002880    4.3957118  
C   -1.3675327    0.0000606    3.6398520  
O   -2.6129319   -0.0000866    4.1448486  
C   -1.3083589   -0.0000910    2.1483229  
O   -2.3693264   -0.0004206    1.5241687  
C    0.0000000    0.0000000    1.4700000  
H    3.0096015    0.0001008    0.9892483  
H   -0.2829642    0.0004689    5.4753125  
H   -3.1967446   -0.0002093    3.3649027  
H    4.1849273    0.0015113    3.3971983  
