48
1A 10B 22B 36B 41B 11 15 29 44 47 3 4 7 7 4 2 1 2 0 nosym
C    3.4087107   -0.7064436   -3.0324169  
C    4.6439233   -0.4554586   -3.5835284  
C    4.4407876    0.4527125   -4.6645285  
C    3.0496391    0.7227526   -4.7254374  
N    2.4521485    0.0014830   -3.7217479  
C    2.4867670    1.5814353   -5.6744518  
C    3.3439027    2.1786250   -6.5782552  
O    2.8473368    3.0261782   -7.5259303  
C    4.7348369    1.9214475   -6.5337629  
O    5.4551847    2.5913536   -7.5010632  
C    5.2907837    1.0742382   -5.5979825  
H    5.5765057   -0.8761479   -3.2484096  
H    1.4272946    1.7912867   -5.7262423  
H    3.6036632    3.3276080   -8.0459072  
H    6.3843611    2.3627320   -7.4012286  
H    6.3597906    0.8964356   -5.5885594  
H    3.1341698   -1.3355408   -2.2030662  
C    0.0000000    0.0000000    0.0000000  
C    1.0662923   -0.0000105   -0.8334269  
C    0.4961874    0.0000060   -2.1718887  
C   -0.9663853   -0.0000854   -1.9540249  
N   -1.2632772   -0.0000086   -0.6828660  
C   -1.8985357   -0.0000523   -3.0477261  
C   -1.3925768    0.0004559   -4.3020546  
O   -2.1456376    0.0005405   -5.4151317  
C    0.0786242    0.0009317   -4.5545000  
O    0.4683768    0.0012580   -5.7221103  
C    1.0143173    0.0008436   -3.4159030  
H    2.1107200    0.0000630   -0.5721863  
H   -2.9622180   -0.0003275   -2.8593382  
H   -1.5042263    0.0009682   -6.1484421  
C    0.0000000    0.0000000    1.4700000  
C    1.0521667    0.0011902    2.3562342  
C    0.4917218    0.0011957    3.6679131  
C   -0.9187428   -0.0003148    3.5178682  
N   -1.1833171    0.0009411    2.1707914  
C   -1.7951701   -0.0010350    4.6072090  
C   -1.2375837   -0.0005224    5.8710424  
O   -2.0474215   -0.0015360    6.9697579  
C    0.1673580    0.0013566    6.0411963  
O    0.5673524    0.0020687    7.3615553  
C    1.0325770    0.0023412    4.9669890  
H    2.0953057    0.0030649    2.0900562  
H   -2.0989778   -0.0102372    1.7591824  
H   -2.8710934   -0.0020419    4.4995513  
H   -1.4634884   -0.0006497    7.7393593  
H    1.5290710    0.0033153    7.3880045  
H    2.1042148    0.0039609    5.1284455  
