48
1A 10B 37A 38B 11 15 47 44 3 4 1 7 2 0 2 0 nosym
C   -0.1918148   -0.6567178   -5.1170602  
C   -0.1066393   -0.3930679   -6.4645401  
C   -1.1576379    0.5190792   -6.7775725  
C   -1.8568325    0.7783805   -5.5710001  
N   -1.2456336    0.0471730   -4.5828764  
C   -2.9578767    1.6374984   -5.5046085  
C   -3.3602328    2.2461725   -6.6775547  
O   -4.4293353    3.0946810   -6.6693807  
C   -2.6756686    1.9998174   -7.8914320  
O   -3.1976748    2.6804491   -8.9719843  
C   -1.5895503    1.1521861   -7.9577214  
H    0.6225461   -0.8080801   -7.1391116  
H   -3.4951522    1.8391988   -4.5881735  
H   -4.5387352    3.4048095   -7.5777399  
H   -2.6783140    2.4586943   -9.7508898  
H   -1.0853512    0.9828290   -8.9019563  
H    0.4148823   -1.2922853   -4.4950222  
C    1.1243408    0.0099924   -0.7919005  
C    0.7474073    0.0234547   -2.1148544  
C   -0.6787385    0.0234491   -2.1414699  
C   -1.1201747    0.0098593   -0.7935545  
N    0.0000000    0.0000000    0.0000000  
C   -2.4730817    0.0063708   -0.4408237  
C   -3.3971961    0.0170979   -1.4675053  
O   -4.7313517    0.0146259   -1.1793464  
C   -2.9763655    0.0303507   -2.8186320  
O   -4.0166483    0.0395117   -3.7247617  
C   -1.6418568    0.0335262   -3.1673479  
H    1.4178711    0.0310976   -2.9571212  
H   -2.8160166   -0.0041112    0.5845970  
H   -5.1938825    0.0230867   -2.0274377  
H   -3.6464683    0.0482297   -4.6127338  
H    2.1062465    0.0052822   -0.3505410  
C    0.8400945    0.7047457    2.2710304  
C    0.0000000    0.0000000    1.4700000  
C   -0.8844236   -0.7423113    2.3369512  
C   -0.4878984   -0.4098547    3.7186280  
N    0.5629682    0.4714286    3.6095011  
C   -1.0836927   -0.9095027    4.8308716  
C   -2.1891196   -1.8367527    4.6554461  
O   -2.7906899   -2.3413415    5.5944904  
C   -2.6257283   -2.2031529    3.2011665  
O   -3.5549479   -2.9829990    3.0410059  
C   -1.9068976   -1.5999348    2.0816745  
H   -0.7774656   -0.6525820    5.8354244  
H   -2.2155208   -1.8586617    1.0779135  
H    1.6384792    1.3747609    1.9961646  
H    1.0518368    0.8833920    4.3830260  
