50
37A 38B 17A 26B 44 45 27 31 1 7 3 4 2 0 2 0 nosym
C    1.1243415    0.0099159   -0.7919008  
C    0.7474084    0.0234036   -2.1148547  
C   -0.6787372    0.0234950   -2.1414699  
C   -1.1201741    0.0099353   -0.7935545  
N    0.0000000    0.0000000    0.0000000  
C   -2.4730813    0.0065388   -0.4408235  
C   -3.3971951    0.0173288   -1.4675053  
O   -4.7313510    0.0149472   -1.1793456  
C   -2.9763637    0.0305528   -2.8186317  
O   -4.0166458    0.0397846   -3.7247611  
C   -1.6418550    0.0336375   -3.1673478  
H   -2.8160168   -0.0039199    0.5845974  
H   -5.1938811    0.0234395   -2.0274371  
H   -3.6464651    0.0484770   -4.6127333  
H   -1.3497452    0.0436785   -4.2109230  
H    2.1062467    0.0051388   -0.3505413  
C    2.8388023   -0.6745891   -3.3474592  
C    3.4422155   -0.4130089   -4.5557368  
C    2.5991221    0.5024942   -5.2526211  
C    1.4867945    0.7658808   -4.4128110  
N    1.6628963    0.0337773   -3.2649305  
C    0.4498619    1.6290305   -4.7795965  
C    0.5375634    2.2376108   -6.0165754  
O   -0.4473456    3.0899606   -6.4245798  
C    1.6393020    1.9872129   -6.8688022  
O    1.5811198    2.6683001   -8.0671672  
C    2.6624879    1.1356032   -6.5077236  
H    4.3747241   -0.8315172   -4.8937781  
H   -0.4006967    1.8338567   -4.1441452  
H   -0.1937588    3.3992915   -7.3039399  
H    2.3616208    2.4436646   -8.5828808  
H    3.4935053    0.9632029   -7.1816424  
H    3.1534655   -1.3115159   -2.5385894  
C    0.8576279    0.7185626    2.2703808  
C    0.0000000    0.0000000    1.4700000  
C   -0.8668858   -0.7285659    2.3373528  
C   -0.4876752   -0.4117774    3.6669281  
N    0.5635254    0.4678311    3.5902241  
C   -1.1297612   -0.9515493    4.7854808  
C   -2.1738724   -1.8268314    4.5576857  
O   -2.8357962   -2.3827064    5.6140350  
C   -2.5667212   -2.1555554    3.2384331  
O   -3.6226318   -3.0413663    3.1773122  
C   -1.9335634   -1.6236449    2.1344818  
H    1.0363952    0.8769718    4.3757045  
H   -0.8454472   -0.7142436    5.8013813  
H   -3.5178062   -2.9546422    5.2385129  
H   -3.8247440   -3.2102924    2.2519915  
H   -2.2566033   -1.8942483    1.1360343  
H    1.6567807    1.3889844    2.0042067  
