46
4A 5B 27B 31A 32A 41B 11 12 29 44 42 43 1 7 4 2 3 4 2 1 3 0 nosym
C   -3.9849595    0.7194525   -1.9554406  
C   -3.2941076    0.0012878   -2.9038237  
C   -4.2599429   -0.7263558   -3.6603264  
C   -5.5339713   -0.4094406   -3.1233510  
N   -5.3307339    0.4693520   -2.0884427  
C   -6.7219954   -0.9483820   -3.6262732  
C   -6.6220982   -1.8229480   -4.6908544  
O   -7.7507708   -2.3779966   -5.2209802  
C   -5.3599667   -2.1517848   -5.2401318  
O   -5.4269549   -3.0368191   -6.2963376  
C   -4.1875175   -1.6206941   -4.7443185  
H   -6.0533077    0.8783799   -1.5240274  
H   -7.6961103   -0.7109750   -3.2213781  
H   -7.4604459   -2.9495348   -5.9436973  
H   -4.5328205   -3.2058799   -6.6086610  
H   -3.2354104   -1.8913636   -5.1855758  
H   -3.6241066    1.3891894   -1.1937342  
C    0.0000000    0.0000000    0.0000000  
C    1.0541688   -0.0001723   -0.8560392  
C    0.5103136   -0.0000455   -2.1935956  
C   -0.9576373    0.0002461   -2.0455730  
N   -1.2018460   -0.0001389   -0.6915968  
C   -1.8348314    0.0008319   -3.0810607  
C   -1.2972851    0.0009739   -4.4314603  
O   -2.0050676    0.0014268   -5.4301316  
C    0.2542619    0.0004184   -4.6117572  
O    0.7184666    0.0002257   -5.7439122  
C    1.0974551    0.0000873   -3.4189129  
H    2.0940752   -0.0005484   -0.5817983  
H    2.1707276   -0.0000912   -3.5523673  
H   -2.1128194    0.0014915   -0.2706789  
C    3.2798086   -0.0005857    2.9199648  
C    2.5571146   -0.0005566    4.0696553  
C    1.1637436   -0.0001548    3.6910360  
C    1.1336965    0.0000200    2.2159470  
N    2.4483514    0.0001428    1.8102719  
C    0.0000000    0.0000000    1.4700000  
C   -1.2757367    0.0000186    2.1664417  
O   -2.3524596    0.0000640    1.5842315  
C   -1.2676493    0.0000873    3.7284083  
O   -2.3355761    0.0004100    4.3257297  
C    0.0181563   -0.0001760    4.4216297  
H    2.9547357   -0.0006076    5.0689105  
H    0.0150794   -0.0003319    5.5031631  
H    4.3498549   -0.0008612    2.7900019  
H    2.7563627   -0.0012824    0.8551938  
