46
0A 4A 5B 31A 36B 16 12 13 45 43 2 1 7 2 7 3 0 2 0 nosym
C    2.0511541   -2.1229631   -5.2235189  
C    1.1050321   -1.6610332   -4.3381145  
C    0.2551466   -0.7735135   -5.0624098  
C    0.7354627   -0.7333262   -6.3964292  
N    1.8278202   -1.5624306   -6.4593485  
C    0.1362303    0.0430169   -7.3929232  
C   -0.9681770    0.7922083   -7.0363081  
O   -1.5920421    1.5678298   -7.9702338  
C   -1.4621018    0.7656123   -5.7103567  
O   -2.5682658    1.5661318   -5.5130919  
C   -0.8712826    0.0001710   -4.7267111  
H    1.0365885   -1.9297480   -3.2978739  
H    2.3720975   -1.7437442   -7.2832828  
H    0.4975476    0.0781024   -8.4114617  
H   -2.3278633    2.0008052   -7.5181668  
H   -2.8380458    1.4907091   -4.5926934  
H    2.8684779   -2.8068172   -5.0709272  
C    1.0965514    0.0001359   -0.8010305  
C    0.0000000    0.0000000    0.0000000  
C   -1.1546563    0.0001470   -0.8669513  
C   -0.6372014    0.0003519   -2.2486282  
N    0.7342871    0.0007337   -2.1395014  
C   -1.4147739    0.0001352   -3.3608717  
C   -2.8576049   -0.0001048   -3.1854462  
O   -3.6427779   -0.0002494   -4.1244907  
C   -3.4275840   -0.0000725   -1.7311666  
O   -4.6406831    0.0000333   -1.5710060  
C   -2.4891867   -0.0001091   -0.6116744  
H   -2.8919122   -0.0002918    0.3920866  
H    2.1388272    0.0000663   -0.5261648  
H    1.3735872   -0.0006099   -2.9130262  
C    2.3971438    2.0127888    3.1728260  
C    1.9431056    1.6308205    1.9564670  
C    0.8496017    0.7127664    2.2356185  
C    0.7794028    0.6545384    3.7115134  
N    1.6840587    1.4146091    4.2663826  
C   -0.1885723   -0.1578550    4.3957118  
C   -1.0476298   -0.8789867    3.6398520  
O   -2.0015663   -1.6796266    4.1448486  
C   -1.0022026   -0.8410666    2.1483229  
O   -1.8147390   -1.5232959    1.5241687  
C    0.0000000    0.0000000    1.4700000  
H    2.3054237    1.9346118    0.9892483  
H   -0.2170646   -0.1815267    5.4753125  
H   -2.4487139   -2.0549881    3.3649027  
H    3.2048689    2.6911772    3.3971983  
