46
0A 1A 10B 22B 36B 16 11 15 29 42 2 3 4 7 7 3 1 1 0 nosym
C    6.6962559   -0.0006583    0.9128046  
C    7.6449136   -0.0016134   -0.0834457  
C    6.9440359   -0.0023814   -1.3257701  
C    5.5585247   -0.0015569   -1.0219874  
N    5.4432391   -0.0024703    0.3459768  
C    4.5679461   -0.0016854   -2.0086701  
C    4.9836054   -0.0023571   -3.3260176  
O    4.0581868   -0.0021607   -4.3293194  
C    6.3614227   -0.0035604   -3.6491825  
O    6.6142424   -0.0045344   -5.0054362  
C    7.3392016   -0.0037075   -2.6763132  
H    8.7109485   -0.0028461    0.0667591  
H    4.5782209    0.0083750    0.8554935  
H    4.5542211   -0.0030158   -5.1583030  
H    7.5672639   -0.0052862   -5.1371682  
H    8.3866773   -0.0048230   -2.9542897  
H    6.8142877   -0.0002736    1.9828636  
C    3.1301149   -0.0010311   -1.7028252  
C    2.5367768   -0.0002767   -0.4864665  
C    1.1089904    0.0001028   -0.7656183  
C    1.0177872   -0.0004148   -2.2415132  
N    2.1993578   -0.0011611   -2.7963820  
C   -0.2459209   -0.0002877   -2.9257118  
C   -1.3675319   -0.0000605   -2.1698524  
O   -2.6129313    0.0000867   -2.6748490  
C   -1.3083584    0.0000910   -0.6783232  
O   -2.3693261    0.0004206   -0.0541692  
C    0.0000000    0.0000000    0.0000000  
H    3.0096017   -0.0001007    0.4807525  
H   -0.2829630   -0.0004687   -4.0053125  
H   -3.1967441    0.0002094   -1.8949034  
C    0.8175213    0.6860729    2.3021913  
C    0.0000000    0.0000000    1.4700000  
C   -0.8887526   -0.7456559    2.3478473  
C   -0.4549825   -0.3816753    3.7138435  
N    0.5448156    0.4573574    3.6934124  
C   -1.0945674   -0.9182058    4.8835240  
C   -2.1210866   -1.7789155    4.6970523  
O   -2.8083856   -2.3554314    5.6976972  
C   -2.5824069   -2.1655116    3.3310774  
O   -3.5227682   -2.9541547    3.2362962  
C   -1.9100805   -1.6015804    2.1470656  
H   -0.7567140   -0.6349833    5.8697035  
H   -3.4728268   -2.9124471    5.2533954  
H   -2.2742832   -1.9066565    1.1752040  
H    1.6189533    1.3585343    2.0405121  
