48
1A 10B 32A 41B 11 15 42 46 3 4 3 4 2 0 2 0 nosym
C    2.8474534   -0.7110767   -3.3262154  
C    3.4731675   -0.4622735   -4.5258177  
C    2.6437145    0.4464934   -5.2474480  
C    1.5163399    0.7191288   -4.4309786  
N    1.6707639   -0.0012345   -3.2725973  
C    0.4869745    1.5790485   -4.8256100  
C    0.5978533    2.1748299   -6.0669512  
O   -0.3787474    3.0234967   -6.5017246  
C    1.7148788    1.9150610   -6.8961625  
O    1.6792439    2.5838248   -8.1023253  
C    2.7306131    1.0666299   -6.5076081  
H    4.4114155   -0.8847623   -4.8423428  
H   -0.3749638    1.7908775   -4.2080399  
H   -0.1088094    3.3236276   -7.3794036  
H    2.4689213    2.3534579   -8.6012684  
H    3.5737451    0.8868407   -7.1643292  
H    3.1467170   -1.3398320   -2.5051996  
C    1.0965515    0.0001358   -0.8010305  
C    0.0000000    0.0000000    0.0000000  
C   -1.1546564    0.0001470   -0.8669509  
C   -0.6372017    0.0003518   -2.2486278  
N    0.7342868    0.0007337   -2.1395011  
C   -1.4147742    0.0001351   -3.3608713  
C   -2.8576052   -0.0001048   -3.1854458  
O   -3.6427782   -0.0002494   -4.1244899  
C   -3.4275841   -0.0000725   -1.7311663  
O   -4.6406831    0.0000333   -1.5710053  
C   -2.4891868   -0.0001090   -0.6116741  
H   -1.0150454    0.0001614   -4.3654241  
H   -2.8919123   -0.0002920    0.3920869  
H    2.1388270    0.0000662   -0.5261648  
C    0.8676693    0.7151171    2.2619005  
C    0.5875920    0.4624972    3.5848544  
C   -0.5048400   -0.4542819    3.6114698  
C   -0.8517165   -0.7276451    2.2635546  
N    0.0000000    0.0000000    1.4700000  
C   -1.8902865   -1.5946756    1.9108239  
C   -2.5912627   -2.1969500    2.9375057  
O   -3.6148162   -3.0527051    2.6493466  
C   -2.2603868   -1.9365747    4.2886322  
O   -3.0513550   -2.6123276    5.1947621  
C   -1.2361111   -1.0811317    4.6373480  
H    1.1060808    0.8876438    4.4271209  
H   -2.1597133   -1.8070987    0.8854031  
H   -3.9636755   -3.3565188    3.4974381  
H   -2.7621927   -2.3810384    6.0827341  
H   -1.0058879   -0.9010589    5.6809233  
H    1.6167816    1.3499334    1.8205408  
