46
0A 4A 5B 35A 36B 16 12 13 45 42 2 1 7 1 7 3 0 2 0 nosym
C    6.2386722   -2.1223232   -4.2492949  
C    5.2563210   -1.6605102   -3.4042018  
C    4.4370524   -0.7734640   -4.1635093  
C    4.9725246   -0.7334317   -5.4763663  
N    6.0668368   -1.5621683   -5.4935012  
C    4.4150712    0.0424599   -6.4971633  
C    3.2965087    0.7913504   -6.1870693  
O    2.7118370    1.5665271   -7.1463786  
C    2.7477713    0.7649028   -4.8828439  
O    1.6340761    1.5650823   -4.7320482  
C    3.2973504   -0.0000931   -3.8752375  
H    5.1446830   -1.9289971   -2.3676476  
H    6.6450355   -1.7434909   -6.2939940  
H    4.8185038    0.0774252   -7.4997706  
H    1.9576708    1.9993538   -6.7254760  
H    1.3262041    1.4897882   -3.8236709  
H    7.0491603   -2.8058539   -4.0626035  
C    3.3321173    0.0004715   -1.3379333  
C    2.6974184    0.0000117   -2.5332310  
C    1.2800439   -0.0002118   -2.2052839  
C    1.2395035    0.0000643   -0.7271293  
N    2.4394063    0.0005460   -0.2131035  
C    0.0000000    0.0000000    0.0000000  
C   -1.1468702    0.0000634   -0.7169541  
O   -2.3742202    0.0000072   -0.1695491  
C   -1.1388767    0.0001606   -2.2096353  
O   -2.2206230    0.0000901   -2.7970412  
C    0.1454525    0.0001815   -2.9324239  
H   -2.9844345    0.0001024   -0.9290167  
H    0.1083577    0.0003682   -4.0135594  
H    4.3940039    0.0007620   -1.1498632  
C    0.8400945    0.7047457    2.2710304  
C    0.0000000    0.0000000    1.4700000  
C   -0.8844236   -0.7423113    2.3369512  
C   -0.4878984   -0.4098547    3.7186280  
N    0.5629682    0.4714286    3.6095011  
C   -1.0836927   -0.9095027    4.8308716  
C   -2.1891196   -1.8367527    4.6554461  
O   -2.7906899   -2.3413415    5.5944904  
C   -2.6257283   -2.2031529    3.2011665  
O   -3.5549479   -2.9829990    3.0410059  
C   -1.9068976   -1.5999348    2.0816745  
H   -0.7774656   -0.6525820    5.8354244  
H   -2.2155208   -1.8586617    1.0779135  
H    1.6384792    1.3747609    1.9961646  
H    1.0518368    0.8833920    4.3830260  
