48
1A 10B 27B 31A 32A 41B 11 15 29 47 42 46 3 4 4 2 3 4 2 1 3 0 nosym
C    5.6607615   -0.0163854   -2.2932975  
C    6.9286110   -0.0269756   -1.7595245  
C    6.7830846   -0.0173778   -0.3406060  
C    5.3917867   -0.0011659   -0.0650081  
N    4.7390840    0.0009613   -1.2727298  
C    4.8785139    0.0113254    1.2354472  
C    5.7862816    0.0070721    2.2766570  
O    5.3393695    0.0184377    3.5662899  
C    7.1782830   -0.0086633    2.0218986  
O    7.9523718   -0.0106007    3.1638814  
C    7.6853520   -0.0207191    0.7392210  
H    7.8455654   -0.0389093   -2.3234801  
H    3.8192327    0.0238501    1.4521683  
H    6.1255027    0.0133028    4.1277459  
H    8.8784938   -0.0215791    2.9035304  
H    8.7565277   -0.0324763    0.5751398  
H    5.3410106   -0.0183876   -3.3212636  
C    3.2798077    0.0005856   -1.4499661  
C    2.5571132    0.0005565   -2.5996564  
C    1.1637425    0.0001547   -2.2210366  
C    1.1336959   -0.0000200   -0.7459475  
N    2.4483509   -0.0001429   -0.3402730  
C    0.0000000    0.0000000    0.0000000  
C   -1.2757370   -0.0000187   -0.6964411  
O   -2.3524597   -0.0000640   -0.1142306  
C   -1.2676502   -0.0000874   -2.2584078  
O   -2.3355774   -0.0004102   -2.8557287  
C    0.0181551    0.0001758   -2.9516297  
H    2.9547342    0.0006074   -3.5989118  
H    0.0150776    0.0003317   -4.0331632  
H    2.7563626    0.0012823    0.6148051  
C    2.5285572    2.1210227    2.9438989  
C    1.9331703    1.6216660    4.0790748  
C    0.8903039    0.7472258    3.6520102  
C    0.8972198    0.7527806    2.2336141  
N    1.9028376    1.5986179    1.8362361  
C    0.0000000    0.0000000    1.4700000  
C   -0.9207814   -0.7726952    2.1506477  
O   -1.8198395   -1.5274828    1.4542253  
C   -0.9436862   -0.7911793    3.5655508  
O   -1.9197945   -1.6098497    4.0950179  
C   -0.0590329   -0.0485852    4.3195194  
H    2.2150357    1.8593692    5.0905303  
H    2.1533708    1.7953814    0.8841339  
H   -2.3621246   -1.9821033    2.1118817  
H   -1.8668290   -1.5649508    5.0545920  
H   -0.1007624   -0.0827977    5.4019087  
H    3.3491200    2.8096064    2.8367138  
