48
4A 5B 37A 38B 11 12 47 44 1 7 1 7 2 0 2 0 nosym
C   -0.2037734   -0.6658585   -5.1293021  
C   -1.2456336    0.0471730   -4.5828764  
C   -1.8468919    0.7857103   -5.6447855  
C   -1.1232374    0.4804250   -6.8259082  
N   -0.1313243   -0.4022233   -6.4771138  
C   -1.4402451    1.0320029   -8.0709214  
C   -2.5074046    1.9074824   -8.1246301  
O   -2.8602870    2.4746294   -9.3149379  
C   -3.2414136    2.2248286   -6.9570098  
O   -4.2750137    3.1124102   -7.1742967  
C   -2.9290712    1.6812681   -5.7283888  
H    0.5358984   -0.8051183   -7.1099413  
H   -0.8925489    0.8034984   -8.9748116  
H   -3.6184636    3.0445890   -9.1316934  
H   -4.7191126    3.2731938   -6.3361269  
H   -3.5093662    1.9433175   -4.8514248  
H    0.4942809   -1.3405206   -4.6639956  
C    1.1243408    0.0099924   -0.7919005  
C    0.7474073    0.0234547   -2.1148544  
C   -0.6787385    0.0234491   -2.1414699  
C   -1.1201747    0.0098593   -0.7935545  
N    0.0000000    0.0000000    0.0000000  
C   -2.4730817    0.0063708   -0.4408237  
C   -3.3971961    0.0170979   -1.4675053  
O   -4.7313517    0.0146259   -1.1793464  
C   -2.9763655    0.0303507   -2.8186320  
O   -4.0166483    0.0395117   -3.7247617  
C   -1.6418568    0.0335262   -3.1673479  
H    1.4178711    0.0310976   -2.9571212  
H   -2.8160166   -0.0041112    0.5845970  
H   -5.1938825    0.0230867   -2.0274377  
H   -3.6464683    0.0482297   -4.6127338  
H    2.1062465    0.0052822   -0.3505410  
C    0.8400945    0.7047457    2.2710304  
C    0.0000000    0.0000000    1.4700000  
C   -0.8844236   -0.7423113    2.3369512  
C   -0.4878984   -0.4098547    3.7186280  
N    0.5629682    0.4714286    3.6095011  
C   -1.0836927   -0.9095027    4.8308716  
C   -2.1891196   -1.8367527    4.6554461  
O   -2.7906899   -2.3413415    5.5944904  
C   -2.6257283   -2.2031529    3.2011665  
O   -3.5549479   -2.9829990    3.0410059  
C   -1.9068976   -1.5999348    2.0816745  
H   -0.7774656   -0.6525820    5.8354244  
H   -2.2155208   -1.8586617    1.0779135  
H    1.6384792    1.3747609    1.9961646  
H    1.0518368    0.8833920    4.3830260  
