46
1A 10B 36B 41B 11 15 43 44 3 4 7 4 2 0 2 0 nosym
C    4.2050198   -0.7073018   -4.3783574  
C    4.4319894   -0.4569279   -5.7118738  
C    3.4198262    0.4508483   -6.1432296  
C    2.5970947    0.7212888   -5.0198856  
N    3.1006056    0.0006265   -3.9654949  
C    1.4951031    1.5797426   -5.0787128  
C    1.2187980    2.1762880   -6.2936069  
O    0.1547188    3.0235926   -6.4068444  
C    2.0277513    1.9187033   -7.4258888  
O    1.6227010    2.5879794   -8.5622635  
C    3.1148886    1.0717191   -7.3686505  
H    5.2283798   -0.8777614   -6.3014966  
H    0.8640306    1.7898966   -4.2261963  
H    0.1418232    3.3245711   -7.3247280  
H    2.2214368    2.3591155   -9.2797175  
H    3.7160016    0.8935931   -8.2526259  
H    4.7427039   -1.3359643   -3.6894176  
C    3.2798083    0.0005856   -1.4499650  
C    2.5571143    0.0005567   -2.5996555  
C    1.1637433    0.0001550   -2.2210361  
C    1.1336964   -0.0000198   -0.7459472  
N    2.4483513   -0.0001427   -0.3402721  
C    0.0000000    0.0000000    0.0000000  
C   -1.2757369   -0.0000185   -0.6964416  
O   -2.3524597   -0.0000637   -0.1142312  
C   -1.2676495   -0.0000871   -2.2584083  
O   -2.3355763   -0.0004098   -2.8557295  
C    0.0181559    0.0001761   -2.9516296  
H    0.0150790    0.0003322   -4.0331631  
H    4.3498547    0.0008612   -1.3200024  
H    2.7563627    0.0012823    0.6148060  
C    0.0000000    0.0000000    1.4700000  
C    1.0541688    0.0001722    2.3260392  
C    0.5103138    0.0000454    3.6635956  
C   -0.9576371   -0.0002459    3.5155732  
N   -1.2018458    0.0001392    2.1615969  
C   -1.8348311   -0.0008317    4.5510609  
C   -1.2972847   -0.0009736    5.9014604  
O   -2.0050672   -0.0014265    6.9001319  
C    0.2542623   -0.0004184    6.0817573  
O    0.7184670   -0.0002256    7.2139121  
C    1.0974552   -0.0000873    4.8889129  
H    2.0940752    0.0005483    2.0517982  
H   -2.9081052   -0.0011668    4.4207061  
H    2.1707277    0.0000911    5.0223670  
H   -2.1128194   -0.0014912    1.7406791  
