50
37A 38B 5A 17B 26B 44 45 13 27 31 1 7 7 3 4 2 1 2 0 nosym
C    3.3041269    0.0001177   -1.5420434  
C    2.5845370   -0.0004780   -0.3695856  
C    1.2040006   -0.0000007   -0.7283591  
C    1.1422372    0.0006038   -2.1454374  
N    2.4348634    0.0026110   -2.6077469  
C   -0.0655187    0.0008799   -2.8497915  
C   -1.2321772    0.0002326   -2.1101397  
O   -2.4392820    0.0001149   -2.7472517  
C   -1.1911209   -0.0000007   -0.6955263  
O   -2.4371523   -0.0002319   -0.1032858  
C    0.0000000    0.0000000    0.0000000  
H    3.0031535   -0.0000661    0.6222578  
H    2.7054623   -0.0071098   -3.5745264  
H   -0.1193555    0.0014846   -3.9297470  
H   -3.1132995   -0.0000646   -2.0551782  
H   -2.3200286   -0.0004070    0.8516413  
C    5.7082752    0.0170070   -0.7673042  
C    6.9602955    0.0287161   -1.3371954  
C    6.7741492    0.0207405   -2.7513686  
C    5.3755281    0.0043194   -2.9869823  
N    4.7577216    0.0005129   -1.7610467  
C    4.8251842   -0.0068313   -4.2722007  
C    5.7027238   -0.0009975   -5.3390032  
O    5.2190231   -0.0110099   -6.6153058  
C    7.1014517    0.0149720   -5.1242418  
O    7.8424797    0.0185577   -6.2879465  
C    7.6450847    0.0257058   -3.8566162  
H    7.8930377    0.0403355   -0.7997484  
H    3.7601286   -0.0195071   -4.4584768  
H    5.9887338   -0.0049085   -7.1990636  
H    8.7756809    0.0295844   -6.0542421  
H    8.7205204    0.0376810   -3.7233005  
H    5.4181288    0.0176705    0.2694087  
C    0.8576279    0.7185626    2.2703808  
C    0.0000000    0.0000000    1.4700000  
C   -0.8668858   -0.7285659    2.3373528  
C   -0.4876752   -0.4117774    3.6669281  
N    0.5635254    0.4678311    3.5902241  
C   -1.1297612   -0.9515493    4.7854808  
C   -2.1738724   -1.8268314    4.5576857  
O   -2.8357962   -2.3827064    5.6140350  
C   -2.5667212   -2.1555554    3.2384331  
O   -3.6226318   -3.0413663    3.1773122  
C   -1.9335634   -1.6236449    2.1344818  
H    1.0363952    0.8769718    4.3757045  
H   -0.8454472   -0.7142436    5.8013813  
H   -3.5178062   -2.9546422    5.2385129  
H   -3.8247440   -3.2102924    2.2519915  
H   -2.2566033   -1.8942483    1.1360343  
H    1.6567807    1.3889844    2.0042067  
