46
0A 4A 5B 31A 35A 36B 16 12 13 44 45 43 2 1 7 2 1 7 3 0 3 0 nosym
C    6.0248187   -2.1202135   -4.4616489  
C    5.0783100   -1.6588027   -3.5763868  
C    4.2276820   -0.7722182   -4.3009554  
C    4.7079645   -0.7320399   -5.6349872  
N    5.8010155   -1.5602488   -5.6976512  
C    4.1080824    0.0434942   -6.6317203  
C    3.0030484    0.7918705   -6.2753359  
O    2.3785341    1.5666819   -7.2095005  
C    2.5091459    0.7652698   -4.9493763  
O    1.4023121    1.5649237   -4.7523579  
C    3.1006056    0.0006265   -3.9654949  
H    5.0100915   -1.9272544   -2.5360634  
H    6.3454447   -1.7413608   -6.5215297  
H    4.4693702    0.0785683   -7.6502697  
H    1.6423509    1.9991801   -6.7575668  
H    1.1325952    1.4895590   -3.8319362  
H    6.8427146   -2.8033362   -4.3088466  
C    3.2798083    0.0005856   -1.4499650  
C    2.5571143    0.0005567   -2.5996555  
C    1.1637433    0.0001550   -2.2210361  
C    1.1336964   -0.0000198   -0.7459472  
N    2.4483513   -0.0001427   -0.3402721  
C    0.0000000    0.0000000    0.0000000  
C   -1.2757369   -0.0000185   -0.6964416  
O   -2.3524597   -0.0000637   -0.1142312  
C   -1.2676495   -0.0000871   -2.2584083  
O   -2.3355763   -0.0004098   -2.8557295  
C    0.0181559    0.0001761   -2.9516296  
H    0.0150790    0.0003322   -4.0331631  
H    4.3498547    0.0008612   -1.3200024  
H    2.7563627    0.0012823    0.6148060  
C    2.4951002    2.0940188    2.9809380  
C    1.9440701    1.6314916    1.8291961  
C    0.8759964    0.7350050    2.2038498  
C    0.8497377    0.7130254    3.6788474  
N    1.8560616    1.5571714    4.0882609  
C   -0.0205033   -0.0168748    4.4215661  
C   -0.9962600   -0.8356168    3.7214979  
O   -1.8224391   -1.5286685    4.3006425  
C   -0.9864710   -0.8277881    2.1595606  
O   -1.8030528   -1.5133726    1.5592035  
C    0.0000000    0.0000000    1.4700000  
H    2.2509283    1.8888011    0.8310761  
H   -0.0229599   -0.0187323    5.5027230  
H    3.3143982    2.7817323    3.1139444  
H    2.0889452    1.7545833    5.0442112  
