50
5B 10B 33A 37A 38B 13 16 49 45 46 7 4 2 1 7 2 0 3 0 nosym
C   -0.9736295    0.0040466   -4.6965763  
C    0.3184309    0.0036279   -5.1688550  
C    0.2411191    0.0048062   -6.5931519  
C   -1.1354317    0.0062105   -6.9352514  
N   -1.8453660    0.0037555   -5.7602606  
C   -1.5857639    0.0079220   -8.2588778  
C   -0.6290481    0.0085283   -9.2553081  
O   -1.0136081    0.0105402  -10.5649348  
C    0.7492004    0.0067736   -8.9339917  
O    1.5772149    0.0072340  -10.0375026  
C    1.1941862    0.0048114   -7.6284236  
H    1.2073188    0.0014946   -4.5615109  
H   -2.8466241    0.0145839   -5.6871420  
H   -2.6334891    0.0088539   -8.5262249  
H   -0.2014089    0.0103304  -11.0880006  
H    2.4898291    0.0059920   -9.7329740  
H    2.2563102    0.0033149   -7.4130899  
C    1.1188642    0.0008216   -0.8003808  
C    0.0000000    0.0000000    0.0000000  
C   -1.1323861    0.0008904   -0.8673528  
C   -0.6382661    0.0019681   -2.1969280  
N    0.7324017    0.0038477   -2.1202241  
C   -1.4770913    0.0027323   -3.3154808  
C   -2.8395472    0.0020956   -3.0876858  
O   -3.7039201    0.0024441   -4.1440350  
C   -3.3517867    0.0013945   -1.7684332  
O   -4.7300494    0.0012387   -1.7073122  
C   -2.5248543    0.0009134   -0.6644817  
H    1.3576316   -0.0056175   -2.9057045  
H   -4.5940031    0.0021847   -3.7685129  
H   -4.9934602    0.0007284   -0.7819915  
H   -2.9462576    0.0005617    0.3339659  
H    2.1619896    0.0009343   -0.5342067  
C    2.5311839    2.1237619    3.0120429  
C    1.9795631    1.6616747    1.8395852  
C    0.9223175    0.7739173    2.1983588  
C    0.8753926    0.7337535    3.6154372  
N    1.8668922    1.5631002    4.0777464  
C   -0.0496243   -0.0427881    4.3197917  
C   -0.9437528   -0.7922060    3.5801400  
O   -1.8685244   -1.5680278    4.2172520  
C   -0.9124520   -0.7656372    2.1655264  
O   -1.8671164   -1.5663939    1.5732860  
C    0.0000000    0.0000000    1.4700000  
H    2.3005065    1.9304404    0.8477417  
H    2.0679347    1.7444845    5.0445261  
H   -0.0904770   -0.0778569    5.3997470  
H   -2.3849669   -2.0011402    3.5251786  
H   -1.7775064   -1.4909735    0.6183591  
H    3.3468514    2.8078103    3.1724291  
