46
0A 1A 10B 31A 32A 41B 16 11 15 44 42 43 2 3 4 2 3 4 3 0 3 0 nosym
C    4.5572027   -2.1238598   -2.7954707  
C    4.8218136   -1.6261101   -4.0503386  
C    3.7465395   -0.7512512   -4.3865036  
C    2.8482641   -0.7549060   -3.2887724  
N    3.3696291   -1.6000638   -2.3408775  
C    1.6707639   -0.0012345   -3.2725973  
C    1.3951972    0.7704142   -4.3847118  
O    0.2590868    1.5260024   -4.4215026  
C    2.2789328    0.7870006   -5.4899514  
O    1.8644423    1.6048187   -6.5208316  
C    3.4406090    0.0435268   -5.5067082  
H    5.6832610   -1.8651264   -4.6501501  
H    2.9560527   -1.7955157   -1.4471584  
H    0.2603883    1.9796628   -5.2744126  
H    2.5165411    1.5586429   -7.2266920  
H    4.0980144    0.0762840   -6.3676511  
H    5.1209110   -2.8121791   -2.1893294  
C    1.0965515    0.0001358   -0.8010305  
C    0.0000000    0.0000000    0.0000000  
C   -1.1546564    0.0001470   -0.8669509  
C   -0.6372017    0.0003518   -2.2486278  
N    0.7342868    0.0007337   -2.1395011  
C   -1.4147742    0.0001351   -3.3608713  
C   -2.8576052   -0.0001048   -3.1854458  
O   -3.6427782   -0.0002494   -4.1244899  
C   -3.4275841   -0.0000725   -1.7311663  
O   -4.6406831    0.0000333   -1.5710053  
C   -2.4891868   -0.0001090   -0.6116741  
H   -1.0150454    0.0001614   -4.3654241  
H   -2.8919123   -0.0002920    0.3920869  
H    2.1388270    0.0000662   -0.5261648  
C    2.5128556    2.1077716    2.9199648  
C    1.9592212    1.6432552    4.0696553  
C    0.8915788    0.7479214    3.6910360  
C    0.8684491    0.7287414    2.2159470  
N    1.8754542    1.5738793    1.8102719  
C    0.0000000    0.0000000    1.4700000  
C   -0.9772830   -0.8200135    2.1664417  
O   -1.8021297   -1.5120829    1.5842315  
C   -0.9711318   -0.8147624    3.7284083  
O   -1.7894187   -1.5009653    4.3257297  
C    0.0140216    0.0115358    4.4216297  
H    2.2638494    1.8988021    5.0689105  
H    0.0117648    0.0094386    5.5031631  
H    3.3327358    2.7953732    2.7900019  
H    2.1123206    1.7707734    0.8551938  
