48
4A 5B 22B 33A 34A 43B 11 12 30 46 44 45 1 7 7 2 3 4 2 1 3 0 nosym
C    3.4043900   -0.7238081   -2.9866276  
C    2.4861704   -0.0045250   -3.7159919  
C    3.2157051    0.7222719   -4.7029796  
C    4.5864960    0.4037115   -4.5258408  
N    4.6660350   -0.4752044   -3.4742717  
C    5.5976560    0.9414642   -5.3278179  
C    5.2180660    1.8165113   -6.3270089  
O    6.1647839    2.3704486   -7.1393468  
C    3.8554681    2.1469838   -6.5191801  
O    3.6389492    3.0323049   -7.5548780  
C    2.8574275    1.6170664   -5.7282138  
H    5.5126288   -0.8852548   -3.1233888  
H    6.6442453    0.7028013   -5.1978455  
H    5.6926415    2.9425684   -7.7582368  
H    2.6940800    3.2024982   -7.6170084  
H    1.8223730    1.8889791   -5.8991049  
H    3.2593137   -1.3933936   -2.1562259  
C    0.0000000    0.0000000    0.0000000  
C    1.0521669   -0.0011846   -0.8862340  
C    0.4917221   -0.0011929   -2.1979129  
C   -0.9187427    0.0003105   -2.0478683  
N   -1.1833170   -0.0009470   -0.7007914  
C   -1.7951698    0.0010264   -3.1372090  
C   -1.2375835    0.0005167   -4.4010424  
O   -2.0474208    0.0015263   -5.4997579  
C    0.1673584   -0.0013551   -4.5711963  
O    0.5673529   -0.0020652   -5.8915551  
C    1.0325773   -0.0023355   -3.4969889  
H    2.0953059   -0.0030541   -0.6200561  
H   -2.0989778    0.0102266   -0.2891826  
H   -2.8710930    0.0020277   -3.0295514  
H   -1.4634881    0.0006434   -6.2693595  
H    1.5290714   -0.0033067   -5.9180046  
C    3.2798086   -0.0005857    2.9199648  
C    2.5571146   -0.0005566    4.0696553  
C    1.1637436   -0.0001548    3.6910360  
C    1.1336965    0.0000200    2.2159470  
N    2.4483514    0.0001428    1.8102719  
C    0.0000000    0.0000000    1.4700000  
C   -1.2757367    0.0000186    2.1664417  
O   -2.3524596    0.0000640    1.5842315  
C   -1.2676493    0.0000873    3.7284083  
O   -2.3355761    0.0004100    4.3257297  
C    0.0181563   -0.0001760    4.4216297  
H    2.9547357   -0.0006076    5.0689105  
H    0.0150794   -0.0003319    5.5031631  
H    4.3498549   -0.0008612    2.7900019  
H    2.7563627   -0.0012824    0.8551938  
