46
1A 10B 22B 35A 36B 11 15 29 45 42 3 4 7 1 7 2 1 2 0 nosym
C    5.6407085    0.0170452   -0.6743879  
C    6.9070325    0.0276884   -1.2117679  
C    6.7574706    0.0178707   -2.6302653  
C    5.3653958    0.0014762   -2.9019006  
N    4.7161325   -0.0005435   -1.6923264  
C    4.8484260   -0.0112557   -4.2008885  
C    5.7532268   -0.0070596   -5.2446778  
O    5.3026480   -0.0186573   -6.5330320  
C    7.1459454    0.0088555   -4.9938833  
O    7.9167823    0.0107074   -6.1380647  
C    7.6566618    0.0211486   -3.7126559  
H    7.8255871    0.0397977   -0.6504257  
H    3.7885337   -0.0239203   -4.4145928  
H    6.0871804   -0.0135228   -7.0967235  
H    8.8436393    0.0218184   -5.8803514  
H    8.7282989    0.0330394   -3.5516249  
H    5.3238838    0.0191630    0.3544834  
C    3.2573665   -0.0002920   -1.5109385  
C    2.5379463   -0.0001709   -0.3591964  
C    1.1435038    0.0000331   -0.7338500  
C    1.1092599   -0.0000083   -2.2088477  
N    2.4227553    0.0001909   -2.6182613  
C   -0.0265539   -0.0002524   -2.9515660  
C   -1.3003040   -0.0002640   -2.2514977  
O   -2.3786790   -0.0004133   -2.8306421  
C   -1.2877727    0.0000311   -0.6895603  
O   -2.3539959    0.0003306   -0.0892030  
C    0.0000000    0.0000000    0.0000000  
H    2.9384091   -0.0000367    0.6389234  
H   -0.0296303   -0.0004086   -4.0327229  
H    2.7280482   -0.0013407   -3.5742119  
C    0.8400945    0.7047457    2.2710304  
C    0.0000000    0.0000000    1.4700000  
C   -0.8844236   -0.7423113    2.3369512  
C   -0.4878984   -0.4098547    3.7186280  
N    0.5629682    0.4714286    3.6095011  
C   -1.0836927   -0.9095027    4.8308716  
C   -2.1891196   -1.8367527    4.6554461  
O   -2.7906899   -2.3413415    5.5944904  
C   -2.6257283   -2.2031529    3.2011665  
O   -3.5549479   -2.9829990    3.0410059  
C   -1.9068976   -1.5999348    2.0816745  
H   -0.7774656   -0.6525820    5.8354244  
H   -2.2155208   -1.8586617    1.0779135  
H    1.6384792    1.3747609    1.9961646  
H    1.0518368    0.8833920    4.3830260  
