46
1A 10B 31A 32A 41B 11 15 44 42 43 3 4 2 3 4 2 0 3 0 nosym
C    4.4176665   -0.7085316   -4.2417829  
C    4.7001260   -0.4581803   -5.5646620  
C    3.7072550    0.4501167   -6.0377405  
C    2.8385605    0.7208836   -4.9496310  
N    3.2973504   -0.0000931   -3.8752375  
C    1.7403925    1.5798775   -5.0542519  
C    1.5152389    2.1766372   -6.2795527  
O    0.4572121    3.0244670   -6.4369578  
C    2.3705457    1.9187335   -7.3771653  
O    2.0135222    2.5882814   -8.5293734  
C    3.4539441    1.0712166   -7.2747500  
H    5.5201900   -0.8793625   -6.1206243  
H    1.0744465    1.7902824   -4.2287537  
H    0.4827203    3.3255122   -7.3545556  
H    2.6415226    2.3591734   -9.2212755  
H    4.0912830    0.8928563   -8.1329255  
H    4.9258723   -1.3375011   -3.5310909  
C    3.3321173    0.0004715   -1.3379333  
C    2.6974184    0.0000117   -2.5332310  
C    1.2800439   -0.0002118   -2.2052839  
C    1.2395035    0.0000643   -0.7271293  
N    2.4394063    0.0005460   -0.2131035  
C    0.0000000    0.0000000    0.0000000  
C   -1.1468702    0.0000634   -0.7169541  
O   -2.3742202    0.0000072   -0.1695491  
C   -1.1388767    0.0001606   -2.2096353  
O   -2.2206230    0.0000901   -2.7970412  
C    0.1454525    0.0001815   -2.9324239  
H   -2.9844345    0.0001024   -0.9290167  
H    0.1083577    0.0003682   -4.0135594  
H    4.3940039    0.0007620   -1.1498632  
C    2.5128556    2.1077716    2.9199648  
C    1.9592212    1.6432552    4.0696553  
C    0.8915788    0.7479214    3.6910360  
C    0.8684491    0.7287414    2.2159470  
N    1.8754542    1.5738793    1.8102719  
C    0.0000000    0.0000000    1.4700000  
C   -0.9772830   -0.8200135    2.1664417  
O   -1.8021297   -1.5120829    1.5842315  
C   -0.9711318   -0.8147624    3.7284083  
O   -1.7894187   -1.5009653    4.3257297  
C    0.0140216    0.0115358    4.4216297  
H    2.2638494    1.8988021    5.0689105  
H    0.0117648    0.0094386    5.5031631  
H    3.3327358    2.7953732    2.7900019  
H    2.1123206    1.7707734    0.8551938  
