46
4A 5B 32A 41B 11 12 42 44 1 7 3 4 2 0 2 0 nosym
C    0.2219330   -0.7178168   -5.1531390  
C   -0.8712826    0.0001710   -4.7267111  
C   -1.3565081    0.7281963   -5.8532701  
C   -0.5124007    0.4116856   -6.9483635  
N    0.4364922   -0.4672439   -6.4882518  
C   -0.6957659    0.9510688   -8.2251690  
C   -1.7506492    1.8256690   -8.3997351  
O   -1.9754543    2.3811410   -9.6260828  
C   -2.6036190    2.1541064   -7.3192782  
O   -3.6078488    3.0392319   -7.6530735  
C   -2.4231557    1.6225794   -6.0593424  
H    1.1665146   -0.8760590   -7.0431561  
H   -0.0558516    0.7139716   -9.0639167  
H   -2.7483264    2.9526257   -9.5294477  
H   -4.1378545    3.2080048   -6.8680809  
H   -3.0926191    1.8929494   -5.2511363  
H    0.8664585   -1.3877272   -4.6102155  
C    1.0965514    0.0001359   -0.8010305  
C    0.0000000    0.0000000    0.0000000  
C   -1.1546563    0.0001470   -0.8669513  
C   -0.6372014    0.0003519   -2.2486282  
N    0.7342871    0.0007337   -2.1395014  
C   -1.4147739    0.0001352   -3.3608717  
C   -2.8576049   -0.0001048   -3.1854462  
O   -3.6427779   -0.0002494   -4.1244907  
C   -3.4275840   -0.0000725   -1.7311666  
O   -4.6406831    0.0000333   -1.5710060  
C   -2.4891867   -0.0001091   -0.6116744  
H   -2.8919122   -0.0002918    0.3920866  
H    2.1388272    0.0000663   -0.5261648  
H    1.3735872   -0.0006099   -2.9130262  
C    0.8681109    0.7263879    2.2709268  
C    0.6127770    0.5096195    3.5869401  
C   -0.4920590   -0.4175482    3.6542670  
C   -0.8620974   -0.7254003    2.2596025  
N    0.0000000    0.0000000    1.4700000  
C   -1.8641242   -1.5660088    1.8976294  
C   -2.6293522   -2.2103885    2.9520183  
O   -3.5512764   -2.9839180    2.7283916  
C   -2.2549728   -1.8987399    4.4361073  
O   -2.8923672   -2.4351063    5.3323774  
C   -1.1543735   -0.9755647    4.7012123  
H    1.1382914    0.9492124    4.4159191  
H   -2.1192137   -1.7782617    0.8686553  
H   -0.9013378   -0.7652422    5.7314848  
H    1.6172880    1.3558399    1.8188057  
