50
33A 34A 43B 10A 16A 17B 26B 49 44 48 15 32 27 31 2 3 4 4 2 3 4 3 1 3 0 nosym
C    3.3003548    0.0005276   -1.4738982  
C    2.5232817    0.0003497   -2.6090743  
C    1.1623206   -0.0001319   -2.1820098  
C    1.1711888    0.0000583   -0.7636138  
N    2.4852302   -0.0014919   -0.3662355  
C    0.0000000    0.0000000    0.0000000  
C   -1.2020381    0.0000520   -0.6806479  
O   -2.3759246    0.0003495    0.0157742  
C   -1.2314650   -0.0005112   -2.0955510  
O   -2.5054382   -0.0008036   -2.6250182  
C   -0.0764510   -0.0007271   -2.8495193  
H    2.8919962   -0.0005619   -3.6205297  
H    2.8036267    0.0088181    0.5858667  
H   -3.0835639    0.0000348   -0.6418822  
H   -2.4360046   -0.0011526   -3.5845924  
H   -0.1304090   -0.0013420   -3.9319086  
C    6.5582216    0.0029727   -4.4647472  
C    7.6103885    0.0023859   -3.5785128  
C    7.0499437    0.0016138   -2.2668344  
C    5.6394785    0.0014821   -2.4168798  
N    5.3749058    0.0042715   -3.7639548  
C    4.7630507    0.0004755   -1.3275395  
C    5.3206371   -0.0007212   -0.0637066  
O    4.5107985   -0.0020884    1.0350080  
C    6.7255795   -0.0002355    0.1064481  
O    7.1255747   -0.0011496    1.4268069  
C    7.5907998    0.0010305   -0.9677582  
H    8.6535288    0.0036054   -3.8446898  
H    4.4592357   -0.0057080   -4.1755736  
H    5.0947322   -0.0024568    1.8046094  
H    8.0872936   -0.0007698    1.4532568  
H    8.6624382    0.0015568   -0.8063011  
H    6.5582215    0.0040132   -5.5412967  
C    2.5285572    2.1210227    2.9438989  
C    1.9331703    1.6216660    4.0790748  
C    0.8903039    0.7472258    3.6520102  
C    0.8972198    0.7527806    2.2336141  
N    1.9028376    1.5986179    1.8362361  
C    0.0000000    0.0000000    1.4700000  
C   -0.9207814   -0.7726952    2.1506477  
O   -1.8198395   -1.5274828    1.4542253  
C   -0.9436862   -0.7911793    3.5655508  
O   -1.9197945   -1.6098497    4.0950179  
C   -0.0590329   -0.0485852    4.3195194  
H    2.2150357    1.8593692    5.0905303  
H    2.1533708    1.7953814    0.8841339  
H   -2.3621246   -1.9821033    2.1118817  
H   -1.8668290   -1.5649508    5.0545920  
H   -0.1007624   -0.0827977    5.4019087  
H    3.3491200    2.8096064    2.8367138  
