46
0A 4A 5B 17A 31A 32A 41B 16 12 13 29 45 42 44 2 1 7 2 2 3 4 3 1 3 0 nosym
C    2.5432463   -2.1201840   -5.9711743  
C    1.9944225   -1.6589126   -4.7970839  
C    0.9351213   -0.7723428   -5.1527175  
C    0.8841180   -0.7320296   -6.5696508  
N    1.8752691   -1.5601475   -7.0349013  
C   -0.0438078    0.0435293   -7.2712561  
C   -0.9367056    0.7917923   -6.5289532  
O   -1.8641942    1.5666219   -7.1633175  
C   -0.9013494    0.7650561   -5.1144387  
O   -1.8552619    1.5646080   -4.5193663  
C    0.0139740    0.0003882   -4.4216236  
H    2.3185009   -1.9274451   -3.8061974  
H    2.0737724   -1.7411563   -8.0022753  
H   -0.0877740    0.0787059   -8.3510855  
H   -2.3791726    1.9990291   -6.4697139  
H   -1.7628474    1.4891551   -3.5647095  
H    3.3592548   -2.8032532   -6.1339816  
C    3.2798084    0.0005857   -1.4499648  
C    2.5571144    0.0005567   -2.5996554  
C    1.1637435    0.0001550   -2.2210360  
C    1.1336965   -0.0000199   -0.7459471  
N    2.4483512   -0.0001427   -0.3402718  
C    0.0000000    0.0000000    0.0000000  
C   -1.2757368   -0.0000186   -0.6964414  
O   -2.3524597   -0.0000639   -0.1142313  
C   -1.2676495   -0.0000872   -2.2584081  
O   -2.3355764   -0.0004099   -2.8557294  
C    0.0181561    0.0001761   -2.9516296  
H    2.9547355    0.0006077   -3.5989105  
H    4.3498548    0.0008614   -1.3200022  
H    2.7563628    0.0012824    0.6148063  
C    2.5528530    2.1414826    2.8079335  
C    2.0663498    1.7338582    4.0032312  
C    0.9804344    0.8229586    3.6752840  
C    0.9495562    0.7966882    2.1971295  
N    1.8690446    1.5676019    1.6831036  
C    0.0000000    0.0000000    1.4700000  
C   -0.8785127   -0.7372425    2.1869543  
O   -1.8187535   -1.5261249    1.6395491  
C   -0.8723269   -0.7321790    3.6796354  
O   -1.7010379   -1.4274584    4.2670412  
C    0.1115397    0.0933559    4.4024240  
H    2.4028853    2.0163452    4.9860947  
H   -2.2861435   -1.9184361    2.3990168  
H    0.0832434    0.0693689    5.4835595  
H    3.3664920    2.8238276    2.6198634  
