50
33A 37A 38B 5B 21B 26B 49 45 46 13 29 32 2 1 7 7 7 4 3 1 2 0 nosym
C    3.3041269    0.0001177   -1.5420434  
C    2.5845370   -0.0004780   -0.3695856  
C    1.2040006   -0.0000007   -0.7283591  
C    1.1422372    0.0006038   -2.1454374  
N    2.4348634    0.0026110   -2.6077469  
C   -0.0655187    0.0008799   -2.8497915  
C   -1.2321772    0.0002326   -2.1101397  
O   -2.4392820    0.0001149   -2.7472517  
C   -1.1911209   -0.0000007   -0.6955263  
O   -2.4371523   -0.0002319   -0.1032858  
C    0.0000000    0.0000000    0.0000000  
H    3.0031535   -0.0000661    0.6222578  
H    2.7054623   -0.0071098   -3.5745264  
H   -0.1193555    0.0014846   -3.9297470  
H   -3.1132995   -0.0000646   -2.0551782  
H   -2.3200286   -0.0004070    0.8516413  
C    4.7577216    0.0005129   -1.7610467  
C    5.7908195   -0.0019868   -0.8526580  
C    7.0043636   -0.0008153   -1.6022639  
C    6.6458593    0.0027296   -2.9746298  
N    5.2743991    0.0015007   -3.0355631  
C    7.5924713    0.0050318   -4.0035660  
C    8.9252702    0.0040387   -3.6404920  
O    9.8910729    0.0065389   -4.6049782  
C    9.3028361    0.0001389   -2.2765837  
O   10.6680520   -0.0008066   -2.0777643  
C    8.3695192   -0.0024071   -1.2609857  
H    5.6830210   -0.0054674    0.2184912  
H    4.7309660    0.0139152   -3.8796648  
H    7.3257211    0.0075923   -5.0514402  
H   10.7390805    0.0050006   -4.1422204  
H   10.8374849   -0.0034607   -1.1307220  
H    8.6888293   -0.0055597   -0.2253651  
C    2.5311839    2.1237619    3.0120429  
C    1.9795631    1.6616747    1.8395852  
C    0.9223175    0.7739173    2.1983588  
C    0.8753926    0.7337535    3.6154372  
N    1.8668922    1.5631002    4.0777464  
C   -0.0496243   -0.0427881    4.3197917  
C   -0.9437528   -0.7922060    3.5801400  
O   -1.8685244   -1.5680278    4.2172520  
C   -0.9124520   -0.7656372    2.1655264  
O   -1.8671164   -1.5663939    1.5732860  
C    0.0000000    0.0000000    1.4700000  
H    2.3005065    1.9304404    0.8477417  
H    2.0679347    1.7444845    5.0445261  
H   -0.0904770   -0.0778569    5.3997470  
H   -2.3849669   -2.0011402    3.5251786  
H   -1.7775064   -1.4909735    0.6183591  
H    3.3468514    2.8078103    3.1724291  
