46
0A 4A 5B 27B 36B 41B 16 12 13 29 43 45 2 1 7 4 7 4 3 1 2 0 nosym
C    6.6682522    0.0022276   -4.3668309  
C    5.4175873    0.0023081   -3.7938519  
C    5.6072942    0.0015089   -2.3801297  
C    7.0065885    0.0012481   -2.1479616  
N    7.6213763   -0.0002536   -3.3754187  
C    7.5601869    0.0007902   -0.8640936  
C    6.6852682    0.0008990    0.2048753  
O    7.1721933    0.0008180    1.4799903  
C    5.2859246    0.0007830   -0.0064392  
O    4.5477717    0.0004895    1.1590965  
C    4.7390840    0.0009613   -1.2727298  
H    4.4834519    0.0017680   -4.3290000  
H    8.6137258    0.0097952   -3.5274775  
H    8.6257728    0.0004456   -0.6804407  
H    6.4039032    0.0006187    2.0656480  
H    3.6139327    0.0004556    0.9276922  
H    6.9558185    0.0022981   -5.4042627  
C    3.2798077    0.0005856   -1.4499661  
C    2.5571132    0.0005565   -2.5996564  
C    1.1637425    0.0001547   -2.2210366  
C    1.1336959   -0.0000200   -0.7459475  
N    2.4483509   -0.0001429   -0.3402730  
C    0.0000000    0.0000000    0.0000000  
C   -1.2757370   -0.0000187   -0.6964411  
O   -2.3524597   -0.0000640   -0.1142306  
C   -1.2676502   -0.0000874   -2.2584078  
O   -2.3355774   -0.0004102   -2.8557287  
C    0.0181551    0.0001758   -2.9516297  
H    2.9547342    0.0006074   -3.5989118  
H    0.0150776    0.0003317   -4.0331632  
H    2.7563626    0.0012823    0.6148051  
C    0.0000000    0.0000000    1.4700000  
C    1.0662921    0.0000102    2.3034270  
C    0.4961870   -0.0000064    3.6418889  
C   -0.9663858    0.0000850    3.4240247  
N   -1.2632773    0.0000084    2.1528658  
C   -1.8985362    0.0000517    4.5177257  
C   -1.3925775   -0.0004564    5.7720543  
O   -2.1456383   -0.0005410    6.8851312  
C    0.0786232   -0.0009323    6.0245000  
O    0.4683759   -0.0012588    7.1921102  
C    1.0143166   -0.0008442    4.8859032  
H    2.1107198   -0.0000632    2.0421868  
H   -2.9622183    0.0003270    4.3293377  
H   -1.5042274   -0.0009692    7.6184419  
H    2.0724152   -0.0013148    5.1109744  
