46
4A 5B 27B 36B 11 12 29 42 1 7 4 7 2 1 1 0 nosym
C   -3.9849595    0.7194525   -1.9554406  
C   -3.2941076    0.0012878   -2.9038237  
C   -4.2599429   -0.7263558   -3.6603264  
C   -5.5339713   -0.4094406   -3.1233510  
N   -5.3307339    0.4693520   -2.0884427  
C   -6.7219954   -0.9483820   -3.6262732  
C   -6.6220982   -1.8229480   -4.6908544  
O   -7.7507708   -2.3779966   -5.2209802  
C   -5.3599667   -2.1517848   -5.2401318  
O   -5.4269549   -3.0368191   -6.2963376  
C   -4.1875175   -1.6206941   -4.7443185  
H   -6.0533077    0.8783799   -1.5240274  
H   -7.6961103   -0.7109750   -3.2213781  
H   -7.4604459   -2.9495348   -5.9436973  
H   -4.5328205   -3.2058799   -6.6086610  
H   -3.2354104   -1.8913636   -5.1855758  
H   -3.6241066    1.3891894   -1.1937342  
C    0.0000000    0.0000000    0.0000000  
C    1.0541688   -0.0001723   -0.8560392  
C    0.5103136   -0.0000455   -2.1935956  
C   -0.9576373    0.0002461   -2.0455730  
N   -1.2018460   -0.0001389   -0.6915968  
C   -1.8348314    0.0008319   -3.0810607  
C   -1.2972851    0.0009739   -4.4314603  
O   -2.0050676    0.0014268   -5.4301316  
C    0.2542619    0.0004184   -4.6117572  
O    0.7184666    0.0002257   -5.7439122  
C    1.0974551    0.0000873   -3.4189129  
H    2.0940752   -0.0005484   -0.5817983  
H    2.1707276   -0.0000912   -3.5523673  
H   -2.1128194    0.0014915   -0.2706789  
C    1.0672568    0.0000697    2.3021913  
C    0.0000000    0.0000000    1.4700000  
C   -1.1601224    0.0000736    2.3478473  
C   -0.5938729    0.0000769    3.7138435  
N    0.7113367    0.0001554    3.6934124  
C   -1.4286986    0.0001879    4.8835240  
C   -2.7683114    0.0006799    4.6970523  
O   -3.6653903    0.0008304    5.6976972  
C   -3.3702025    0.0010610    3.3310774  
O   -4.5974910    0.0013779    3.2362962  
C   -2.4926826    0.0008943    2.1470656  
H   -0.9878360   -0.0000190    5.8697035  
H   -4.5324246    0.0012261    5.2533954  
H   -2.9677772    0.0012974    1.1752040  
H    2.1134392    0.0000545    2.0405121  
