46
5B 10B 22B 32A 41B 13 16 29 42 44 7 4 7 3 4 2 1 2 0 nosym
C    2.5562217   -0.0001550   -3.6003003  
C    3.5655131   -0.0006160   -2.6655287  
C    4.7980131   -0.0013041   -3.3835423  
C    4.4750732   -0.0009423   -4.7647139  
N    3.1056445   -0.0021962   -4.8610459  
C    5.4479446   -0.0011310   -5.7688610  
C    6.7709219   -0.0013881   -5.3714832  
O    7.7613126   -0.0012295   -6.3107063  
C    7.1131349   -0.0021263   -3.9982730  
O    8.4727598   -0.0027234   -3.7642577  
C    6.1538991   -0.0022139   -3.0071160  
H    3.4300850   -0.0015789   -1.5975158  
H    2.5841959    0.0082882   -5.7189282  
H    5.2083487   -0.0010015   -6.8232780  
H    8.5970861   -0.0017569   -5.8261986  
H    8.6176770   -0.0031742   -2.8131517  
H    6.4463537   -0.0029686   -1.9635895  
C    0.0000000    0.0000000    0.0000000  
C    1.0541688   -0.0001721   -0.8560392  
C    0.5103141   -0.0000453   -2.1935956  
C   -0.9576367    0.0002460   -2.0455735  
N   -1.2018459   -0.0001391   -0.6915971  
C   -1.8348307    0.0008318   -3.0810613  
C   -1.2972842    0.0009738   -4.4314606  
O   -2.0050665    0.0014267   -5.4301324  
C    0.2542628    0.0004186   -4.6117571  
O    0.7184677    0.0002259   -5.7439121  
C    1.0974556    0.0000875   -3.4189129  
H    2.0940752   -0.0005483   -0.5817982  
H   -2.9081051    0.0011669   -2.9507066  
H   -2.1128195    0.0014912   -0.2706794  
C    1.1319247   -0.0015655    2.2709268  
C    0.7969915   -0.0034943    3.5869401  
C   -0.6453339   -0.0035710    3.6542670  
C   -1.1266833   -0.0015433    2.2596025  
N    0.0000000    0.0000000    1.4700000  
C   -2.4346130   -0.0013964    1.8976294  
C   -3.4350110   -0.0031408    2.9520183  
O   -4.6384611   -0.0030974    2.7283916  
C   -2.9478959   -0.0050506    4.4361073  
O   -3.7809380   -0.0062218    5.3323774  
C   -1.5113823   -0.0053090    4.7012123  
H    1.4821238   -0.0045407    4.4159191  
H   -2.7664565   -0.0000232    0.8686553  
H   -1.1823530   -0.0068408    5.7314848  
H    2.1104316   -0.0009391    1.8188057  
