46
4A 5B 22B 32A 41B 11 12 29 42 44 1 7 7 3 4 2 1 2 0 nosym
C    5.6484569    0.0004439   -0.6807742  
C    4.7161325   -0.0005435   -1.6923264  
C    5.4371285   -0.0001079   -2.9230842  
C    6.8175139    0.0008760   -2.5968008  
N    6.9105274    0.0031396   -1.2271437  
C    7.8240133    0.0012220   -3.5672375  
C    7.4298416    0.0002555   -4.8911732  
O    8.3714601    0.0001894   -5.8792860  
C    6.0574641   -0.0003586   -5.2367110  
O    5.8267421   -0.0008767   -6.5968984  
C    5.0639870   -0.0004269   -4.2798782  
H    7.7671524   -0.0062908   -0.7036122  
H    8.8778471    0.0021151   -3.3250885  
H    7.8889790   -0.0002465   -6.7162301  
H    4.8759897   -0.0013000   -6.7441179  
H    4.0211715   -0.0007219   -4.5748592  
H    5.5130313    0.0008845    0.3872233  
C    3.2573665   -0.0002920   -1.5109385  
C    2.5379463   -0.0001709   -0.3591964  
C    1.1435038    0.0000331   -0.7338500  
C    1.1092599   -0.0000083   -2.2088477  
N    2.4227553    0.0001909   -2.6182613  
C   -0.0265539   -0.0002524   -2.9515660  
C   -1.3003040   -0.0002640   -2.2514977  
O   -2.3786790   -0.0004133   -2.8306421  
C   -1.2877727    0.0000311   -0.6895603  
O   -2.3539959    0.0003306   -0.0892030  
C    0.0000000    0.0000000    0.0000000  
H    2.9384091   -0.0000367    0.6389234  
H   -0.0296303   -0.0004086   -4.0327229  
H    2.7280482   -0.0013407   -3.5742119  
C    0.8681109    0.7263879    2.2709268  
C    0.6127770    0.5096195    3.5869401  
C   -0.4920590   -0.4175482    3.6542670  
C   -0.8620974   -0.7254003    2.2596025  
N    0.0000000    0.0000000    1.4700000  
C   -1.8641242   -1.5660088    1.8976294  
C   -2.6293522   -2.2103885    2.9520183  
O   -3.5512764   -2.9839180    2.7283916  
C   -2.2549728   -1.8987399    4.4361073  
O   -2.8923672   -2.4351063    5.3323774  
C   -1.1543735   -0.9755647    4.7012123  
H    1.1382914    0.9492124    4.4159191  
H   -2.1192137   -1.7782617    0.8686553  
H   -0.9013378   -0.7652422    5.7314848  
H    1.6172880    1.3558399    1.8188057  
