46
0A 4A 5B 17A 35A 36B 16 12 13 29 45 42 2 1 7 2 1 7 3 1 2 0 nosym
C    2.5432463   -2.1201840   -5.9711743  
C    1.9944225   -1.6589126   -4.7970839  
C    0.9351213   -0.7723428   -5.1527175  
C    0.8841180   -0.7320296   -6.5696508  
N    1.8752691   -1.5601475   -7.0349013  
C   -0.0438078    0.0435293   -7.2712561  
C   -0.9367056    0.7917923   -6.5289532  
O   -1.8641942    1.5666219   -7.1633175  
C   -0.9013494    0.7650561   -5.1144387  
O   -1.8552619    1.5646080   -4.5193663  
C    0.0139740    0.0003882   -4.4216236  
H    2.3185009   -1.9274451   -3.8061974  
H    2.0737724   -1.7411563   -8.0022753  
H   -0.0877740    0.0787059   -8.3510855  
H   -2.3791726    1.9990291   -6.4697139  
H   -1.7628474    1.4891551   -3.5647095  
H    3.3592548   -2.8032532   -6.1339816  
C    3.2798084    0.0005857   -1.4499648  
C    2.5571144    0.0005567   -2.5996554  
C    1.1637435    0.0001550   -2.2210360  
C    1.1336965   -0.0000199   -0.7459471  
N    2.4483512   -0.0001427   -0.3402718  
C    0.0000000    0.0000000    0.0000000  
C   -1.2757368   -0.0000186   -0.6964414  
O   -2.3524597   -0.0000639   -0.1142313  
C   -1.2676495   -0.0000872   -2.2584081  
O   -2.3355764   -0.0004099   -2.8557294  
C    0.0181561    0.0001761   -2.9516296  
H    2.9547355    0.0006077   -3.5989105  
H    4.3498548    0.0008614   -1.3200022  
H    2.7563628    0.0012824    0.6148063  
C    0.8400945    0.7047457    2.2710304  
C    0.0000000    0.0000000    1.4700000  
C   -0.8844236   -0.7423113    2.3369512  
C   -0.4878984   -0.4098547    3.7186280  
N    0.5629682    0.4714286    3.6095011  
C   -1.0836927   -0.9095027    4.8308716  
C   -2.1891196   -1.8367527    4.6554461  
O   -2.7906899   -2.3413415    5.5944904  
C   -2.6257283   -2.2031529    3.2011665  
O   -3.5549479   -2.9829990    3.0410059  
C   -1.9068976   -1.5999348    2.0816745  
H   -0.7774656   -0.6525820    5.8354244  
H   -2.2155208   -1.8586617    1.0779135  
H    1.6384792    1.3747609    1.9961646  
H    1.0518368    0.8833920    4.3830260  
