48
5B 10B 27B 38B 13 16 32 44 7 4 4 7 2 1 1 0 nosym
C   -3.2578655    0.0024039   -2.9908504  
C   -4.0349373    0.0043588   -1.8556751  
C   -5.3958978    0.0056180   -2.2827400  
C   -5.3870308    0.0040491   -3.7011352  
N   -4.0729888    0.0040658   -4.0985144  
C   -6.5582196    0.0043938   -4.4647489  
C   -7.7602566    0.0060511   -3.7841015  
O   -8.9341439    0.0061073   -4.4805229  
C   -7.7896820    0.0080076   -2.3691996  
O   -9.0636545    0.0099262   -1.8397330  
C   -6.6346679    0.0079421   -1.6152317  
H   -3.6662215    0.0059255   -0.8442210  
H   -3.7546021   -0.0074431   -5.0506064  
H   -6.5582204    0.0033486   -5.5460450  
H   -9.6417821    0.0076766   -3.8228672  
H   -8.9942200    0.0111421   -0.8801596  
H   -6.6886246    0.0096504   -0.5328434  
C    0.0000000    0.0000000    0.0000000  
C    1.0521667   -0.0011902   -0.8862342  
C    0.4917216   -0.0011957   -2.1979129  
C   -0.9187429    0.0003148   -2.0478680  
N   -1.1833171   -0.0009412   -0.7007912  
C   -1.7951702    0.0010350   -3.1372088  
C   -1.2375841    0.0005225   -4.4010424  
O   -2.0474217    0.0015360   -5.4997576  
C    0.1673577   -0.0013567   -4.5711964  
O    0.5673522   -0.0020688   -5.8915554  
C    1.0325769   -0.0023413   -3.4969890  
H    2.0953057   -0.0030649   -0.6200562  
H   -2.0989779    0.0102372   -0.2891821  
H   -1.4634887    0.0006498   -6.2693588  
H    1.5290708   -0.0033153   -5.9180049  
H    2.1042148   -0.0039610   -3.6584453  
C    1.0672568    0.0000697    2.3021913  
C    0.0000000    0.0000000    1.4700000  
C   -1.1601224    0.0000736    2.3478473  
C   -0.5938729    0.0000769    3.7138435  
N    0.7113367    0.0001554    3.6934124  
C   -1.4286986    0.0001879    4.8835240  
C   -2.7683114    0.0006799    4.6970523  
O   -3.6653903    0.0008304    5.6976972  
C   -3.3702025    0.0010610    3.3310774  
O   -4.5974910    0.0013779    3.2362962  
C   -2.4926826    0.0008943    2.1470656  
H   -0.9878360   -0.0000190    5.8697035  
H   -4.5324246    0.0012261    5.2533954  
H   -2.9677772    0.0012974    1.1752040  
H    2.1134392    0.0000545    2.0405121  
