46
0A 1A 10B 27B 36B 16 11 15 29 42 2 3 4 4 7 3 1 1 0 nosym
C    6.6001506    0.0019433   -4.3713018  
C    7.6333543    0.0021446   -3.4630303  
C    7.0453157    0.0020498   -2.1634878  
C    5.6383364    0.0015002   -2.3433062  
N    5.4022893    0.0034000   -3.6956728  
C    4.7390840    0.0009613   -1.2727298  
C    5.2698382    0.0006706    0.0026046  
O    4.4369620   -0.0002077    1.0839604  
C    6.6708713    0.0015854    0.2024108  
O    7.0428739    0.0015759    1.5309276  
C    7.5585984    0.0023905   -0.8532721  
H    8.6818864    0.0034412   -3.7071045  
H    4.4955245   -0.0070442   -4.1265437  
H    5.0045013    0.0000321    1.8657301  
H    8.0038195    0.0021939    1.5776948  
H    8.6265853    0.0032635   -0.6692050  
H    6.6229005    0.0023217   -5.4476104  
C    3.2798077    0.0005856   -1.4499661  
C    2.5571132    0.0005565   -2.5996564  
C    1.1637425    0.0001547   -2.2210366  
C    1.1336959   -0.0000200   -0.7459475  
N    2.4483509   -0.0001429   -0.3402730  
C    0.0000000    0.0000000    0.0000000  
C   -1.2757370   -0.0000187   -0.6964411  
O   -2.3524597   -0.0000640   -0.1142306  
C   -1.2676502   -0.0000874   -2.2584078  
O   -2.3355774   -0.0004102   -2.8557287  
C    0.0181551    0.0001758   -2.9516297  
H    2.9547342    0.0006074   -3.5989118  
H    0.0150776    0.0003317   -4.0331632  
H    2.7563626    0.0012823    0.6148051  
C    0.8175213    0.6860729    2.3021913  
C    0.0000000    0.0000000    1.4700000  
C   -0.8887526   -0.7456559    2.3478473  
C   -0.4549825   -0.3816753    3.7138435  
N    0.5448156    0.4573574    3.6934124  
C   -1.0945674   -0.9182058    4.8835240  
C   -2.1210866   -1.7789155    4.6970523  
O   -2.8083856   -2.3554314    5.6976972  
C   -2.5824069   -2.1655116    3.3310774  
O   -3.5227682   -2.9541547    3.2362962  
C   -1.9100805   -1.6015804    2.1470656  
H   -0.7567140   -0.6349833    5.8697035  
H   -3.4728268   -2.9124471    5.2533954  
H   -2.2742832   -1.9066565    1.1752040  
H    1.6189533    1.3585343    2.0405121  
