48
5B 10B 22B 38B 43B 13 16 30 45 47 7 4 7 7 4 2 1 2 0 nosym
C    2.4861703   -0.0045381   -3.7159920  
C    3.5192652   -0.0069577   -2.8075998  
C    4.7328081   -0.0089742   -3.5572063  
C    4.3743059   -0.0073669   -4.9295761  
N    3.0028458   -0.0066335   -4.9905080  
C    5.3209179   -0.0083539   -5.9585148  
C    6.6537152   -0.0107049   -5.5954387  
O    7.6195178   -0.0114066   -6.5599273  
C    7.0312778   -0.0127113   -4.2315255  
O    8.3964907   -0.0153605   -4.0327041  
C    6.0979609   -0.0120123   -3.2159250  
H    3.4114641   -0.0083403   -1.7364461  
H    2.4594304    0.0050772   -5.8346309  
H    5.0541705   -0.0072834   -7.0063917  
H    8.4675242   -0.0133903   -6.0971674  
H    8.5659225   -0.0165597   -3.0856586  
H    6.4172673   -0.0137764   -2.1803004  
C    0.0000000    0.0000000    0.0000000  
C    1.0521669   -0.0011901   -0.8862341  
C    0.4917220   -0.0011956   -2.1979132  
C   -0.9187428    0.0003148   -2.0478684  
N   -1.1833170   -0.0009411   -0.7007914  
C   -1.7951699    0.0010350   -3.1372091  
C   -1.2375836    0.0005225   -4.4010425  
O   -2.0474210    0.0015361   -5.4997584  
C    0.1673583   -0.0013566   -4.5711960  
O    0.5673528   -0.0020687   -5.8915550  
C    1.0325772   -0.0023412   -3.4969890  
H    2.0953059   -0.0030649   -0.6200562  
H   -2.0989777    0.0102371   -0.2891826  
H   -2.8710931    0.0020420   -3.0295515  
H   -1.4634882    0.0006497   -6.2693595  
H    1.5290713   -0.0033152   -5.9180046  
C    0.0000000    0.0000000    1.4700000  
C    1.0662921    0.0000102    2.3034270  
C    0.4961870   -0.0000064    3.6418889  
C   -0.9663858    0.0000850    3.4240247  
N   -1.2632773    0.0000084    2.1528658  
C   -1.8985362    0.0000517    4.5177257  
C   -1.3925775   -0.0004564    5.7720543  
O   -2.1456383   -0.0005410    6.8851312  
C    0.0786232   -0.0009323    6.0245000  
O    0.4683759   -0.0012588    7.1921102  
C    1.0143166   -0.0008442    4.8859032  
H    2.1107198   -0.0000632    2.0421868  
H   -2.9622183    0.0003270    4.3293377  
H   -1.5042274   -0.0009692    7.6184419  
H    2.0724152   -0.0013148    5.1109744  
