46
1A 10B 32A 41B 11 15 42 44 3 4 3 4 2 0 2 0 nosym
C    2.8474534   -0.7110767   -3.3262154  
C    3.4731675   -0.4622735   -4.5258177  
C    2.6437145    0.4464934   -5.2474480  
C    1.5163399    0.7191288   -4.4309786  
N    1.6707639   -0.0012345   -3.2725973  
C    0.4869745    1.5790485   -4.8256100  
C    0.5978533    2.1748299   -6.0669512  
O   -0.3787474    3.0234967   -6.5017246  
C    1.7148788    1.9150610   -6.8961625  
O    1.6792439    2.5838248   -8.1023253  
C    2.7306131    1.0666299   -6.5076081  
H    4.4114155   -0.8847623   -4.8423428  
H   -0.3749638    1.7908775   -4.2080399  
H   -0.1088094    3.3236276   -7.3794036  
H    2.4689213    2.3534579   -8.6012684  
H    3.5737451    0.8868407   -7.1643292  
H    3.1467170   -1.3398320   -2.5051996  
C    1.0965515    0.0001358   -0.8010305  
C    0.0000000    0.0000000    0.0000000  
C   -1.1546564    0.0001470   -0.8669509  
C   -0.6372017    0.0003518   -2.2486278  
N    0.7342868    0.0007337   -2.1395011  
C   -1.4147742    0.0001351   -3.3608713  
C   -2.8576052   -0.0001048   -3.1854458  
O   -3.6427782   -0.0002494   -4.1244899  
C   -3.4275841   -0.0000725   -1.7311663  
O   -4.6406831    0.0000333   -1.5710053  
C   -2.4891868   -0.0001090   -0.6116741  
H   -1.0150454    0.0001614   -4.3654241  
H   -2.8919123   -0.0002920    0.3920869  
H    2.1388270    0.0000662   -0.5261648  
C    0.8681109    0.7263879    2.2709268  
C    0.6127770    0.5096195    3.5869401  
C   -0.4920590   -0.4175482    3.6542670  
C   -0.8620974   -0.7254003    2.2596025  
N    0.0000000    0.0000000    1.4700000  
C   -1.8641242   -1.5660088    1.8976294  
C   -2.6293522   -2.2103885    2.9520183  
O   -3.5512764   -2.9839180    2.7283916  
C   -2.2549728   -1.8987399    4.4361073  
O   -2.8923672   -2.4351063    5.3323774  
C   -1.1543735   -0.9755647    4.7012123  
H    1.1382914    0.9492124    4.4159191  
H   -2.1192137   -1.7782617    0.8686553  
H   -0.9013378   -0.7652422    5.7314848  
H    1.6172880    1.3558399    1.8188057  
