44
1A 10B 25B 29A 34B 11 13 28 43 41 3 4 4 2 7 2 1 2 0 nosym
C   -3.9833916    0.7253520   -1.7965128  
C   -5.3237297    0.5083675   -1.8185369  
C   -5.5825466   -0.4183014   -2.8951678  
C   -4.2737349   -0.7256252   -3.5029138  
N   -3.3460097   -0.0004262   -2.7913647  
C   -4.0919151   -1.5656735   -4.5531352  
C   -5.2634891   -2.2099646   -5.1230813  
O   -5.2039376   -2.9830067   -6.0702671  
C   -6.6595987   -1.8988693   -4.4954639  
O   -7.6532014   -2.4351661   -4.9670552  
C   -6.7288574   -0.9762756   -3.3650317  
H   -6.0484329    0.9475035   -1.1562839  
H   -3.1231596   -1.7775447   -4.9838708  
H   -7.6992492   -0.7663339   -2.9360933  
H   -3.4076524    1.3545695   -1.1373468  
C    0.0000000    0.0000000    0.0000000  
C    1.0662919   -0.0000103   -0.8334272  
C    0.4961868    0.0000066   -2.1718889  
C   -0.9663860   -0.0000849   -1.9540248  
N   -1.2632775   -0.0000084   -0.6828659  
C   -1.8985364   -0.0000515   -3.0477258  
C   -1.3925778    0.0004567   -4.3020543  
O   -2.1456385    0.0005412   -5.4151314  
C    0.0786229    0.0009326   -4.5544999  
O    0.4683756    0.0012594   -5.7221104  
C    1.0143162    0.0008443   -3.4159034  
H    2.1107195    0.0000631   -0.5721869  
H   -1.5042277    0.0009692   -6.1484420  
H    2.0724151    0.0013151   -3.6409746  
C    3.1301144    0.0010313    3.1728260  
C    2.5367765    0.0002768    1.9564670  
C    1.1089900   -0.0001027    2.2356185  
C    1.0177864    0.0004150    3.7115134  
N    2.1993570    0.0011613    4.2663826  
C   -0.2459220    0.0002880    4.3957118  
C   -1.3675327    0.0000606    3.6398520  
O   -2.6129319   -0.0000866    4.1448486  
C   -1.3083589   -0.0000910    2.1483229  
O   -2.3693264   -0.0004206    1.5241687  
C    0.0000000    0.0000000    1.4700000  
H    3.0096015    0.0001008    0.9892483  
H   -0.2829642    0.0004689    5.4753125  
H   -3.1967446   -0.0002093    3.3649027  
H    4.1849273    0.0015113    3.3971983  
