44
0A 1A 10B 20B 29A 34B 13 11 12 27 43 41 2 3 4 7 2 7 3 1 2 0 nosym
C    4.3944189   -2.1038185   -1.5642417  
C    5.4034941   -1.6392072   -2.3452530  
C    4.8105117   -0.7448197   -3.3113164  
C    3.3628799   -0.7262983   -3.0270483  
N    3.1760855   -1.5708756   -1.9571480  
C    2.4521485    0.0014830   -3.7217479  
C    2.9295447    0.8210843   -4.8230571  
O    2.1880600    1.5122967   -5.5091524  
C    4.4586128    0.8165172   -5.1420166  
O    4.8722157    1.5023810   -6.0671028  
C    5.3421101   -0.0087585   -4.3221356  
H    6.4444097   -1.8940964   -2.2550345  
H    6.3995045   -0.0061925   -4.5493656  
H    4.4382794   -2.7908766   -0.7348340  
H    2.2913035   -1.7680117   -1.5266305  
C    0.0000000    0.0000000    0.0000000  
C    1.0662923   -0.0000105   -0.8334269  
C    0.4961874    0.0000060   -2.1718887  
C   -0.9663853   -0.0000854   -1.9540249  
N   -1.2632772   -0.0000086   -0.6828660  
C   -1.8985357   -0.0000523   -3.0477261  
C   -1.3925768    0.0004559   -4.3020546  
O   -2.1456376    0.0005405   -5.4151317  
C    0.0786242    0.0009317   -4.5545000  
O    0.4683768    0.0012580   -5.7221103  
C    1.0143173    0.0008436   -3.4159030  
H    2.1107200    0.0000630   -0.5721863  
H   -2.9622180   -0.0003275   -2.8593382  
H   -1.5042263    0.0009682   -6.1484421  
C    3.1301144    0.0010313    3.1728260  
C    2.5367765    0.0002768    1.9564670  
C    1.1089900   -0.0001027    2.2356185  
C    1.0177864    0.0004150    3.7115134  
N    2.1993570    0.0011613    4.2663826  
C   -0.2459220    0.0002880    4.3957118  
C   -1.3675327    0.0000606    3.6398520  
O   -2.6129319   -0.0000866    4.1448486  
C   -1.3083589   -0.0000910    2.1483229  
O   -2.3693264   -0.0004206    1.5241687  
C    0.0000000    0.0000000    1.4700000  
H    3.0096015    0.0001008    0.9892483  
H   -0.2829642    0.0004689    5.4753125  
H   -3.1967446   -0.0002093    3.3649027  
H    4.1849273    0.0015113    3.3971983  
