44
1A 10B 15A 34B 39B 11 13 27 41 43 3 4 2 7 4 2 1 2 0 nosym
C    0.8353417   -0.7266720   -5.2248493  
C    0.5761909   -0.5101807   -6.5401620  
C   -0.5291488    0.4166003   -6.6044786  
C   -0.8953233    0.7245277   -5.2088109  
N   -0.0307352   -0.0004646   -4.4215603  
C   -1.8966030    1.5648465   -4.8441095  
C   -2.6650479    2.2088130   -5.8964096  
O   -3.5865962    2.9820602   -5.6702716  
C   -2.2947856    1.8970777   -7.3815129  
O   -2.9349100    2.4330969   -8.2760426  
C   -1.1946296    0.9742397   -7.6496152  
H    1.0994948   -0.9497141   -7.3705696  
H   -2.1488367    1.7771610   -3.8144441  
H   -0.9444543    0.7638547   -8.6805737  
H    1.5860170   -1.3558031   -4.7747714  
C    3.2573670   -0.0002920   -1.5109380  
C    2.5379468   -0.0001709   -0.3591961  
C    1.1435043    0.0000332   -0.7338500  
C    1.1092609   -0.0000082   -2.2088477  
N    2.4227562    0.0001909   -2.6182613  
C   -0.0265532   -0.0002522   -2.9515663  
C   -1.3003035   -0.0002639   -2.2514981  
O   -2.3786784   -0.0004131   -2.8306429  
C   -1.2877725    0.0000312   -0.6895608  
O   -2.3539958    0.0003307   -0.0892036  
C    0.0000000    0.0000000    0.0000000  
H    2.9384091   -0.0000369    0.6389239  
H    4.3270394   -0.0004765   -1.6439446  
H    2.7280494   -0.0013406   -3.5742113  
C    0.0000000    0.0000000    1.4700000  
C    1.0662921    0.0000102    2.3034270  
C    0.4961870   -0.0000064    3.6418889  
C   -0.9663858    0.0000850    3.4240247  
N   -1.2632773    0.0000084    2.1528658  
C   -1.8985362    0.0000517    4.5177257  
C   -1.3925775   -0.0004564    5.7720543  
O   -2.1456383   -0.0005410    6.8851312  
C    0.0786232   -0.0009323    6.0245000  
O    0.4683759   -0.0012588    7.1921102  
C    1.0143166   -0.0008442    4.8859032  
H    2.1107198   -0.0000632    2.0421868  
H   -2.9622183    0.0003270    4.3293377  
H   -1.5042274   -0.0009692    7.6184419  
H    2.0724152   -0.0013148    5.1109744  
