48
38B 43B 17A 26B 45 46 27 31 7 4 3 4 2 0 2 0 nosym
C    1.1243415    0.0099159   -0.7919008  
C    0.7474084    0.0234036   -2.1148547  
C   -0.6787372    0.0234950   -2.1414699  
C   -1.1201741    0.0099353   -0.7935545  
N    0.0000000    0.0000000    0.0000000  
C   -2.4730813    0.0065388   -0.4408235  
C   -3.3971951    0.0173288   -1.4675053  
O   -4.7313510    0.0149472   -1.1793456  
C   -2.9763637    0.0305528   -2.8186317  
O   -4.0166458    0.0397846   -3.7247611  
C   -1.6418550    0.0336375   -3.1673478  
H   -2.8160168   -0.0039199    0.5845974  
H   -5.1938811    0.0234395   -2.0274371  
H   -3.6464651    0.0484770   -4.6127333  
H   -1.3497452    0.0436785   -4.2109230  
H    2.1062467    0.0051388   -0.3505413  
C    2.8388023   -0.6745891   -3.3474592  
C    3.4422155   -0.4130089   -4.5557368  
C    2.5991221    0.5024942   -5.2526211  
C    1.4867945    0.7658808   -4.4128110  
N    1.6628963    0.0337773   -3.2649305  
C    0.4498619    1.6290305   -4.7795965  
C    0.5375634    2.2376108   -6.0165754  
O   -0.4473456    3.0899606   -6.4245798  
C    1.6393020    1.9872129   -6.8688022  
O    1.5811198    2.6683001   -8.0671672  
C    2.6624879    1.1356032   -6.5077236  
H    4.3747241   -0.8315172   -4.8937781  
H   -0.4006967    1.8338567   -4.1441452  
H   -0.1937588    3.3992915   -7.3039399  
H    2.3616208    2.4436646   -8.5828808  
H    3.4935053    0.9632029   -7.1816424  
H    3.1534655   -1.3115159   -2.5385894  
C    0.0000000    0.0000000    1.4700000  
C    1.0541688    0.0001722    2.3260392  
C    0.5103138    0.0000454    3.6635956  
C   -0.9576371   -0.0002459    3.5155732  
N   -1.2018458    0.0001392    2.1615969  
C   -1.8348311   -0.0008317    4.5510609  
C   -1.2972847   -0.0009736    5.9014604  
O   -2.0050672   -0.0014265    6.9001319  
C    0.2542623   -0.0004184    6.0817573  
O    0.7184670   -0.0002256    7.2139121  
C    1.0974552   -0.0000873    4.8889129  
H    2.0940752    0.0005483    2.0517982  
H   -2.9081052   -0.0011668    4.4207061  
H    2.1707277    0.0000911    5.0223670  
H   -2.1128194   -0.0014912    1.7406791  
