44
4A 5B 15A 29A 30A 39B 14 11 27 42 40 41 1 7 2 2 3 4 2 1 3 0 nosym
C    0.8077808   -0.7044865   -5.2248780  
C   -0.0307352   -0.0004646   -4.4215603  
C   -0.9183630    0.7408379   -5.2860967  
C   -0.5254384    0.4085782   -6.6688488  
N    0.5266146   -0.4716394   -6.5625877  
C   -1.1248935    0.9074702   -7.7794637  
C   -2.2307428    1.8336408   -7.6010252  
O   -2.8354862    2.3374929   -8.5384253  
C   -2.6635782    2.1998147   -6.1455609  
O   -3.5931170    2.9787552   -5.9828673  
C   -1.9409633    1.5974766   -5.0280335  
H   -0.8212690    0.6507104   -8.7848473  
H   -2.2469878    1.8560400   -4.0234349  
H    1.6076133   -1.3736641   -4.9521901  
H    1.0136919   -0.8832259   -7.3374423  
C    3.2573670   -0.0002920   -1.5109380  
C    2.5379468   -0.0001709   -0.3591961  
C    1.1435043    0.0000332   -0.7338500  
C    1.1092609   -0.0000082   -2.2088477  
N    2.4227562    0.0001909   -2.6182613  
C   -0.0265532   -0.0002522   -2.9515663  
C   -1.3003035   -0.0002639   -2.2514981  
O   -2.3786784   -0.0004131   -2.8306429  
C   -1.2877725    0.0000312   -0.6895608  
O   -2.3539958    0.0003307   -0.0892036  
C    0.0000000    0.0000000    0.0000000  
H    2.9384091   -0.0000369    0.6389239  
H    4.3270394   -0.0004765   -1.6439446  
H    2.7280494   -0.0013406   -3.5742113  
C    2.5128556    2.1077716    2.9199648  
C    1.9592212    1.6432552    4.0696553  
C    0.8915788    0.7479214    3.6910360  
C    0.8684491    0.7287414    2.2159470  
N    1.8754542    1.5738793    1.8102719  
C    0.0000000    0.0000000    1.4700000  
C   -0.9772830   -0.8200135    2.1664417  
O   -1.8021297   -1.5120829    1.5842315  
C   -0.9711318   -0.8147624    3.7284083  
O   -1.7894187   -1.5009653    4.3257297  
C    0.0140216    0.0115358    4.4216297  
H    2.2638494    1.8988021    5.0689105  
H    0.0117648    0.0094386    5.5031631  
H    3.3327358    2.7953732    2.7900019  
H    2.1123206    1.7707734    0.8551938  
