44
4A 5B 15A 29A 30A 39B 14 11 27 43 40 42 1 7 2 2 3 4 2 1 3 0 nosym
C    0.8077808   -0.7044865   -5.2248780  
C   -0.0307352   -0.0004646   -4.4215603  
C   -0.9183630    0.7408379   -5.2860967  
C   -0.5254384    0.4085782   -6.6688488  
N    0.5266146   -0.4716394   -6.5625877  
C   -1.1248935    0.9074702   -7.7794637  
C   -2.2307428    1.8336408   -7.6010252  
O   -2.8354862    2.3374929   -8.5384253  
C   -2.6635782    2.1998147   -6.1455609  
O   -3.5931170    2.9787552   -5.9828673  
C   -1.9409633    1.5974766   -5.0280335  
H   -0.8212690    0.6507104   -8.7848473  
H   -2.2469878    1.8560400   -4.0234349  
H    1.6076133   -1.3736641   -4.9521901  
H    1.0136919   -0.8832259   -7.3374423  
C    3.2573670   -0.0002920   -1.5109380  
C    2.5379468   -0.0001709   -0.3591961  
C    1.1435043    0.0000332   -0.7338500  
C    1.1092609   -0.0000082   -2.2088477  
N    2.4227562    0.0001909   -2.6182613  
C   -0.0265532   -0.0002522   -2.9515663  
C   -1.3003035   -0.0002639   -2.2514981  
O   -2.3786784   -0.0004131   -2.8306429  
C   -1.2877725    0.0000312   -0.6895608  
O   -2.3539958    0.0003307   -0.0892036  
C    0.0000000    0.0000000    0.0000000  
H    2.9384091   -0.0000369    0.6389239  
H    4.3270394   -0.0004765   -1.6439446  
H    2.7280494   -0.0013406   -3.5742113  
C    2.5528530    2.1414826    2.8079335  
C    2.0663498    1.7338582    4.0032312  
C    0.9804344    0.8229586    3.6752840  
C    0.9495562    0.7966882    2.1971295  
N    1.8690446    1.5676019    1.6831036  
C    0.0000000    0.0000000    1.4700000  
C   -0.8785127   -0.7372425    2.1869543  
O   -1.8187535   -1.5261249    1.6395491  
C   -0.8723269   -0.7321790    3.6796354  
O   -1.7010379   -1.4274584    4.2670412  
C    0.1115397    0.0933559    4.4024240  
H    2.4028853    2.0163452    4.9860947  
H   -2.2861435   -1.9184361    2.3990168  
H    0.0832434    0.0693689    5.4835595  
H    3.3664920    2.8238276    2.6198634  
