44
4A 5B 15A 34B 39B 14 11 27 41 43 1 7 2 7 4 2 1 2 0 nosym
C    0.8077808   -0.7044865   -5.2248780  
C   -0.0307352   -0.0004646   -4.4215603  
C   -0.9183630    0.7408379   -5.2860967  
C   -0.5254384    0.4085782   -6.6688488  
N    0.5266146   -0.4716394   -6.5625877  
C   -1.1248935    0.9074702   -7.7794637  
C   -2.2307428    1.8336408   -7.6010252  
O   -2.8354862    2.3374929   -8.5384253  
C   -2.6635782    2.1998147   -6.1455609  
O   -3.5931170    2.9787552   -5.9828673  
C   -1.9409633    1.5974766   -5.0280335  
H   -0.8212690    0.6507104   -8.7848473  
H   -2.2469878    1.8560400   -4.0234349  
H    1.6076133   -1.3736641   -4.9521901  
H    1.0136919   -0.8832259   -7.3374423  
C    3.2573670   -0.0002920   -1.5109380  
C    2.5379468   -0.0001709   -0.3591961  
C    1.1435043    0.0000332   -0.7338500  
C    1.1092609   -0.0000082   -2.2088477  
N    2.4227562    0.0001909   -2.6182613  
C   -0.0265532   -0.0002522   -2.9515663  
C   -1.3003035   -0.0002639   -2.2514981  
O   -2.3786784   -0.0004131   -2.8306429  
C   -1.2877725    0.0000312   -0.6895608  
O   -2.3539958    0.0003307   -0.0892036  
C    0.0000000    0.0000000    0.0000000  
H    2.9384091   -0.0000369    0.6389239  
H    4.3270394   -0.0004765   -1.6439446  
H    2.7280494   -0.0013406   -3.5742113  
C    0.0000000    0.0000000    1.4700000  
C    1.0662921    0.0000102    2.3034270  
C    0.4961870   -0.0000064    3.6418889  
C   -0.9663858    0.0000850    3.4240247  
N   -1.2632773    0.0000084    2.1528658  
C   -1.8985362    0.0000517    4.5177257  
C   -1.3925775   -0.0004564    5.7720543  
O   -2.1456383   -0.0005410    6.8851312  
C    0.0786232   -0.0009323    6.0245000  
O    0.4683759   -0.0012588    7.1921102  
C    1.0143166   -0.0008442    4.8859032  
H    2.1107198   -0.0000632    2.0421868  
H   -2.9622183    0.0003270    4.3293377  
H   -1.5042274   -0.0009692    7.6184419  
H    2.0724152   -0.0013148    5.1109744  
