46
35A 36B 5A 20B 21B 45 42 13 30 27 1 7 7 1 7 2 1 2 0 nosym
C    3.3041269    0.0001177   -1.5420434  
C    2.5845370   -0.0004780   -0.3695856  
C    1.2040006   -0.0000007   -0.7283591  
C    1.1422372    0.0006038   -2.1454374  
N    2.4348634    0.0026110   -2.6077469  
C   -0.0655187    0.0008799   -2.8497915  
C   -1.2321772    0.0002326   -2.1101397  
O   -2.4392820    0.0001149   -2.7472517  
C   -1.1911209   -0.0000007   -0.6955263  
O   -2.4371523   -0.0002319   -0.1032858  
C    0.0000000    0.0000000    0.0000000  
H    3.0031535   -0.0000661    0.6222578  
H    2.7054623   -0.0071098   -3.5745264  
H   -0.1193555    0.0014846   -3.9297470  
H   -3.1132995   -0.0000646   -2.0551782  
H   -2.3200286   -0.0004070    0.8516413  
C    5.7131790    0.0002337   -0.7960719  
C    4.7577216    0.0005129   -1.7610467  
C    5.4429748    0.0015564   -3.0319767  
C    6.8863233    0.0018354   -2.7261412  
N    6.9827411    0.0013997   -1.3537007  
C    7.8703100    0.0023646   -3.6607399  
C    7.4818865    0.0029066   -5.0613336  
O    8.2934741    0.0034657   -5.9776444  
C    5.9589199    0.0028754   -5.4082901  
O    5.6198168    0.0036355   -6.5839900  
C    4.9917262    0.0019987   -4.3135818  
H    8.9232043    0.0024312   -3.4151319  
H    3.9391682    0.0017775   -4.5622707  
H    5.5966607   -0.0005086    0.2755216  
H    7.8428781   -0.0001033   -0.8367773  
C    0.8400945    0.7047457    2.2710304  
C    0.0000000    0.0000000    1.4700000  
C   -0.8844236   -0.7423113    2.3369512  
C   -0.4878984   -0.4098547    3.7186280  
N    0.5629682    0.4714286    3.6095011  
C   -1.0836927   -0.9095027    4.8308716  
C   -2.1891196   -1.8367527    4.6554461  
O   -2.7906899   -2.3413415    5.5944904  
C   -2.6257283   -2.2031529    3.2011665  
O   -3.5549479   -2.9829990    3.0410059  
C   -1.9068976   -1.5999348    2.0816745  
H   -0.7774656   -0.6525820    5.8354244  
H   -2.2155208   -1.8586617    1.0779135  
H    1.6384792    1.3747609    1.9961646  
H    1.0518368    0.8833920    4.3830260  
