44
0A 4A 5B 15A 29A 34B 13 14 12 28 43 41 2 1 7 2 2 7 3 1 2 0 nosym
C    2.5409851   -2.0883887   -5.9976699  
C    2.0288636   -1.6271501   -4.8275992  
C    0.9468077   -0.7327108   -5.1651928  
C    0.8699425   -0.7105287   -6.6384166  
N    1.8632956   -1.5526141   -7.0822996  
C   -0.0266905    0.0177786   -7.3506829  
C   -0.9794778    0.8344703   -6.6173709  
O   -1.8263931    1.5259879   -7.1676784  
C   -0.9161191    0.8263914   -5.0566893  
O   -1.7129821    1.5102574   -4.4285198  
C    0.0950452    0.0004352   -4.4015596  
H    2.3702734   -1.8840246   -3.8406502  
H   -0.0662229    0.0198178   -8.4311186  
H    3.3565929   -2.7744591   -6.1588569  
H    2.0636503   -1.7494005   -8.0457207  
C    3.3321174    0.0004718   -1.3379334  
C    2.6974185    0.0000117   -2.5332310  
C    1.2800440   -0.0002117   -2.2052839  
C    1.2395036    0.0000644   -0.7271297  
N    2.4394063    0.0005460   -0.2131035  
C    0.0000000    0.0000000    0.0000000  
C   -1.1468700    0.0000635   -0.7169545  
O   -2.3742202    0.0000073   -0.1695490  
C   -1.1388767    0.0001607   -2.2096357  
O   -2.2206230    0.0000904   -2.7970414  
C    0.1454526    0.0001816   -2.9324241  
H    3.1367988   -0.0000648   -3.5160946  
H   -2.9844344    0.0001025   -0.9290171  
H    4.3940040    0.0007621   -1.1498634  
C    2.3971438    2.0127888    3.1728260  
C    1.9431056    1.6308205    1.9564670  
C    0.8496017    0.7127664    2.2356185  
C    0.7794028    0.6545384    3.7115134  
N    1.6840587    1.4146091    4.2663826  
C   -0.1885723   -0.1578550    4.3957118  
C   -1.0476298   -0.8789867    3.6398520  
O   -2.0015663   -1.6796266    4.1448486  
C   -1.0022026   -0.8410666    2.1483229  
O   -1.8147390   -1.5232959    1.5241687  
C    0.0000000    0.0000000    1.4700000  
H    2.3054237    1.9346118    0.9892483  
H   -0.2170646   -0.1815267    5.4753125  
H   -2.4487139   -2.0549881    3.3649027  
H    3.2048689    2.6911772    3.3971983  
