46
31A 35A 36B 16A 20A 21B 44 45 43 29 30 28 2 1 7 2 1 7 3 0 3 0 nosym
C    1.1188644    0.0008217   -0.8003807  
C    0.0000000    0.0000000    0.0000000  
C   -1.1323862    0.0008904   -0.8673526  
C   -0.6382660    0.0019682   -2.1969280  
N    0.7324018    0.0038477   -2.1202240  
C   -1.4770912    0.0027325   -3.3154810  
C   -2.8395475    0.0020958   -3.0876858  
O   -3.7039195    0.0024443   -4.1440347  
C   -3.3517868    0.0013946   -1.7684332  
O   -4.7300492    0.0012389   -1.7073123  
C   -2.5248543    0.0009136   -0.6644818  
H   -1.1067568    0.0036993   -4.3313811  
H   -4.5940030    0.0021851   -3.7685130  
H   -4.9934599    0.0007287   -0.7819913  
H   -2.9462578    0.0005617    0.3339655  
H    2.1619894    0.0009344   -0.5342067  
C    4.5412299   -2.0990458   -2.8732839  
C    3.3927945   -1.6299071   -2.3209434  
C    2.7903275   -0.7451835   -3.2900321  
C    3.6883337   -0.7373119   -4.4606359  
N    4.7307579   -1.5775627   -4.1440605  
C    3.4698859   -0.0211200   -5.5924727  
C    2.2703755    0.7967024   -5.6623073  
O    1.9845410    1.4779272   -6.6382847  
C    1.3053399    0.8036744   -4.4341122  
O    0.2924811    1.4886258   -4.4812228  
C    1.6478436   -0.0100108   -3.2702998  
H    3.0113365   -1.8754419   -1.3458453  
H    4.1412534   -0.0294742   -6.4398836  
H    5.2651713   -2.7816995   -2.4588175  
H    5.5083106   -1.7821921   -4.7445492  
C    2.4951002    2.0940188    2.9809380  
C    1.9440701    1.6314916    1.8291961  
C    0.8759964    0.7350050    2.2038498  
C    0.8497377    0.7130254    3.6788474  
N    1.8560616    1.5571714    4.0882609  
C   -0.0205033   -0.0168748    4.4215661  
C   -0.9962600   -0.8356168    3.7214979  
O   -1.8224391   -1.5286685    4.3006425  
C   -0.9864710   -0.8277881    2.1595606  
O   -1.8030528   -1.5133726    1.5592035  
C    0.0000000    0.0000000    1.4700000  
H    2.2509283    1.8888011    0.8310761  
H   -0.0229599   -0.0187323    5.5027230  
H    3.3143982    2.7817323    3.1139444  
H    2.0889452    1.7545833    5.0442112  
