46
31A 35A 36B 0A 17B 26A 44 45 43 15 27 29 2 1 7 2 3 4 3 1 2 0 nosym
C    3.3003543    0.0005277   -1.4738990  
C    2.5232811    0.0003499   -2.6090749  
C    1.1623199   -0.0001317   -2.1820104  
C    1.1711881    0.0000584   -0.7636144  
N    2.4852300   -0.0014918   -0.3662360  
C    0.0000000    0.0000000    0.0000000  
C   -1.2020384    0.0000520   -0.6806478  
O   -2.3759250    0.0003494    0.0157748  
C   -1.2314658   -0.0005111   -2.0955509  
O   -2.5054391   -0.0008036   -2.6250178  
C   -0.0764518   -0.0007271   -2.8495195  
H    2.8919951   -0.0005617   -3.6205306  
H    2.8036264    0.0088181    0.5858657  
H   -3.0835640    0.0000348   -0.6418817  
H   -2.4360050   -0.0011525   -3.5845919  
H    4.3715549    0.0004896   -1.3667139  
C    0.6778494   -0.7280274   -5.1604560  
C    0.3572093   -0.5121161   -6.4622422  
C   -0.7500355    0.4145350   -6.4749820  
C   -1.0503175    0.7230181   -5.0637910  
N   -0.1496418   -0.0015610   -4.3176961  
C   -2.0334661    1.5633980   -4.6528351  
C   -2.8505391    2.2068483   -5.6681673  
O   -3.7605416    2.9801053   -5.3993372  
C   -2.5503720    1.8945197   -7.1688855  
O   -3.2318472    2.4301017   -8.0326005  
C   -1.4639119    0.9716707   -7.4879569  
H    0.8410002   -0.9519517   -7.3161184  
H   -2.2371054    1.7761242   -3.6125524  
H   -1.2623895    0.7608734   -8.5294353  
H    1.4488979   -1.3568984   -4.7458536  
C    2.4951002    2.0940188    2.9809380  
C    1.9440701    1.6314916    1.8291961  
C    0.8759964    0.7350050    2.2038498  
C    0.8497377    0.7130254    3.6788474  
N    1.8560616    1.5571714    4.0882609  
C   -0.0205033   -0.0168748    4.4215661  
C   -0.9962600   -0.8356168    3.7214979  
O   -1.8224391   -1.5286685    4.3006425  
C   -0.9864710   -0.8277881    2.1595606  
O   -1.8030528   -1.5133726    1.5592035  
C    0.0000000    0.0000000    1.4700000  
H    2.2509283    1.8888011    0.8310761  
H   -0.0229599   -0.0187323    5.5027230  
H    3.3143982    2.7817323    3.1139444  
H    2.0889452    1.7545833    5.0442112  
