46
31A 32A 41B 5A 16A 20B 21B 44 42 43 13 29 30 28 2 3 4 7 2 1 7 3 1 3 0 nosym
C    3.3041269    0.0001177   -1.5420434  
C    2.5845370   -0.0004780   -0.3695856  
C    1.2040006   -0.0000007   -0.7283591  
C    1.1422372    0.0006038   -2.1454374  
N    2.4348634    0.0026110   -2.6077469  
C   -0.0655187    0.0008799   -2.8497915  
C   -1.2321772    0.0002326   -2.1101397  
O   -2.4392820    0.0001149   -2.7472517  
C   -1.1911209   -0.0000007   -0.6955263  
O   -2.4371523   -0.0002319   -0.1032858  
C    0.0000000    0.0000000    0.0000000  
H    3.0031535   -0.0000661    0.6222578  
H    2.7054623   -0.0071098   -3.5745264  
H   -0.1193555    0.0014846   -3.9297470  
H   -3.1132995   -0.0000646   -2.0551782  
H   -2.3200286   -0.0004070    0.8516413  
C    6.7370864   -0.0008255    1.2348651  
C    5.4910174   -0.0006933    0.6950623  
C    5.6537432    0.0002333   -0.7396345  
C    7.1071780    0.0006037   -0.9932437  
N    7.7077093    0.0003271    0.2445980  
C    7.6723921    0.0010658   -2.2270336  
C    6.7903708    0.0014339   -3.3822710  
O    7.2023936    0.0019212   -4.5348933  
C    5.2477317    0.0013036   -3.1371793  
O    4.4952266    0.0019172   -4.1020610  
C    4.7577216    0.0005129   -1.7610467  
H    4.5636978   -0.0010060    1.2397571  
H    8.7410249    0.0012016   -2.3911478  
H    7.0279701   -0.0014513    2.2727842  
H    8.6984750   -0.0010836    0.4040640  
C    2.5128556    2.1077716    2.9199648  
C    1.9592212    1.6432552    4.0696553  
C    0.8915788    0.7479214    3.6910360  
C    0.8684491    0.7287414    2.2159470  
N    1.8754542    1.5738793    1.8102719  
C    0.0000000    0.0000000    1.4700000  
C   -0.9772830   -0.8200135    2.1664417  
O   -1.8021297   -1.5120829    1.5842315  
C   -0.9711318   -0.8147624    3.7284083  
O   -1.7894187   -1.5009653    4.3257297  
C    0.0140216    0.0115358    4.4216297  
H    2.2638494    1.8988021    5.0689105  
H    0.0117648    0.0094386    5.5031631  
H    3.3327358    2.7953732    2.7900019  
H    2.1123206    1.7707734    0.8551938  
