44
4A 5B 20B 29A 33A 34B 14 11 27 42 43 41 1 7 7 2 1 7 2 1 3 0 nosym
C    5.5795939   -0.0005395   -1.1027767  
C    4.5679461   -0.0016854   -2.0086701  
C    5.1756895   -0.0033633   -3.3184336  
C    6.6347908   -0.0031284   -3.0997722  
N    6.8134018   -0.0009887   -1.7355935  
C    7.5609143   -0.0048091   -4.0917386  
C    7.0891350   -0.0067693   -5.4664951  
O    7.8442677   -0.0083103   -6.4298602  
C    5.5480911   -0.0068003   -5.7214263  
O    5.1390399   -0.0081350   -6.8746547  
C    4.6483392   -0.0051690   -4.5706463  
H    8.6266508   -0.0047317   -3.9097625  
H    3.5827535   -0.0054070   -4.7557176  
H    5.5275972    0.0008124   -0.0261227  
H    7.7030109   -0.0018797   -1.2712204  
C    3.1301149   -0.0010311   -1.7028252  
C    2.5367768   -0.0002767   -0.4864665  
C    1.1089904    0.0001028   -0.7656183  
C    1.0177872   -0.0004148   -2.2415132  
N    2.1993578   -0.0011611   -2.7963820  
C   -0.2459209   -0.0002877   -2.9257118  
C   -1.3675319   -0.0000605   -2.1698524  
O   -2.6129313    0.0000867   -2.6748490  
C   -1.3083584    0.0000910   -0.6783232  
O   -2.3693261    0.0004206   -0.0541692  
C    0.0000000    0.0000000    0.0000000  
H    3.0096017   -0.0001007    0.4807525  
H   -0.2829630   -0.0004687   -4.0053125  
H   -3.1967441    0.0002094   -1.8949034  
C    2.4951002    2.0940188    2.9809380  
C    1.9440701    1.6314916    1.8291961  
C    0.8759964    0.7350050    2.2038498  
C    0.8497377    0.7130254    3.6788474  
N    1.8560616    1.5571714    4.0882609  
C   -0.0205033   -0.0168748    4.4215661  
C   -0.9962600   -0.8356168    3.7214979  
O   -1.8224391   -1.5286685    4.3006425  
C   -0.9864710   -0.8277881    2.1595606  
O   -1.8030528   -1.5133726    1.5592035  
C    0.0000000    0.0000000    1.4700000  
H    2.2509283    1.8888011    0.8310761  
H   -0.0229599   -0.0187323    5.5027230  
H    3.3143982    2.7817323    3.1139444  
H    2.0889452    1.7545833    5.0442112  
