44
4A 5B 25B 34B 14 11 28 40 1 7 4 7 2 1 1 0 nosym
C   -3.9882948    0.7031701   -1.8236370  
C   -3.3460097   -0.0004262   -2.7913647  
C   -4.3538740   -0.7419634   -3.5118973  
C   -5.6452437   -0.4103056   -2.8801084  
N   -5.3545709    0.4698232   -1.8633622  
C   -6.8443194   -0.9095667   -3.2733776  
C   -6.8643123   -1.8355280   -4.3935255  
O   -7.8938501   -2.3396796   -4.8226932  
C   -5.5084411   -2.2010661   -5.0774845  
O   -5.5127434   -2.9798258   -6.0212935  
C   -4.2807768   -1.5983714   -4.5642094  
H   -7.7800877   -0.6532467   -2.7963583  
H   -3.3462060   -1.8564953   -5.0434520  
H   -3.5784434    1.3723568   -1.0846509  
H   -6.0310086    0.8810392   -1.2466119  
C    0.0000000    0.0000000    0.0000000  
C    1.0662919   -0.0000103   -0.8334272  
C    0.4961868    0.0000066   -2.1718889  
C   -0.9663860   -0.0000849   -1.9540248  
N   -1.2632775   -0.0000084   -0.6828659  
C   -1.8985364   -0.0000515   -3.0477258  
C   -1.3925778    0.0004567   -4.3020543  
O   -2.1456385    0.0005412   -5.4151314  
C    0.0786229    0.0009326   -4.5544999  
O    0.4683756    0.0012594   -5.7221104  
C    1.0143162    0.0008443   -3.4159034  
H    2.1107195    0.0000631   -0.5721869  
H   -1.5042277    0.0009692   -6.1484420  
H    2.0724151    0.0013151   -3.6409746  
C    1.0672568    0.0000697    2.3021913  
C    0.0000000    0.0000000    1.4700000  
C   -1.1601224    0.0000736    2.3478473  
C   -0.5938729    0.0000769    3.7138435  
N    0.7113367    0.0001554    3.6934124  
C   -1.4286986    0.0001879    4.8835240  
C   -2.7683114    0.0006799    4.6970523  
O   -3.6653903    0.0008304    5.6976972  
C   -3.3702025    0.0010610    3.3310774  
O   -4.5974910    0.0013779    3.2362962  
C   -2.4926826    0.0008943    2.1470656  
H   -0.9878360   -0.0000190    5.8697035  
H   -4.5324246    0.0012261    5.2533954  
H   -2.9677772    0.0012974    1.1752040  
H    2.1134392    0.0000545    2.0405121  
