44
1A 10B 34B 39B 11 13 41 42 3 4 7 4 2 0 2 0 nosym
C    0.2910126   -0.7257130   -5.1324105  
C    0.5948837   -0.5088181   -6.4380498  
C   -0.3867656    0.4178184   -6.9504411  
C   -1.2939336    0.7252212   -5.8282374  
N   -0.8287665    0.0000939   -4.7555305  
C   -2.3568841    1.5652668   -5.9067477  
C   -2.6255096    2.2094718   -7.1816501  
O   -3.5588356    2.9825046   -7.3537674  
C   -1.6778811    1.8982918   -8.3837200  
O   -1.8942772    2.4345159   -9.4620967  
C   -0.5644306    0.9757095   -8.1765447  
H    1.4131936   -0.9479933   -6.9803666  
H   -3.0098165    1.7771968   -5.0714784  
H    0.0871557    0.7657088   -9.0138369  
H    0.7907726   -1.3548827   -4.4138877  
C    1.0672569   -0.0000698   -0.8321910  
C    0.0000000    0.0000000    0.0000000  
C   -1.1601223   -0.0000736   -0.8778472  
C   -0.5938729   -0.0000768   -2.2438435  
N    0.7113367   -0.0001553   -2.2234123  
C   -1.4286985   -0.0001877   -3.4135239  
C   -2.7683113   -0.0006798   -3.2270524  
O   -3.6653902   -0.0008302   -4.2276970  
C   -3.3702024   -0.0010610   -1.8610774  
O   -4.5974910   -0.0013779   -1.7662963  
C   -2.4926825   -0.0008943   -0.6770658  
H   -4.5324245   -0.0012258   -3.7833954  
H   -2.9677772   -0.0012974    0.2947961  
H    2.1134391   -0.0000547   -0.5705119  
C    0.0000000    0.0000000    1.4700000  
C    1.0541688    0.0001722    2.3260392  
C    0.5103138    0.0000454    3.6635956  
C   -0.9576371   -0.0002459    3.5155732  
N   -1.2018458    0.0001392    2.1615969  
C   -1.8348311   -0.0008317    4.5510609  
C   -1.2972847   -0.0009736    5.9014604  
O   -2.0050672   -0.0014265    6.9001319  
C    0.2542623   -0.0004184    6.0817573  
O    0.7184670   -0.0002256    7.2139121  
C    1.0974552   -0.0000873    4.8889129  
H    2.0940752    0.0005483    2.0517982  
H   -2.9081052   -0.0011668    4.4207061  
H    2.1707277    0.0000911    5.0223670  
H   -2.1128194   -0.0014912    1.7406791  
