44
5B 10B 25B 34B 12 13 28 40 7 4 4 7 2 1 1 0 nosym
C   -3.3460096   -0.0004265   -2.7913646  
C   -4.0050885   -0.0007132   -1.6040609  
C   -5.4169936   -0.0010568   -1.9063183  
C   -5.5272435   -0.0009752   -3.3775883  
N   -4.2366047   -0.0001892   -3.8541818  
C   -6.6998409   -0.0016247   -4.0607559  
C   -7.9358014   -0.0022336   -3.2959439  
O   -9.0426028   -0.0027795   -3.8187164  
C   -7.8427529   -0.0020786   -1.7367301  
O   -8.8766027   -0.0022804   -1.0821965  
C   -6.5211391   -0.0016359   -1.1144848  
H   -3.5536957   -0.0005046   -0.6279169  
H   -6.7586577   -0.0016815   -5.1403167  
H   -6.4653747   -0.0017366   -0.0343859  
H   -3.9810064   -0.0015043   -4.8246018  
C    0.0000000    0.0000000    0.0000000  
C    1.0662919   -0.0000103   -0.8334269  
C    0.4961869    0.0000064   -2.1718889  
C   -0.9663859   -0.0000850   -1.9540246  
N   -1.2632774   -0.0000084   -0.6828657  
C   -1.8985363   -0.0000518   -3.0477257  
C   -1.3925778    0.0004564   -4.3020545  
O   -2.1456384    0.0005409   -5.4151311  
C    0.0786230    0.0009323   -4.5544998  
O    0.4683758    0.0012588   -5.7221098  
C    1.0143164    0.0008442   -3.4159030  
H    2.1107195    0.0000633   -0.5721867  
H   -1.5042275    0.0009691   -6.1484418  
H    2.0724152    0.0013148   -3.6409744  
C    1.0672568    0.0000697    2.3021913  
C    0.0000000    0.0000000    1.4700000  
C   -1.1601224    0.0000736    2.3478473  
C   -0.5938729    0.0000769    3.7138435  
N    0.7113367    0.0001554    3.6934124  
C   -1.4286986    0.0001879    4.8835240  
C   -2.7683114    0.0006799    4.6970523  
O   -3.6653903    0.0008304    5.6976972  
C   -3.3702025    0.0010610    3.3310774  
O   -4.5974910    0.0013779    3.2362962  
C   -2.4926826    0.0008943    2.1470656  
H   -0.9878360   -0.0000190    5.8697035  
H   -4.5324246    0.0012261    5.2533954  
H   -2.9677772    0.0012974    1.1752040  
H    2.1134392    0.0000545    2.0405121  
