44
0A 1A 10B 34B 13 11 12 40 2 3 4 7 3 0 1 0 nosym
C    1.7724889   -2.0972087   -5.2508567  
C    1.5944629   -1.6313102   -6.5139170  
C    0.4614763   -0.7369886   -6.4769599  
C   -0.0093306   -0.7199088   -5.0788041  
N    0.8272491   -1.5651727   -4.3870289  
C   -1.0641730    0.0073887   -4.6315340  
C   -1.7839597    0.8279534   -5.5912818  
O   -2.7474227    1.5188304   -5.2867671  
C   -1.3029086    0.8249181   -7.0773454  
O   -1.9012757    1.5116024   -7.8944632  
C   -0.1528503    0.0000410   -7.4390039  
H    2.1888672   -1.8853054   -7.3734420  
H    0.1740259    0.0036694   -8.4699553  
H    2.5145571   -2.7846291   -4.8784617  
H    0.7624990   -1.7633143   -3.4054003  
C    1.1319249    0.0015673   -0.8009268  
C    0.7969919    0.0034954   -2.1169403  
C   -0.6453335    0.0035697   -2.1842672  
C   -1.1266831    0.0015413   -0.7896029  
N    0.0000000    0.0000000    0.0000000  
C   -2.4346128    0.0013921   -0.4276299  
C   -3.4350109    0.0031346   -1.4820187  
O   -4.6384610    0.0030891   -1.2583924  
C   -2.9478954    0.0050451   -2.9661078  
O   -3.7809375    0.0062147   -3.8623779  
C   -1.5113818    0.0053061   -3.2312126  
H    1.4821242    0.0045430   -2.9459191  
H   -2.7664565    0.0000184    0.6013444  
H    2.1104318    0.0009428   -0.3488057  
C    0.8175213    0.6860729    2.3021913  
C    0.0000000    0.0000000    1.4700000  
C   -0.8887526   -0.7456559    2.3478473  
C   -0.4549825   -0.3816753    3.7138435  
N    0.5448156    0.4573574    3.6934124  
C   -1.0945674   -0.9182058    4.8835240  
C   -2.1210866   -1.7789155    4.6970523  
O   -2.8083856   -2.3554314    5.6976972  
C   -2.5824069   -2.1655116    3.3310774  
O   -3.5227682   -2.9541547    3.2362962  
C   -1.9100805   -1.6015804    2.1470656  
H   -0.7567140   -0.6349833    5.8697035  
H   -3.4728268   -2.9124471    5.2533954  
H   -2.2742832   -1.9066565    1.1752040  
H    1.6189533    1.3585343    2.0405121  
