44
5B 10B 29A 30A 39B 12 13 43 40 42 7 4 2 3 4 2 0 3 0 nosym
C    3.2973510   -0.0000932   -3.8752371  
C    4.6090969    0.0003110   -4.2265163  
C    4.6584754    0.0000136   -5.6695679  
C    3.2579292   -0.0005722   -6.1335295  
N    2.4824032   -0.0010085   -4.9971101  
C    2.8797129   -0.0005907   -7.4368548  
C    3.9215763   -0.0002200   -8.4502935  
O    3.6829952   -0.0002663   -9.6508676  
C    5.4116113    0.0001502   -7.9816781  
O    6.2974492    0.0001573   -8.8258055  
C    5.6945668    0.0004140   -6.5485738  
H    5.4465359    0.0005833   -3.5517504  
H    1.8466890   -0.0008953   -7.7558715  
H    6.7288539    0.0008751   -6.2323874  
H    1.4789639    0.0001010   -4.9846260  
C    3.3321177    0.0004715   -1.3379328  
C    2.6974188    0.0000116   -2.5332306  
C    1.2800443   -0.0002119   -2.2052837  
C    1.2395037    0.0000643   -0.7271292  
N    2.4394063    0.0005459   -0.2131032  
C    0.0000000    0.0000000    0.0000000  
C   -1.1468699    0.0000634   -0.7169542  
O   -2.3742202    0.0000072   -0.1695494  
C   -1.1388764    0.0001607   -2.2096355  
O   -2.2206225    0.0000904   -2.7970414  
C    0.1454529    0.0001815   -2.9324239  
H   -2.9844343    0.0001025   -0.9290170  
H    0.1083582    0.0003681   -4.0135594  
H    4.3940041    0.0007619   -1.1498627  
C    2.5528530    2.1414826    2.8079335  
C    2.0663498    1.7338582    4.0032312  
C    0.9804344    0.8229586    3.6752840  
C    0.9495562    0.7966882    2.1971295  
N    1.8690446    1.5676019    1.6831036  
C    0.0000000    0.0000000    1.4700000  
C   -0.8785127   -0.7372425    2.1869543  
O   -1.8187535   -1.5261249    1.6395491  
C   -0.8723269   -0.7321790    3.6796354  
O   -1.7010379   -1.4274584    4.2670412  
C    0.1115397    0.0933559    4.4024240  
H    2.4028853    2.0163452    4.9860947  
H   -2.2861435   -1.9184361    2.3990168  
H    0.0832434    0.0693689    5.4835595  
H    3.3664920    2.8238276    2.6198634  
