44
4A 5B 25B 34B 39B 14 11 27 41 43 1 7 4 7 4 2 1 2 0 nosym
C   -3.9876871    0.7052806   -1.9724716  
C   -3.2941076    0.0012878   -2.9038237  
C   -4.2617031   -0.7397005   -3.6781172  
C   -5.5853416   -0.4072885   -3.1175167  
N   -5.3499114    0.4727085   -2.0864648  
C   -6.7615312   -0.9058813   -3.5754340  
C   -6.7210841   -1.8318679   -4.6950089  
O   -7.7260362   -2.3354485   -5.1795481  
C   -5.3302203   -2.1981986   -5.3041932  
O   -5.2836147   -2.9769867   -6.2468371  
C   -4.1319543   -1.5961844   -4.7248927  
H   -7.7217182   -0.6490142   -3.1500286  
H   -3.1728430   -1.8548545   -5.1525829  
H   -3.6182638    1.3742586   -1.2122846  
H   -6.0586653    0.8843289   -1.5074277  
C    0.0000000    0.0000000    0.0000000  
C    1.0541688   -0.0001723   -0.8560392  
C    0.5103136   -0.0000455   -2.1935956  
C   -0.9576373    0.0002461   -2.0455730  
N   -1.2018460   -0.0001389   -0.6915968  
C   -1.8348314    0.0008319   -3.0810607  
C   -1.2972851    0.0009739   -4.4314603  
O   -2.0050676    0.0014268   -5.4301316  
C    0.2542619    0.0004184   -4.6117572  
O    0.7184666    0.0002257   -5.7439122  
C    1.0974551    0.0000873   -3.4189129  
H    2.0940752   -0.0005484   -0.5817983  
H    2.1707276   -0.0000912   -3.5523673  
H   -2.1128194    0.0014915   -0.2706789  
C    0.0000000    0.0000000    1.4700000  
C    1.0662921    0.0000102    2.3034270  
C    0.4961870   -0.0000064    3.6418889  
C   -0.9663858    0.0000850    3.4240247  
N   -1.2632773    0.0000084    2.1528658  
C   -1.8985362    0.0000517    4.5177257  
C   -1.3925775   -0.0004564    5.7720543  
O   -2.1456383   -0.0005410    6.8851312  
C    0.0786232   -0.0009323    6.0245000  
O    0.4683759   -0.0012588    7.1921102  
C    1.0143166   -0.0008442    4.8859032  
H    2.1107198   -0.0000632    2.0421868  
H   -2.9622183    0.0003270    4.3293377  
H   -1.5042274   -0.0009692    7.6184419  
H    2.0724152   -0.0013148    5.1109744  
