48
38B 43B 16A 20A 21B 45 46 32 28 29 7 4 2 1 7 2 0 3 0 nosym
C    3.3003551    0.0005277   -1.4738980  
C    2.5232820    0.0003498   -2.6090740  
C    1.1623207   -0.0001318   -2.1820099  
C    1.1711887    0.0000584   -0.7636138  
N    2.4852302   -0.0014919   -0.3662352  
C    0.0000000    0.0000000    0.0000000  
C   -1.2020382    0.0000521   -0.6806482  
O   -2.3759248    0.0003494    0.0157741  
C   -1.2314651   -0.0005111   -2.0955511  
O   -2.5054381   -0.0008036   -2.6250184  
C   -0.0764509   -0.0007271   -2.8495194  
H    2.8036266    0.0088182    0.5858670  
H   -3.0835635    0.0000348   -0.6418822  
H   -2.4360036   -0.0011526   -3.5845927  
H   -0.1304085   -0.0013419   -3.9319086  
H    4.3715552    0.0004895   -1.3667123  
C    5.9339404   -2.1239632   -4.5697793  
C    5.0139155   -1.6613190   -3.6576484  
C    4.1430871   -0.7747005   -4.3577670  
C    4.5843193   -0.7357738   -5.7052556  
N    5.6745657   -1.5647287   -5.7991410  
C    3.9561317    0.0394408   -6.6846488  
C    2.8624165    0.7887787   -6.2967606  
O    2.2114293    1.5633305   -7.2128929  
C    2.4073430    0.7634326   -4.9569534  
O    1.3072171    1.5639366   -4.7283488  
C    3.0267445   -0.0008950   -3.9901692  
H    4.9758717   -1.9289913   -2.6155848  
H    6.1946449   -1.7467729   -6.6384019  
H    4.2876092    0.0735629   -7.7133179  
H    1.4889959    1.9966211   -6.7400143  
H    1.0643871    1.4893956   -3.8004041  
H    6.7555166   -2.8075032   -4.4403776  
C    0.0000000    0.0000000    1.4700000  
C    1.0541688    0.0001722    2.3260392  
C    0.5103138    0.0000454    3.6635956  
C   -0.9576371   -0.0002459    3.5155732  
N   -1.2018458    0.0001392    2.1615969  
C   -1.8348311   -0.0008317    4.5510609  
C   -1.2972847   -0.0009736    5.9014604  
O   -2.0050672   -0.0014265    6.9001319  
C    0.2542623   -0.0004184    6.0817573  
O    0.7184670   -0.0002256    7.2139121  
C    1.0974552   -0.0000873    4.8889129  
H    2.0940752    0.0005483    2.0517982  
H   -2.9081052   -0.0011668    4.4207061  
H    2.1707277    0.0000911    5.0223670  
H   -2.1128194   -0.0014912    1.7406791  
