48
33A 34A 43B 10A 16A 17B 26B 46 44 45 15 32 27 31 2 3 4 4 2 3 4 3 1 3 0 nosym
C    0.0000000    0.0000000    0.0000000  
C    1.0521663   -0.0011902   -0.8862345  
C    0.4917214   -0.0011957   -2.1979134  
C   -0.9187430    0.0003148   -2.0478682  
N   -1.1833173   -0.0009412   -0.7007911  
C   -1.7951704    0.0010350   -3.1372089  
C   -1.2375842    0.0005225   -4.4010423  
O   -2.0474221    0.0015360   -5.4997574  
C    0.1673576   -0.0013567   -4.5711965  
O    0.5673515   -0.0020688   -5.8915554  
C    1.0325766   -0.0023413   -3.4969893  
H    2.0953056   -0.0030649   -0.6200564  
H   -2.0989777    0.0102372   -0.2891822  
H   -1.4634892    0.0006498   -6.2693592  
H    1.5290704   -0.0033153   -5.9180050  
H    2.1042142   -0.0039610   -3.6584459  
C   -4.4707109    2.1246525   -0.3281853  
C   -5.6599901    1.6263874   -0.8075741  
C   -5.3396942    0.7516100   -1.8877479  
C   -3.9276530    0.7558436   -2.0220873  
N   -3.4313379    1.6012525   -1.0610604  
C   -3.2578657    0.0024039   -2.9908504  
C   -4.0275277   -0.7696041   -3.8392617  
O   -3.4247833   -1.5249880   -4.8031640  
C   -5.4376976   -0.7867693   -3.7211788  
O   -6.0624818   -1.6048900   -4.6396926  
C   -6.0991481   -0.0435243   -2.7658798  
H   -6.6381343    1.8650161   -0.4264135  
H   -2.4588395    1.7971149   -0.9065737  
H   -4.1335874   -1.9789648   -5.2772602  
H   -7.0119724   -1.5591007   -4.4914531  
H   -7.1803454   -0.0767265   -2.6996341  
H   -4.2817180    2.8130888    0.4776039  
C    3.2798086   -0.0005857    2.9199648  
C    2.5571146   -0.0005566    4.0696553  
C    1.1637436   -0.0001548    3.6910360  
C    1.1336965    0.0000200    2.2159470  
N    2.4483514    0.0001428    1.8102719  
C    0.0000000    0.0000000    1.4700000  
C   -1.2757367    0.0000186    2.1664417  
O   -2.3524596    0.0000640    1.5842315  
C   -1.2676493    0.0000873    3.7284083  
O   -2.3355761    0.0004100    4.3257297  
C    0.0181563   -0.0001760    4.4216297  
H    2.9547357   -0.0006076    5.0689105  
H    0.0150794   -0.0003319    5.5031631  
H    4.3498549   -0.0008612    2.7900019  
H    2.7563627   -0.0012824    0.8551938  
