44
0A 4A 5B 20B 29A 34B 13 14 12 27 43 41 2 1 7 7 2 7 3 1 2 0 nosym
C    6.7235414    0.0018294    0.8630491  
C    5.4473224    0.0014737    0.3990018  
C    5.5236523   -0.0004064   -1.0428741  
C    6.9592465   -0.0011513   -1.3832527  
N    7.6329844    0.0006717   -0.1836845  
C    7.4493969   -0.0032878   -2.6487382  
C    6.4996347   -0.0047394   -3.7489586  
O    6.8417408   -0.0066293   -4.9242288  
C    4.9744849   -0.0037319   -3.4117289  
O    4.1654295   -0.0046314   -4.3297095  
C    4.5679461   -0.0016854   -2.0086701  
H    4.5543644    0.0026028    0.9983662  
H    8.5062546   -0.0039294   -2.8766897  
H    7.0761909    0.0030566    1.8816397  
H    8.6315336   -0.0008655   -0.0839632  
C    3.1301149   -0.0010311   -1.7028252  
C    2.5367768   -0.0002767   -0.4864665  
C    1.1089904    0.0001028   -0.7656183  
C    1.0177872   -0.0004148   -2.2415132  
N    2.1993578   -0.0011611   -2.7963820  
C   -0.2459209   -0.0002877   -2.9257118  
C   -1.3675319   -0.0000605   -2.1698524  
O   -2.6129313    0.0000867   -2.6748490  
C   -1.3083584    0.0000910   -0.6783232  
O   -2.3693261    0.0004206   -0.0541692  
C    0.0000000    0.0000000    0.0000000  
H    3.0096017   -0.0001007    0.4807525  
H   -0.2829630   -0.0004687   -4.0053125  
H   -3.1967441    0.0002094   -1.8949034  
C    2.3971438    2.0127888    3.1728260  
C    1.9431056    1.6308205    1.9564670  
C    0.8496017    0.7127664    2.2356185  
C    0.7794028    0.6545384    3.7115134  
N    1.6840587    1.4146091    4.2663826  
C   -0.1885723   -0.1578550    4.3957118  
C   -1.0476298   -0.8789867    3.6398520  
O   -2.0015663   -1.6796266    4.1448486  
C   -1.0022026   -0.8410666    2.1483229  
O   -1.8147390   -1.5232959    1.5241687  
C    0.0000000    0.0000000    1.4700000  
H    2.3054237    1.9346118    0.9892483  
H   -0.2170646   -0.1815267    5.4753125  
H   -2.4487139   -2.0549881    3.3649027  
H    3.2048689    2.6911772    3.3971983  
