44
1A 10B 15A 29A 30A 39B 11 13 28 42 40 41 3 4 2 2 3 4 2 1 3 0 nosym
C    0.9360399   -0.7247814   -5.2319381  
C    0.6354728   -0.5080897   -6.5383757  
C   -0.4721181    0.4177747   -6.5675801  
C   -0.7944789    0.7249459   -5.1609811  
N    0.0950452    0.0004352   -4.4015596  
C   -1.7844973    1.5642992   -4.7646820  
C   -2.5861930    2.2079503   -5.7920734  
O   -3.5008211    2.9803441   -5.5367997  
C   -2.2625561    1.8970034   -7.2881936  
O   -2.9309428    2.4327654   -8.1619654  
C   -1.1706032    0.9751837   -7.5910794  
H    1.1327714   -0.9469143   -7.3849811  
H   -2.0044036    1.7760712   -3.7275204  
H   -0.9527966    0.7653400   -8.6294670  
H    1.7010240   -1.3534197   -4.8059071  
C    3.3321174    0.0004718   -1.3379334  
C    2.6974185    0.0000117   -2.5332310  
C    1.2800440   -0.0002117   -2.2052839  
C    1.2395036    0.0000644   -0.7271297  
N    2.4394063    0.0005460   -0.2131035  
C    0.0000000    0.0000000    0.0000000  
C   -1.1468700    0.0000635   -0.7169545  
O   -2.3742202    0.0000073   -0.1695490  
C   -1.1388767    0.0001607   -2.2096357  
O   -2.2206230    0.0000904   -2.7970414  
C    0.1454526    0.0001816   -2.9324241  
H    3.1367988   -0.0000648   -3.5160946  
H   -2.9844344    0.0001025   -0.9290171  
H    4.3940040    0.0007621   -1.1498634  
C    2.5128556    2.1077716    2.9199648  
C    1.9592212    1.6432552    4.0696553  
C    0.8915788    0.7479214    3.6910360  
C    0.8684491    0.7287414    2.2159470  
N    1.8754542    1.5738793    1.8102719  
C    0.0000000    0.0000000    1.4700000  
C   -0.9772830   -0.8200135    2.1664417  
O   -1.8021297   -1.5120829    1.5842315  
C   -0.9711318   -0.8147624    3.7284083  
O   -1.7894187   -1.5009653    4.3257297  
C    0.0140216    0.0115358    4.4216297  
H    2.2638494    1.8988021    5.0689105  
H    0.0117648    0.0094386    5.5031631  
H    3.3327358    2.7953732    2.7900019  
H    2.1123206    1.7707734    0.8551938  
