44
29A 33A 34B 10A 18B 19B 42 43 41 12 28 25 2 1 7 4 1 7 3 1 2 0 nosym
C    3.2798086    0.0005856   -1.4499647  
C    2.5571145    0.0005565   -2.5996553  
C    1.1637436    0.0001547   -2.2210360  
C    1.1336964   -0.0000200   -0.7459470  
N    2.4483513   -0.0001429   -0.3402720  
C    0.0000000    0.0000000    0.0000000  
C   -1.2757371   -0.0000187   -0.6964417  
O   -2.3524597   -0.0000640   -0.1142316  
C   -1.2676493   -0.0000874   -2.2584081  
O   -2.3355762   -0.0004102   -2.8557296  
C    0.0181561    0.0001758   -2.9516297  
H    2.9547354    0.0006074   -3.5989102  
H    0.0150792    0.0003317   -4.0331628  
H    2.7563626    0.0012823    0.6148063  
C    5.6664822    0.0004239   -2.2647001  
C    4.7390845    0.0009613   -1.2727278  
C    5.4604953    0.0016744   -0.0219673  
C    6.8944817    0.0015365   -0.3690593  
N    6.9515109    0.0003683   -1.7436995  
C    7.9048599    0.0024673    0.5369429  
C    7.5567528    0.0034604    1.9480970  
O    8.3942789    0.0042791    2.8407617  
C    6.0443605    0.0033717    2.3385765  
O    5.7391052    0.0038956    3.5235153  
C    5.0461772    0.0026032    1.2720487  
H    8.9502791    0.0024768    0.2612481  
H    4.0011826    0.0027521    1.5508134  
H    5.5192882   -0.0001532   -3.3325121  
H    7.7964725    0.0015561   -2.2850732  
C    2.4951002    2.0940188    2.9809380  
C    1.9440701    1.6314916    1.8291961  
C    0.8759964    0.7350050    2.2038498  
C    0.8497377    0.7130254    3.6788474  
N    1.8560616    1.5571714    4.0882609  
C   -0.0205033   -0.0168748    4.4215661  
C   -0.9962600   -0.8356168    3.7214979  
O   -1.8224391   -1.5286685    4.3006425  
C   -0.9864710   -0.8277881    2.1595606  
O   -1.8030528   -1.5133726    1.5592035  
C    0.0000000    0.0000000    1.4700000  
H    2.2509283    1.8888011    0.8310761  
H   -0.0229599   -0.0187323    5.5027230  
H    3.3143982    2.7817323    3.1139444  
H    2.0889452    1.7545833    5.0442112  
