46
35A 36B 5A 16A 17B 26B 45 42 13 29 27 28 1 7 7 2 3 4 2 1 3 0 nosym
C    3.3041269    0.0001177   -1.5420434  
C    2.5845370   -0.0004780   -0.3695856  
C    1.2040006   -0.0000007   -0.7283591  
C    1.1422372    0.0006038   -2.1454374  
N    2.4348634    0.0026110   -2.6077469  
C   -0.0655187    0.0008799   -2.8497915  
C   -1.2321772    0.0002326   -2.1101397  
O   -2.4392820    0.0001149   -2.7472517  
C   -1.1911209   -0.0000007   -0.6955263  
O   -2.4371523   -0.0002319   -0.1032858  
C    0.0000000    0.0000000    0.0000000  
H    3.0031535   -0.0000661    0.6222578  
H    2.7054623   -0.0071098   -3.5745264  
H   -0.1193555    0.0014846   -3.9297470  
H   -3.1132995   -0.0000646   -2.0551782  
H   -2.3200286   -0.0004070    0.8516413  
C    6.6801374   -0.0033360    1.2661376  
C    7.7093290   -0.0019930    0.3802269  
C    7.1273475   -0.0004471   -0.9411856  
C    5.6642441   -0.0009742   -0.7511361  
N    5.4589565   -0.0031398    0.6092836  
C    4.7577216    0.0005129   -1.7610467  
C    5.2563291    0.0025580   -3.1263018  
O    4.5202041    0.0039399   -4.1042685  
C    6.8020686    0.0028973   -3.3510093  
O    7.2336221    0.0043060   -4.4960074  
C    7.6791162    0.0014556   -2.1828320  
H    8.7566708   -0.0022583    0.6245394  
H    8.7481212    0.0019068   -2.3470031  
H    6.7110426   -0.0046694    2.3436036  
H    4.5604253   -0.0024244    1.0561486  
C    0.8400945    0.7047457    2.2710304  
C    0.0000000    0.0000000    1.4700000  
C   -0.8844236   -0.7423113    2.3369512  
C   -0.4878984   -0.4098547    3.7186280  
N    0.5629682    0.4714286    3.6095011  
C   -1.0836927   -0.9095027    4.8308716  
C   -2.1891196   -1.8367527    4.6554461  
O   -2.7906899   -2.3413415    5.5944904  
C   -2.6257283   -2.2031529    3.2011665  
O   -3.5549479   -2.9829990    3.0410059  
C   -1.9068976   -1.5999348    2.0816745  
H   -0.7774656   -0.6525820    5.8354244  
H   -2.2155208   -1.8586617    1.0779135  
H    1.6384792    1.3747609    1.9961646  
H    1.0518368    0.8833920    4.3830260  
