44
5B 10B 29A 30A 39B 12 13 43 40 42 7 4 2 3 4 2 0 3 0 nosym
C    3.1006056    0.0006265   -3.9654949  
C    4.3965746    0.0016349   -4.3711278  
C    4.3857802    0.0012371   -5.8149837  
C    2.9671180   -0.0000659   -6.2201831  
N    2.2396191   -0.0007793   -5.0524355  
C    2.5349222   -0.0003794   -7.5066166  
C    3.5336517    0.0004079   -8.5625884  
O    3.2452514    0.0001430   -9.7521784  
C    5.0419188    0.0015389   -8.1564681  
O    5.8918134    0.0019019   -9.0367742  
C    5.3843443    0.0020629   -6.7363989  
H    5.2614025    0.0023702   -3.7318433  
H    1.4895028   -0.0012110   -7.7823114  
H    6.4309076    0.0030514   -6.4635847  
H    1.2375711   -0.0001539   -4.9981501  
C    3.2798085    0.0005858   -1.4499649  
C    2.5571143    0.0005567   -2.5996554  
C    1.1637433    0.0001549   -2.2210360  
C    1.1336964   -0.0000199   -0.7459472  
N    2.4483513   -0.0001427   -0.3402721  
C    0.0000000    0.0000000    0.0000000  
C   -1.2757369   -0.0000186   -0.6964416  
O   -2.3524596   -0.0000640   -0.1142312  
C   -1.2676496   -0.0000872   -2.2584084  
O   -2.3355764   -0.0004100   -2.8557297  
C    0.0181559    0.0001762   -2.9516297  
H    0.0150790    0.0003321   -4.0331631  
H    4.3498546    0.0008613   -1.3200024  
H    2.7563627    0.0012824    0.6148061  
C    2.5528530    2.1414826    2.8079335  
C    2.0663498    1.7338582    4.0032312  
C    0.9804344    0.8229586    3.6752840  
C    0.9495562    0.7966882    2.1971295  
N    1.8690446    1.5676019    1.6831036  
C    0.0000000    0.0000000    1.4700000  
C   -0.8785127   -0.7372425    2.1869543  
O   -1.8187535   -1.5261249    1.6395491  
C   -0.8723269   -0.7321790    3.6796354  
O   -1.7010379   -1.4274584    4.2670412  
C    0.1115397    0.0933559    4.4024240  
H    2.4028853    2.0163452    4.9860947  
H   -2.2861435   -1.9184361    2.3990168  
H    0.0832434    0.0693689    5.4835595  
H    3.3664920    2.8238276    2.6198634  
