44
34B 39B 5A 15B 24B 41 42 12 25 27 7 4 7 3 4 2 1 2 0 nosym
C    3.2573672   -0.0002920   -1.5109379  
C    2.5379469   -0.0001709   -0.3591960  
C    1.1435044    0.0000331   -0.7338498  
C    1.1092608   -0.0000083   -2.2088475  
N    2.4227563    0.0001909   -2.6182608  
C   -0.0265531   -0.0002524   -2.9515661  
C   -1.3003038   -0.0002640   -2.2514979  
O   -2.3786783   -0.0004133   -2.8306426  
C   -1.2877724    0.0000311   -0.6895607  
O   -2.3539956    0.0003306   -0.0892035  
C    0.0000000    0.0000000    0.0000000  
H    2.9384089   -0.0000367    0.6389238  
H   -0.0296289   -0.0004086   -4.0327230  
H    2.7280494   -0.0013407   -3.5742114  
C    5.6506110    0.0009427   -0.6678799  
C    6.9152391    0.0026292   -1.1626403  
C    6.8040789    0.0026208   -2.6022511  
C    5.3606769    0.0008072   -2.9078300  
N    4.7161333   -0.0005435   -1.6923255  
C    4.8400810    0.0006556   -4.1610993  
C    5.7629705    0.0021684   -5.2839567  
O    5.3925552    0.0021019   -6.4506156  
C    7.2958247    0.0038491   -4.9836901  
O    8.0824537    0.0048245   -5.9209597  
C    7.7361596    0.0041354   -3.5908667  
H    7.8224236    0.0035687   -0.5850342  
H    3.7780231   -0.0005585   -4.3634389  
H    8.7991588    0.0055077   -3.3914804  
H    5.3226856    0.0004436    0.3589376  
C    0.0000000    0.0000000    1.4700000  
C    1.0541688    0.0001722    2.3260392  
C    0.5103138    0.0000454    3.6635956  
C   -0.9576371   -0.0002459    3.5155732  
N   -1.2018458    0.0001392    2.1615969  
C   -1.8348311   -0.0008317    4.5510609  
C   -1.2972847   -0.0009736    5.9014604  
O   -2.0050672   -0.0014265    6.9001319  
C    0.2542623   -0.0004184    6.0817573  
O    0.7184670   -0.0002256    7.2139121  
C    1.0974552   -0.0000873    4.8889129  
H    2.0940752    0.0005483    2.0517982  
H   -2.9081052   -0.0011668    4.4207061  
H    2.1707277    0.0000911    5.0223670  
H   -2.1128194   -0.0014912    1.7406791  
