44
0A 4A 5B 29A 30A 39B 13 14 12 43 40 42 2 1 7 2 3 4 3 0 3 0 nosym
C    6.1948928   -2.0901506   -4.2347975  
C    5.2211215   -1.6284401   -3.4085602  
C    4.3976414   -0.7337219   -4.1871458  
C    4.9756083   -0.7118901   -5.5444470  
N    6.0626303   -1.5544243   -5.5068993  
C    4.4831922    0.0165380   -6.5781898  
C    3.3054920    0.8337386   -6.3378972  
O    2.7865975    1.5254015   -7.2042985  
C    2.6769868    0.8260372   -4.9079570  
O    1.6854901    1.5103325   -4.6936342  
C    3.2973504   -0.0000931   -3.8752375  
H    5.0942866   -1.8851777   -2.3719254  
H    4.9221850    0.0183144   -7.5662133  
H    6.9981386   -2.7765375   -4.0213516  
H    6.6656639   -1.7515245   -6.2844269  
C    3.3321173    0.0004715   -1.3379333  
C    2.6974184    0.0000117   -2.5332310  
C    1.2800439   -0.0002118   -2.2052839  
C    1.2395035    0.0000643   -0.7271293  
N    2.4394063    0.0005460   -0.2131035  
C    0.0000000    0.0000000    0.0000000  
C   -1.1468702    0.0000634   -0.7169541  
O   -2.3742202    0.0000072   -0.1695491  
C   -1.1388767    0.0001606   -2.2096353  
O   -2.2206230    0.0000901   -2.7970412  
C    0.1454525    0.0001815   -2.9324239  
H   -2.9844345    0.0001024   -0.9290167  
H    0.1083577    0.0003682   -4.0135594  
H    4.3940039    0.0007620   -1.1498632  
C    2.5528530    2.1414826    2.8079335  
C    2.0663498    1.7338582    4.0032312  
C    0.9804344    0.8229586    3.6752840  
C    0.9495562    0.7966882    2.1971295  
N    1.8690446    1.5676019    1.6831036  
C    0.0000000    0.0000000    1.4700000  
C   -0.8785127   -0.7372425    2.1869543  
O   -1.8187535   -1.5261249    1.6395491  
C   -0.8723269   -0.7321790    3.6796354  
O   -1.7010379   -1.4274584    4.2670412  
C    0.1115397    0.0933559    4.4024240  
H    2.4028853    2.0163452    4.9860947  
H   -2.2861435   -1.9184361    2.3990168  
H    0.0832434    0.0693689    5.4835595  
H    3.3664920    2.8238276    2.6198634  
