44
1A 10B 15A 34B 11 13 28 40 3 4 2 7 2 1 1 0 nosym
C    0.5438759   -0.7269783   -5.2249516  
C    0.2435443   -0.5104532   -6.5314710  
C   -0.8630391    0.4166041   -6.5610250  
C   -1.1850652    0.7246567   -5.1545422  
N   -0.2963293   -0.0005341   -4.3948471  
C   -2.1741701    1.5652358   -4.7585601  
C   -2.9751657    2.2093704   -5.7861946  
O   -3.8889534    2.9828549   -5.5312126  
C   -2.6518673    1.8975067   -7.2821972  
O   -3.3196714    2.4336656   -8.1561713  
C   -1.5609178    0.9743860   -7.5847348  
H    0.7403652   -0.9501378   -7.3779105  
H   -2.3938456    1.7776382   -3.7214786  
H   -1.3433398    0.7639136   -8.6230431  
H    1.3081761   -1.3562874   -4.7986832  
C    3.1301146   -0.0010313   -1.7028256  
C    2.5367765   -0.0002766   -0.4864669  
C    1.1089901    0.0001027   -0.7656184  
C    1.0177865   -0.0004150   -2.2415133  
N    2.1993571   -0.0011612   -2.7963824  
C   -0.2459219   -0.0002879   -2.9257116  
C   -1.3675326   -0.0000606   -2.1698520  
O   -2.6129318    0.0000865   -2.6748483  
C   -1.3083588    0.0000910   -0.6783229  
O   -2.3693264    0.0004206   -0.0541685  
C    0.0000000    0.0000000    0.0000000  
H    3.0096016   -0.0001007    0.4807518  
H   -3.1967444    0.0002093   -1.8949026  
H    4.1849275   -0.0015114   -1.9271979  
C    0.8175213    0.6860729    2.3021913  
C    0.0000000    0.0000000    1.4700000  
C   -0.8887526   -0.7456559    2.3478473  
C   -0.4549825   -0.3816753    3.7138435  
N    0.5448156    0.4573574    3.6934124  
C   -1.0945674   -0.9182058    4.8835240  
C   -2.1210866   -1.7789155    4.6970523  
O   -2.8083856   -2.3554314    5.6976972  
C   -2.5824069   -2.1655116    3.3310774  
O   -3.5227682   -2.9541547    3.2362962  
C   -1.9100805   -1.6015804    2.1470656  
H   -0.7567140   -0.6349833    5.8697035  
H   -3.4728268   -2.9124471    5.2533954  
H   -2.2742832   -1.9066565    1.1752040  
H    1.6189533    1.3585343    2.0405121  
