44
0A 1A 10B 20B 34B 13 11 12 27 40 2 3 4 7 7 3 1 1 0 nosym
C    4.3944189   -2.1038185   -1.5642417  
C    5.4034941   -1.6392072   -2.3452530  
C    4.8105117   -0.7448197   -3.3113164  
C    3.3628799   -0.7262983   -3.0270483  
N    3.1760855   -1.5708756   -1.9571480  
C    2.4521485    0.0014830   -3.7217479  
C    2.9295447    0.8210843   -4.8230571  
O    2.1880600    1.5122967   -5.5091524  
C    4.4586128    0.8165172   -5.1420166  
O    4.8722157    1.5023810   -6.0671028  
C    5.3421101   -0.0087585   -4.3221356  
H    6.4444097   -1.8940964   -2.2550345  
H    6.3995045   -0.0061925   -4.5493656  
H    4.4382794   -2.7908766   -0.7348340  
H    2.2913035   -1.7680117   -1.5266305  
C    0.0000000    0.0000000    0.0000000  
C    1.0662923   -0.0000105   -0.8334269  
C    0.4961874    0.0000060   -2.1718887  
C   -0.9663853   -0.0000854   -1.9540249  
N   -1.2632772   -0.0000086   -0.6828660  
C   -1.8985357   -0.0000523   -3.0477261  
C   -1.3925768    0.0004559   -4.3020546  
O   -2.1456376    0.0005405   -5.4151317  
C    0.0786242    0.0009317   -4.5545000  
O    0.4683768    0.0012580   -5.7221103  
C    1.0143173    0.0008436   -3.4159030  
H    2.1107200    0.0000630   -0.5721863  
H   -2.9622180   -0.0003275   -2.8593382  
H   -1.5042263    0.0009682   -6.1484421  
C    1.0672568    0.0000697    2.3021913  
C    0.0000000    0.0000000    1.4700000  
C   -1.1601224    0.0000736    2.3478473  
C   -0.5938729    0.0000769    3.7138435  
N    0.7113367    0.0001554    3.6934124  
C   -1.4286986    0.0001879    4.8835240  
C   -2.7683114    0.0006799    4.6970523  
O   -3.6653903    0.0008304    5.6976972  
C   -3.3702025    0.0010610    3.3310774  
O   -4.5974910    0.0013779    3.2362962  
C   -2.4926826    0.0008943    2.1470656  
H   -0.9878360   -0.0000190    5.8697035  
H   -4.5324246    0.0012261    5.2533954  
H   -2.9677772    0.0012974    1.1752040  
H    2.1134392    0.0000545    2.0405121  
