46
32A 41B 16A 20A 21B 42 44 29 30 28 3 4 2 1 7 2 0 3 0 nosym
C    3.3041272    0.0001176   -1.5420431  
C    2.5845372   -0.0004781   -0.3695853  
C    1.2040006   -0.0000009   -0.7283588  
C    1.1422374    0.0006035   -2.1454372  
N    2.4348639    0.0026108   -2.6077465  
C   -0.0655182    0.0008795   -2.8497919  
C   -1.2321769    0.0002322   -2.1101399  
O   -2.4392814    0.0001143   -2.7472520  
C   -1.1911210   -0.0000008   -0.6955264  
O   -2.4371527   -0.0002321   -0.1032861  
C    0.0000000    0.0000000    0.0000000  
H    3.0031535   -0.0000660    0.6222584  
H   -0.1193549    0.0014841   -3.9297469  
H   -3.1132989   -0.0000650   -2.0551785  
H   -2.3200281   -0.0004071    0.8516412  
H    4.3686623    0.0004070   -1.7024293  
C    5.6515799   -2.1002976   -4.7819009  
C    4.8081957   -1.6310298   -3.8266176  
C    3.8761260   -0.7467204   -4.4854639  
C    4.2482781   -0.7392324   -5.9131323  
N    5.3319464   -1.5792871   -6.0265386  
C    3.6067593   -0.0234894   -6.8711878  
C    2.4743156    0.7942201   -6.4693699  
O    1.8313257    1.4750508   -7.2576174  
C    2.0628000    0.8015929   -4.9625833  
O    1.1111838    1.4864536   -4.6123646  
C    2.8310664   -0.0116222   -4.0232753  
H    4.8359711   -1.8762188   -2.7798492  
H    3.8957834   -0.0321198   -7.9129651  
H    6.4798590   -2.7827406   -4.6813304  
H    5.8148558   -1.7840905   -6.8820508  
C    0.8681109    0.7263879    2.2709268  
C    0.6127770    0.5096195    3.5869401  
C   -0.4920590   -0.4175482    3.6542670  
C   -0.8620974   -0.7254003    2.2596025  
N    0.0000000    0.0000000    1.4700000  
C   -1.8641242   -1.5660088    1.8976294  
C   -2.6293522   -2.2103885    2.9520183  
O   -3.5512764   -2.9839180    2.7283916  
C   -2.2549728   -1.8987399    4.4361073  
O   -2.8923672   -2.4351063    5.3323774  
C   -1.1543735   -0.9755647    4.7012123  
H    1.1382914    0.9492124    4.4159191  
H   -2.1192137   -1.7782617    0.8686553  
H   -0.9013378   -0.7652422    5.7314848  
H    1.6172880    1.3558399    1.8188057  
