48
34A 43B 5A 17B 26B 44 46 13 27 31 3 4 7 3 4 2 1 2 0 nosym
C    3.3041269    0.0001177   -1.5420434  
C    2.5845370   -0.0004780   -0.3695856  
C    1.2040006   -0.0000007   -0.7283591  
C    1.1422372    0.0006038   -2.1454374  
N    2.4348634    0.0026110   -2.6077469  
C   -0.0655187    0.0008799   -2.8497915  
C   -1.2321772    0.0002326   -2.1101397  
O   -2.4392820    0.0001149   -2.7472517  
C   -1.1911209   -0.0000007   -0.6955263  
O   -2.4371523   -0.0002319   -0.1032858  
C    0.0000000    0.0000000    0.0000000  
H    3.0031535   -0.0000661    0.6222578  
H    2.7054623   -0.0071098   -3.5745264  
H   -0.1193555    0.0014846   -3.9297470  
H   -3.1132995   -0.0000646   -2.0551782  
H   -2.3200286   -0.0004070    0.8516413  
C    5.7082752    0.0170070   -0.7673042  
C    6.9602955    0.0287161   -1.3371954  
C    6.7741492    0.0207405   -2.7513686  
C    5.3755281    0.0043194   -2.9869823  
N    4.7577216    0.0005129   -1.7610467  
C    4.8251842   -0.0068313   -4.2722007  
C    5.7027238   -0.0009975   -5.3390032  
O    5.2190231   -0.0110099   -6.6153058  
C    7.1014517    0.0149720   -5.1242418  
O    7.8424797    0.0185577   -6.2879465  
C    7.6450847    0.0257058   -3.8566162  
H    7.8930377    0.0403355   -0.7997484  
H    3.7601286   -0.0195071   -4.4584768  
H    5.9887338   -0.0049085   -7.1990636  
H    8.7756809    0.0295844   -6.0542421  
H    8.7205204    0.0376810   -3.7233005  
H    5.4181288    0.0176705    0.2694087  
C    0.8681109    0.7263879    2.2709268  
C    0.6127770    0.5096195    3.5869401  
C   -0.4920590   -0.4175482    3.6542670  
C   -0.8620974   -0.7254003    2.2596025  
N    0.0000000    0.0000000    1.4700000  
C   -1.8641242   -1.5660088    1.8976294  
C   -2.6293522   -2.2103885    2.9520183  
O   -3.5512764   -2.9839180    2.7283916  
C   -2.2549728   -1.8987399    4.4361073  
O   -2.8923672   -2.4351063    5.3323774  
C   -1.1543735   -0.9755647    4.7012123  
H    1.1382914    0.9492124    4.4159191  
H   -2.1192137   -1.7782617    0.8686553  
H   -0.9013378   -0.7652422    5.7314848  
H    1.6172880    1.3558399    1.8188057  
