44
1A 10B 30A 39B 11 13 40 42 3 4 3 4 2 0 2 0 nosym
C    0.2317316   -0.7258259   -5.1498278  
C    0.4809610   -0.5091346   -6.4670236  
C   -0.5210737    0.4175617   -6.9381879  
C   -1.3806556    0.7252216   -5.7791989  
N   -0.8712826    0.0001710   -4.7267111  
C   -2.4458521    1.5653922   -5.8134599  
C   -2.7672893    2.2094701   -7.0761466  
O   -3.7068826    2.9825997   -7.2093258  
C   -1.8706103    1.8980177   -8.3166179  
O   -2.1316878    2.4341328   -9.3851116  
C   -0.7496064    0.9753202   -8.1558970  
H    1.2759092   -0.9484824   -7.0429093  
H   -3.0633872    1.7775108   -4.9517372  
H   -0.1335002    0.7651310   -9.0195859  
H    0.7609210   -1.3549681   -4.4526705  
C    1.0965514    0.0001359   -0.8010305  
C    0.0000000    0.0000000    0.0000000  
C   -1.1546563    0.0001470   -0.8669513  
C   -0.6372014    0.0003519   -2.2486282  
N    0.7342871    0.0007337   -2.1395014  
C   -1.4147739    0.0001352   -3.3608717  
C   -2.8576049   -0.0001048   -3.1854462  
O   -3.6427779   -0.0002494   -4.1244907  
C   -3.4275840   -0.0000725   -1.7311666  
O   -4.6406831    0.0000333   -1.5710060  
C   -2.4891867   -0.0001091   -0.6116744  
H   -2.8919122   -0.0002918    0.3920866  
H    2.1388272    0.0000663   -0.5261648  
H    1.3735872   -0.0006099   -2.9130262  
C    0.8681109    0.7263879    2.2709268  
C    0.6127770    0.5096195    3.5869401  
C   -0.4920590   -0.4175482    3.6542670  
C   -0.8620974   -0.7254003    2.2596025  
N    0.0000000    0.0000000    1.4700000  
C   -1.8641242   -1.5660088    1.8976294  
C   -2.6293522   -2.2103885    2.9520183  
O   -3.5512764   -2.9839180    2.7283916  
C   -2.2549728   -1.8987399    4.4361073  
O   -2.8923672   -2.4351063    5.3323774  
C   -1.1543735   -0.9755647    4.7012123  
H    1.1382914    0.9492124    4.4159191  
H   -2.1192137   -1.7782617    0.8686553  
H   -0.9013378   -0.7652422    5.7314848  
H    1.6172880    1.3558399    1.8188057  
