48
33A 37A 38B 17A 26B 46 47 45 27 31 2 1 7 3 4 3 0 2 0 nosym
C    3.3003551    0.0005277   -1.4738980  
C    2.5232820    0.0003498   -2.6090740  
C    1.1623207   -0.0001318   -2.1820099  
C    1.1711887    0.0000584   -0.7636138  
N    2.4852302   -0.0014919   -0.3662352  
C    0.0000000    0.0000000    0.0000000  
C   -1.2020382    0.0000521   -0.6806482  
O   -2.3759248    0.0003494    0.0157741  
C   -1.2314651   -0.0005111   -2.0955511  
O   -2.5054381   -0.0008036   -2.6250184  
C   -0.0764509   -0.0007271   -2.8495194  
H    2.8036266    0.0088182    0.5858670  
H   -3.0835635    0.0000348   -0.6418822  
H   -2.4360036   -0.0011526   -3.5845927  
H   -0.1304085   -0.0013419   -3.9319086  
H    4.3715552    0.0004895   -1.3667123  
C    4.1182196   -0.7098244   -4.4345224  
C    4.3063926   -0.4605392   -5.7742670  
C    3.2826546    0.4475820   -6.1766060  
C    2.4931728    0.7193451   -5.0299639  
N    3.0267445   -0.0008950   -3.9901692  
C    1.3904690    1.5784648   -5.0572793  
C    1.0792525    2.1743286   -6.2640389  
O    0.0128520    3.0222366   -6.3468383  
C    1.8547095    1.9154239   -7.4192239  
O    1.4171357    2.5841567   -8.5437990  
C    2.9425265    1.0677821   -7.3930722  
H    5.0850022   -0.8823008   -6.3865387  
H    0.7846355    1.7896271   -4.1868891  
H   -0.0265958    3.3225742   -7.2641748  
H    1.9945696    2.3544011   -9.2782280  
H    3.5175162    0.8886450   -8.2940579  
H    4.6753589   -1.3383451   -3.7610861  
C    2.4951002    2.0940188    2.9809380  
C    1.9440701    1.6314916    1.8291961  
C    0.8759964    0.7350050    2.2038498  
C    0.8497377    0.7130254    3.6788474  
N    1.8560616    1.5571714    4.0882609  
C   -0.0205033   -0.0168748    4.4215661  
C   -0.9962600   -0.8356168    3.7214979  
O   -1.8224391   -1.5286685    4.3006425  
C   -0.9864710   -0.8277881    2.1595606  
O   -1.8030528   -1.5133726    1.5592035  
C    0.0000000    0.0000000    1.4700000  
H    2.2509283    1.8888011    0.8310761  
H   -0.0229599   -0.0187323    5.5027230  
H    3.3143982    2.7817323    3.1139444  
H    2.0889452    1.7545833    5.0442112  
