48
33A 37A 38B 17A 26B 46 47 45 27 31 2 1 7 3 4 3 0 2 0 nosym
C    3.3041272    0.0001176   -1.5420431  
C    2.5845372   -0.0004781   -0.3695853  
C    1.2040006   -0.0000009   -0.7283588  
C    1.1422374    0.0006035   -2.1454372  
N    2.4348639    0.0026108   -2.6077465  
C   -0.0655182    0.0008795   -2.8497919  
C   -1.2321769    0.0002322   -2.1101399  
O   -2.4392814    0.0001143   -2.7472520  
C   -1.1911210   -0.0000008   -0.6955264  
O   -2.4371527   -0.0002321   -0.1032861  
C    0.0000000    0.0000000    0.0000000  
H    3.0031535   -0.0000660    0.6222584  
H   -0.1193549    0.0014841   -3.9297469  
H   -3.1132989   -0.0000650   -2.0551785  
H   -2.3200281   -0.0004071    0.8516412  
H    4.3686623    0.0004070   -1.7024293  
C    3.8878171   -0.7221153   -4.5427235  
C    3.9719333   -0.4862754   -5.8954137  
C    2.9171610    0.4147682   -6.2273411  
C    2.2168609    0.6962702   -5.0263988  
N    2.8310664   -0.0116222   -4.0232753  
C    1.1122536    1.5520018   -4.9778752  
C    0.7074031    2.1344020   -6.1632377  
O   -0.3652174    2.9784454   -6.1726997  
C    1.3930195    1.8656299   -7.3717530  
O    0.8682191    2.5214010   -8.4662358  
C    2.4826538    1.0213222   -7.4204129  
H    4.7028564   -0.9122323   -6.5612256  
H    0.5741181    1.7705381   -4.0658149  
H   -0.4758797    3.2691033   -7.0873241  
H    1.3885186    2.2856096   -9.2403768  
H    2.9875790    0.8344052   -8.3609398  
H    4.4971336   -1.3420435   -3.9076006  
C    2.4951002    2.0940188    2.9809380  
C    1.9440701    1.6314916    1.8291961  
C    0.8759964    0.7350050    2.2038498  
C    0.8497377    0.7130254    3.6788474  
N    1.8560616    1.5571714    4.0882609  
C   -0.0205033   -0.0168748    4.4215661  
C   -0.9962600   -0.8356168    3.7214979  
O   -1.8224391   -1.5286685    4.3006425  
C   -0.9864710   -0.8277881    2.1595606  
O   -1.8030528   -1.5133726    1.5592035  
C    0.0000000    0.0000000    1.4700000  
H    2.2509283    1.8888011    0.8310761  
H   -0.0229599   -0.0187323    5.5027230  
H    3.3143982    2.7817323    3.1139444  
H    2.0889452    1.7545833    5.0442112  
