44
29A 30A 39B 5A 14A 15B 24B 42 40 41 12 27 25 26 2 3 4 7 2 3 4 3 1 3 0 nosym
C    3.2573672   -0.0002920   -1.5109379  
C    2.5379469   -0.0001709   -0.3591960  
C    1.1435044    0.0000331   -0.7338498  
C    1.1092608   -0.0000083   -2.2088475  
N    2.4227563    0.0001909   -2.6182608  
C   -0.0265531   -0.0002524   -2.9515661  
C   -1.3003038   -0.0002640   -2.2514979  
O   -2.3786783   -0.0004133   -2.8306426  
C   -1.2877724    0.0000311   -0.6895607  
O   -2.3539956    0.0003306   -0.0892035  
C    0.0000000    0.0000000    0.0000000  
H    2.9384089   -0.0000367    0.6389238  
H   -0.0296289   -0.0004086   -4.0327230  
H    2.7280494   -0.0013407   -3.5742114  
C    6.5597222   -0.0008209    1.3835032  
C    7.6114515   -0.0009112    0.5244683  
C    7.0637936   -0.0009870   -0.8115355  
C    5.5962697   -0.0009037   -0.6593374  
N    5.3559140   -0.0012036    0.6953281  
C    4.7161333   -0.0005435   -1.6923255  
C    5.2498359   -0.0004421   -3.0442489  
O    4.5392151   -0.0001860   -4.0409029  
C    6.8008639   -0.0007796   -3.2289589  
O    7.2618460   -0.0010043   -4.3624297  
C    7.6474467   -0.0008760   -2.0385182  
H    8.6521339   -0.0011058    0.7957498  
H    8.7203352   -0.0009046   -2.1750251  
H    6.5627887   -0.0007238    2.4614087  
H    4.4461414    0.0003273    1.1188356  
C    2.5128556    2.1077716    2.9199648  
C    1.9592212    1.6432552    4.0696553  
C    0.8915788    0.7479214    3.6910360  
C    0.8684491    0.7287414    2.2159470  
N    1.8754542    1.5738793    1.8102719  
C    0.0000000    0.0000000    1.4700000  
C   -0.9772830   -0.8200135    2.1664417  
O   -1.8021297   -1.5120829    1.5842315  
C   -0.9711318   -0.8147624    3.7284083  
O   -1.7894187   -1.5009653    4.3257297  
C    0.0140216    0.0115358    4.4216297  
H    2.2638494    1.8988021    5.0689105  
H    0.0117648    0.0094386    5.5031631  
H    3.3327358    2.7953732    2.7900019  
H    2.1123206    1.7707734    0.8551938  
