44
1A 10B 33A 34B 11 13 43 40 3 4 1 7 2 0 2 0 nosym
C    4.4172842   -0.7258057   -4.2518393  
C    4.7211091   -0.5093464   -5.5575617  
C    3.7392625    0.4168844   -6.0703081  
C    2.8320290    0.7245239   -4.9482222  
N    3.2973504   -0.0000931   -3.8752375  
C    1.7688997    1.5643128   -5.0270543  
C    1.5001372    2.2079719   -6.3022035  
O    0.5666464    2.9807397   -6.4746170  
C    2.4478318    1.8965334   -7.5041542  
O    2.2313218    2.4322979   -8.5827361  
C    3.5614791    0.9742677   -7.2966257  
H    5.5395127   -0.9485552   -6.0997101  
H    1.1159218    1.7764239   -4.1918662  
H    4.2131098    0.7640852   -8.1338370  
H    4.9171781   -1.3545935   -3.5330755  
C    3.3321173    0.0004715   -1.3379333  
C    2.6974184    0.0000117   -2.5332310  
C    1.2800439   -0.0002118   -2.2052839  
C    1.2395035    0.0000643   -0.7271293  
N    2.4394063    0.0005460   -0.2131035  
C    0.0000000    0.0000000    0.0000000  
C   -1.1468702    0.0000634   -0.7169541  
O   -2.3742202    0.0000072   -0.1695491  
C   -1.1388767    0.0001606   -2.2096353  
O   -2.2206230    0.0000901   -2.7970412  
C    0.1454525    0.0001815   -2.9324239  
H   -2.9844345    0.0001024   -0.9290167  
H    0.1083577    0.0003682   -4.0135594  
H    4.3940039    0.0007620   -1.1498632  
C    0.8400945    0.7047457    2.2710304  
C    0.0000000    0.0000000    1.4700000  
C   -0.8844236   -0.7423113    2.3369512  
C   -0.4878984   -0.4098547    3.7186280  
N    0.5629682    0.4714286    3.6095011  
C   -1.0836927   -0.9095027    4.8308716  
C   -2.1891196   -1.8367527    4.6554461  
O   -2.7906899   -2.3413415    5.5944904  
C   -2.6257283   -2.2031529    3.2011665  
O   -3.5549479   -2.9829990    3.0410059  
C   -1.9068976   -1.5999348    2.0816745  
H   -0.7774656   -0.6525820    5.8354244  
H   -2.2155208   -1.8586617    1.0779135  
H    1.6384792    1.3747609    1.9961646  
H    1.0518368    0.8833920    4.3830260  
