44
29A 33A 34B 14A 18A 19B 42 43 41 27 28 26 2 1 7 2 1 7 3 0 3 0 nosym
C    3.2798086    0.0005858   -1.4499646  
C    2.5571145    0.0005567   -2.5996553  
C    1.1637436    0.0001549   -2.2210360  
C    1.1336963   -0.0000199   -0.7459471  
N    2.4483514   -0.0001427   -0.3402720  
C    0.0000000    0.0000000    0.0000000  
C   -1.2757367   -0.0000186   -0.6964417  
O   -2.3524597   -0.0000640   -0.1142315  
C   -1.2676494   -0.0000872   -2.2584082  
O   -2.3355761   -0.0004100   -2.8557297  
C    0.0181560    0.0001762   -2.9516297  
H    0.0150792    0.0003321   -4.0331631  
H    4.3498549    0.0008613   -1.3200019  
H    2.7563626    0.0012824    0.6148062  
C    5.9816657   -2.0880605   -4.4453418  
C    5.0429439   -1.6267497   -3.5792766  
C    4.1873009   -0.7324969   -4.3229314  
C    4.7081984   -0.7105026   -5.7031388  
N    5.7962504   -1.5525077   -5.7108633  
C    4.1727805    0.0175984   -6.7155129  
C    3.0057183    0.8342500   -6.4264094  
O    2.4508359    1.5255875   -7.2704821  
C    2.4373468    0.8263678   -4.9715221  
O    1.4553087    1.5102023   -4.7161161  
C    3.1006058    0.0006265   -3.9654949  
H    4.9595396   -1.8834596   -2.5382401  
H    4.5702215    0.0195020   -7.7209712  
H    6.7934414   -2.7740405   -4.2655065  
H    6.3664578   -1.7493833   -6.5128302  
C    2.4951002    2.0940188    2.9809380  
C    1.9440701    1.6314916    1.8291961  
C    0.8759964    0.7350050    2.2038498  
C    0.8497377    0.7130254    3.6788474  
N    1.8560616    1.5571714    4.0882609  
C   -0.0205033   -0.0168748    4.4215661  
C   -0.9962600   -0.8356168    3.7214979  
O   -1.8224391   -1.5286685    4.3006425  
C   -0.9864710   -0.8277881    2.1595606  
O   -1.8030528   -1.5133726    1.5592035  
C    0.0000000    0.0000000    1.4700000  
H    2.2509283    1.8888011    0.8310761  
H   -0.0229599   -0.0187323    5.5027230  
H    3.3143982    2.7817323    3.1139444  
H    2.0889452    1.7545833    5.0442112  
