44
1A 10B 25B 29A 33A 34B 11 13 28 42 43 41 3 4 4 2 1 7 2 1 3 0 nosym
C   -3.9833916    0.7253520   -1.7965128  
C   -5.3237297    0.5083675   -1.8185369  
C   -5.5825466   -0.4183014   -2.8951678  
C   -4.2737349   -0.7256252   -3.5029138  
N   -3.3460097   -0.0004262   -2.7913647  
C   -4.0919151   -1.5656735   -4.5531352  
C   -5.2634891   -2.2099646   -5.1230813  
O   -5.2039376   -2.9830067   -6.0702671  
C   -6.6595987   -1.8988693   -4.4954639  
O   -7.6532014   -2.4351661   -4.9670552  
C   -6.7288574   -0.9762756   -3.3650317  
H   -6.0484329    0.9475035   -1.1562839  
H   -3.1231596   -1.7775447   -4.9838708  
H   -7.6992492   -0.7663339   -2.9360933  
H   -3.4076524    1.3545695   -1.1373468  
C    0.0000000    0.0000000    0.0000000  
C    1.0662919   -0.0000103   -0.8334272  
C    0.4961868    0.0000066   -2.1718889  
C   -0.9663860   -0.0000849   -1.9540248  
N   -1.2632775   -0.0000084   -0.6828659  
C   -1.8985364   -0.0000515   -3.0477258  
C   -1.3925778    0.0004567   -4.3020543  
O   -2.1456385    0.0005412   -5.4151314  
C    0.0786229    0.0009326   -4.5544999  
O    0.4683756    0.0012594   -5.7221104  
C    1.0143162    0.0008443   -3.4159034  
H    2.1107195    0.0000631   -0.5721869  
H   -1.5042277    0.0009692   -6.1484420  
H    2.0724151    0.0013151   -3.6409746  
C    3.2573670    0.0002920    2.9809380  
C    2.5379467    0.0001709    1.8291961  
C    1.1435042   -0.0000331    2.2038498  
C    1.1092607    0.0000083    3.6788474  
N    2.4227561   -0.0001909    4.0882609  
C   -0.0265533    0.0002524    4.4215661  
C   -1.3003036    0.0002640    3.7214979  
O   -2.3786784    0.0004133    4.3006425  
C   -1.2877726   -0.0000311    2.1595606  
O   -2.3539958   -0.0003306    1.5592035  
C    0.0000000    0.0000000    1.4700000  
H    2.9384090    0.0000368    0.8310761  
H   -0.0296291    0.0004086    5.5027230  
H    4.3270393    0.0004765    3.1139444  
H    2.7280493    0.0013407    5.0442112  
