48
37A 38B 5A 16A 20B 21B 47 44 13 32 28 29 1 7 7 2 1 7 2 1 3 0 nosym
C    0.0000000    0.0000000    0.0000000  
C    1.0521668   -0.0011901   -0.8862342  
C    0.4917217   -0.0011956   -2.1979133  
C   -0.9187428    0.0003148   -2.0478683  
N   -1.1833173   -0.0009411   -0.7007912  
C   -1.7951703    0.0010350   -3.1372089  
C   -1.2375839    0.0005225   -4.4010424  
O   -2.0474218    0.0015361   -5.4997581  
C    0.1673577   -0.0013566   -4.5711965  
O    0.5673522   -0.0020687   -5.8915550  
C    1.0325768   -0.0023412   -3.4969891  
H    2.0953058   -0.0030649   -0.6200564  
H   -2.0989775    0.0102371   -0.2891826  
H   -2.8710934    0.0020420   -3.0295514  
H   -1.4634887    0.0006497   -6.2693593  
H    1.5290707   -0.0033152   -5.9180043  
C    4.3850065   -2.1302628   -1.4420384  
C    3.1441269   -1.6664980   -1.8129925  
C    3.3426798   -0.7794194   -2.9122051  
C    4.7370096   -0.7413798   -3.1697395  
N    5.3406652   -1.5712836   -2.2578860  
C    5.2968236    0.0339843   -4.1896447  
C    4.4333107    0.7843869   -4.9638665  
O    4.9266681    1.5591317   -5.9735108  
C    3.0391105    0.7599365   -4.7221540  
O    2.3124198    1.5614494   -5.5782154  
C    2.4861699   -0.0045381   -3.7159923  
H    2.2107768   -1.9337380   -1.3477689  
H    6.3263418   -1.7540856   -2.2030554  
H    6.3586900    0.0674336   -4.3909475  
H    4.1660104    1.9932088   -6.3812373  
H    1.3813912    1.4874683   -5.3473123  
H    4.6641251   -2.8144409   -0.6591257  
C    1.0965515   -0.0001358    2.2710304  
C    0.0000000    0.0000000    1.4700000  
C   -1.1546562   -0.0001469    2.3369512  
C   -0.6372014   -0.0003519    3.7186280  
N    0.7342871   -0.0007337    3.6095011  
C   -1.4147739   -0.0001353    4.8308716  
C   -2.8576048    0.0001048    4.6554461  
O   -3.6427778    0.0002493    5.5944904  
C   -3.4275839    0.0000726    3.2011665  
O   -4.6406829   -0.0000333    3.0410059  
C   -2.4891866    0.0001091    2.0816745  
H   -1.0150448   -0.0001615    5.8354244  
H   -2.8919121    0.0002919    1.0779135  
H    2.1388271   -0.0000662    1.9961646  
H    1.3735872    0.0006099    4.3830260  
