48
38B 43B 16A 20A 21B 45 46 32 28 29 7 4 2 1 7 2 0 3 0 nosym
C    3.3041272    0.0001176   -1.5420431  
C    2.5845372   -0.0004781   -0.3695853  
C    1.2040006   -0.0000009   -0.7283588  
C    1.1422374    0.0006035   -2.1454372  
N    2.4348639    0.0026108   -2.6077465  
C   -0.0655182    0.0008795   -2.8497919  
C   -1.2321769    0.0002322   -2.1101399  
O   -2.4392814    0.0001143   -2.7472520  
C   -1.1911210   -0.0000008   -0.6955264  
O   -2.4371527   -0.0002321   -0.1032861  
C    0.0000000    0.0000000    0.0000000  
H    3.0031535   -0.0000660    0.6222584  
H   -0.1193549    0.0014841   -3.9297469  
H   -3.1132989   -0.0000650   -2.0551785  
H   -2.3200281   -0.0004071    0.8516412  
H    4.3686623    0.0004070   -1.7024293  
C    5.6928651   -2.1325522   -4.8023230  
C    4.8437655   -1.6629840   -3.8271295  
C    3.9187211   -0.7861194   -4.4674429  
C    4.2553076   -0.7600056   -5.8451060  
N    5.3381033   -1.5868709   -6.0138197  
C    3.5511953    0.0032251   -6.7813180  
C    2.4877425    0.7535301   -6.3184051  
O    1.7657457    1.5166936   -7.1897920  
C    2.1367190    0.7408777   -4.9474784  
O    1.0544923    1.5406692   -4.6434018  
C    2.8310664   -0.0116222   -4.0232753  
H    4.8866013   -1.9198941   -2.7825455  
H    5.7930177   -1.7762042   -6.8885694  
H    3.8027866    0.0275507   -7.8326561  
H    1.0801164    1.9528829   -6.6673788  
H    0.8837167    1.4751236   -3.6988685  
H    6.5243671   -2.8124298   -4.7293098  
C    0.0000000    0.0000000    1.4700000  
C    1.0541688    0.0001722    2.3260392  
C    0.5103138    0.0000454    3.6635956  
C   -0.9576371   -0.0002459    3.5155732  
N   -1.2018458    0.0001392    2.1615969  
C   -1.8348311   -0.0008317    4.5510609  
C   -1.2972847   -0.0009736    5.9014604  
O   -2.0050672   -0.0014265    6.9001319  
C    0.2542623   -0.0004184    6.0817573  
O    0.7184670   -0.0002256    7.2139121  
C    1.0974552   -0.0000873    4.8889129  
H    2.0940752    0.0005483    2.0517982  
H   -2.9081052   -0.0011668    4.4207061  
H    2.1707277    0.0000911    5.0223670  
H   -2.1128194   -0.0014912    1.7406791  
