48
34A 43B 16A 17A 26B 44 46 32 27 31 3 4 2 3 4 2 0 3 0 nosym
C    1.1243415    0.0099159   -0.7919008  
C    0.7474084    0.0234036   -2.1148547  
C   -0.6787372    0.0234950   -2.1414699  
C   -1.1201741    0.0099353   -0.7935545  
N    0.0000000    0.0000000    0.0000000  
C   -2.4730813    0.0065388   -0.4408235  
C   -3.3971951    0.0173288   -1.4675053  
O   -4.7313510    0.0149472   -1.1793456  
C   -2.9763637    0.0305528   -2.8186317  
O   -4.0166458    0.0397846   -3.7247611  
C   -1.6418550    0.0336375   -3.1673478  
H   -2.8160168   -0.0039199    0.5845974  
H   -5.1938811    0.0234395   -2.0274371  
H   -3.6464651    0.0484770   -4.6127333  
H   -1.3497452    0.0436785   -4.2109230  
H    2.1062467    0.0051388   -0.3505413  
C    4.5588195   -2.0914570   -2.8627792  
C    4.8000336   -1.5806487   -4.1171146  
C    3.7182657   -0.7031954   -4.4244488  
C    2.8403259   -0.7187997   -3.3104900  
N    3.3795079   -1.5732528   -2.3810762  
C    1.6628963    0.0337773   -3.2649305  
C    1.3664938    0.8165971   -4.3638008  
O    0.2294719    1.5716658   -4.3719361  
C    2.2297506    0.8451984   -5.4848659  
O    1.7959152    1.6732463   -6.4994928  
C    3.3913430    0.1028126   -5.5306121  
H    5.6504426   -1.8128430   -4.7350819  
H    2.9825428   -1.7781837   -1.4819637  
H    0.2148359    2.0340614   -5.2200170  
H    2.4349527    1.6348130   -7.2176556  
H    4.0327907    0.1449046   -6.4031095  
H    5.1339656   -2.7855391   -2.2742080  
C    0.8681109    0.7263879    2.2709268  
C    0.6127770    0.5096195    3.5869401  
C   -0.4920590   -0.4175482    3.6542670  
C   -0.8620974   -0.7254003    2.2596025  
N    0.0000000    0.0000000    1.4700000  
C   -1.8641242   -1.5660088    1.8976294  
C   -2.6293522   -2.2103885    2.9520183  
O   -3.5512764   -2.9839180    2.7283916  
C   -2.2549728   -1.8987399    4.4361073  
O   -2.8923672   -2.4351063    5.3323774  
C   -1.1543735   -0.9755647    4.7012123  
H    1.1382914    0.9492124    4.4159191  
H   -2.1192137   -1.7782617    0.8686553  
H   -0.9013378   -0.7652422    5.7314848  
H    1.6172880    1.3558399    1.8188057  
