48
37A 38B 5B 21B 26B 47 44 13 29 32 1 7 7 7 4 2 1 2 0 nosym
C    3.3041269    0.0001177   -1.5420434  
C    2.5845370   -0.0004780   -0.3695856  
C    1.2040006   -0.0000007   -0.7283591  
C    1.1422372    0.0006038   -2.1454374  
N    2.4348634    0.0026110   -2.6077469  
C   -0.0655187    0.0008799   -2.8497915  
C   -1.2321772    0.0002326   -2.1101397  
O   -2.4392820    0.0001149   -2.7472517  
C   -1.1911209   -0.0000007   -0.6955263  
O   -2.4371523   -0.0002319   -0.1032858  
C    0.0000000    0.0000000    0.0000000  
H    3.0031535   -0.0000661    0.6222578  
H    2.7054623   -0.0071098   -3.5745264  
H   -0.1193555    0.0014846   -3.9297470  
H   -3.1132995   -0.0000646   -2.0551782  
H   -2.3200286   -0.0004070    0.8516413  
C    4.7577216    0.0005129   -1.7610467  
C    5.7908195   -0.0019868   -0.8526580  
C    7.0043636   -0.0008153   -1.6022639  
C    6.6458593    0.0027296   -2.9746298  
N    5.2743991    0.0015007   -3.0355631  
C    7.5924713    0.0050318   -4.0035660  
C    8.9252702    0.0040387   -3.6404920  
O    9.8910729    0.0065389   -4.6049782  
C    9.3028361    0.0001389   -2.2765837  
O   10.6680520   -0.0008066   -2.0777643  
C    8.3695192   -0.0024071   -1.2609857  
H    5.6830210   -0.0054674    0.2184912  
H    4.7309660    0.0139152   -3.8796648  
H    7.3257211    0.0075923   -5.0514402  
H   10.7390805    0.0050006   -4.1422204  
H   10.8374849   -0.0034607   -1.1307220  
H    8.6888293   -0.0055597   -0.2253651  
C    0.8400945    0.7047457    2.2710304  
C    0.0000000    0.0000000    1.4700000  
C   -0.8844236   -0.7423113    2.3369512  
C   -0.4878984   -0.4098547    3.7186280  
N    0.5629682    0.4714286    3.6095011  
C   -1.0836927   -0.9095027    4.8308716  
C   -2.1891196   -1.8367527    4.6554461  
O   -2.7906899   -2.3413415    5.5944904  
C   -2.6257283   -2.2031529    3.2011665  
O   -3.5549479   -2.9829990    3.0410059  
C   -1.9068976   -1.5999348    2.0816745  
H   -0.7774656   -0.6525820    5.8354244  
H   -2.2155208   -1.8586617    1.0779135  
H    1.6384792    1.3747609    1.9961646  
H    1.0518368    0.8833920    4.3830260  
