46
35A 36B 21B 26B 45 42 28 29 1 7 7 4 2 0 2 0 nosym
C    3.3041272    0.0001176   -1.5420431  
C    2.5845372   -0.0004781   -0.3695853  
C    1.2040006   -0.0000009   -0.7283588  
C    1.1422374    0.0006035   -2.1454372  
N    2.4348639    0.0026108   -2.6077465  
C   -0.0655182    0.0008795   -2.8497919  
C   -1.2321769    0.0002322   -2.1101399  
O   -2.4392814    0.0001143   -2.7472520  
C   -1.1911210   -0.0000008   -0.6955264  
O   -2.4371527   -0.0002321   -0.1032861  
C    0.0000000    0.0000000    0.0000000  
H    3.0031535   -0.0000660    0.6222584  
H   -0.1193549    0.0014841   -3.9297469  
H   -3.1132989   -0.0000650   -2.0551785  
H   -2.3200281   -0.0004071    0.8516412  
H    4.3686623    0.0004070   -1.7024293  
C    2.8310664   -0.0116222   -4.0232753  
C    4.0769400   -0.0127942   -4.5635277  
C    3.9137207   -0.0293783   -5.9980729  
C    2.4602095   -0.0378034   -6.2511035  
N    1.8601108   -0.0267674   -5.0131013  
C    1.8945728   -0.0533086   -7.4846018  
C    2.7761881   -0.0625250   -8.6401118  
O    2.3637702   -0.0766353   -9.7925072  
C    4.3189013   -0.0540983   -8.3956314  
O    5.0710686   -0.0620434   -9.3607434  
C    4.8093827   -0.0370500   -7.0197719  
H    5.0044404   -0.0033250   -4.0192236  
H    0.8258911   -0.0591321   -7.6482936  
H    5.8788975   -0.0310997   -6.8590664  
H    0.8694023   -0.0273602   -4.8532763  
C    0.8400945    0.7047457    2.2710304  
C    0.0000000    0.0000000    1.4700000  
C   -0.8844236   -0.7423113    2.3369512  
C   -0.4878984   -0.4098547    3.7186280  
N    0.5629682    0.4714286    3.6095011  
C   -1.0836927   -0.9095027    4.8308716  
C   -2.1891196   -1.8367527    4.6554461  
O   -2.7906899   -2.3413415    5.5944904  
C   -2.6257283   -2.2031529    3.2011665  
O   -3.5549479   -2.9829990    3.0410059  
C   -1.9068976   -1.5999348    2.0816745  
H   -0.7774656   -0.6525820    5.8354244  
H   -2.2155208   -1.8586617    1.0779135  
H    1.6384792    1.3747609    1.9961646  
H    1.0518368    0.8833920    4.3830260  
