48
37A 38B 16A 20A 21B 47 44 32 28 29 1 7 2 1 7 2 0 3 0 nosym
C    1.1243415    0.0099159   -0.7919008  
C    0.7474084    0.0234036   -2.1148547  
C   -0.6787372    0.0234950   -2.1414699  
C   -1.1201741    0.0099353   -0.7935545  
N    0.0000000    0.0000000    0.0000000  
C   -2.4730813    0.0065388   -0.4408235  
C   -3.3971951    0.0173288   -1.4675053  
O   -4.7313510    0.0149472   -1.1793456  
C   -2.9763637    0.0305528   -2.8186317  
O   -4.0166458    0.0397846   -3.7247611  
C   -1.6418550    0.0336375   -3.1673478  
H   -2.8160168   -0.0039199    0.5845974  
H   -5.1938811    0.0234395   -2.0274371  
H   -3.6464651    0.0484770   -4.6127333  
H   -1.3497452    0.0436785   -4.2109230  
H    2.1062467    0.0051388   -0.3505413  
C    4.6033855   -2.0936204   -2.9144231  
C    3.4416706   -1.6366434   -2.3364460  
C    2.8380291   -0.7402902   -3.2674496  
C    3.6838497   -0.6898570   -4.4049784  
N    4.7474130   -1.5216283   -4.1567715  
C    3.3988715    0.0969608   -5.5250200  
C    2.2387576    0.8462874   -5.4963340  
O    1.9120936    1.6319095   -6.5636213  
C    1.3822496    0.8095563   -4.3703400  
O    0.2665838    1.6116092   -4.4942145  
C    1.6628963    0.0337773   -3.2649305  
H    3.0750419   -1.9142493   -1.3630438  
H    5.5067780   -1.6973427   -4.7895989  
H    4.0394880    0.1398851   -6.3950601  
H    1.0770731    2.0631004   -6.3398369  
H   -0.2580249    1.5289360   -3.6919959  
H    5.3413639   -2.7812155   -2.5381784  
C    0.8400945    0.7047457    2.2710304  
C    0.0000000    0.0000000    1.4700000  
C   -0.8844236   -0.7423113    2.3369512  
C   -0.4878984   -0.4098547    3.7186280  
N    0.5629682    0.4714286    3.6095011  
C   -1.0836927   -0.9095027    4.8308716  
C   -2.1891196   -1.8367527    4.6554461  
O   -2.7906899   -2.3413415    5.5944904  
C   -2.6257283   -2.2031529    3.2011665  
O   -3.5549479   -2.9829990    3.0410059  
C   -1.9068976   -1.5999348    2.0816745  
H   -0.7774656   -0.6525820    5.8354244  
H   -2.2155208   -1.8586617    1.0779135  
H    1.6384792    1.3747609    1.9961646  
H    1.0518368    0.8833920    4.3830260  
