44
1A 10B 20B 29A 30A 39B 11 13 27 43 40 42 3 4 7 2 3 4 2 1 3 0 nosym
C    3.4581235   -0.7257441   -2.8368663  
C    4.7325801   -0.5094661   -3.2528701  
C    4.6630928    0.4165074   -4.3585736  
C    3.2334360    0.7241931   -4.5540256  
N    2.5562217   -0.0001540   -3.6003003  
C    2.7506126    1.5637882   -5.5046391  
C    3.7025403    2.2071748   -6.3948206  
O    3.3668876    2.9797540   -7.2829423  
C    5.2214736    1.8956826   -6.2060913  
O    6.0322610    2.4312185   -6.9497875  
C    5.6203296    0.9736423   -5.1456156  
H    5.6200549   -0.9486326   -2.8331862  
H    1.6980323    1.7759372   -5.6310406  
H    6.6739448    0.7634211   -5.0214147  
H    3.1018810   -1.3543195   -2.0369449  
C    0.0000000    0.0000000    0.0000000  
C    1.0541688   -0.0001718   -0.8560391  
C    0.5103141   -0.0000448   -2.1935955  
C   -0.9576367    0.0002462   -2.0455732  
N   -1.2018459   -0.0001391   -0.6915971  
C   -1.8348307    0.0008319   -3.0810611  
C   -1.2972843    0.0009743   -4.4314607  
O   -2.0050666    0.0014272   -5.4301322  
C    0.2542627    0.0004194   -4.6117573  
O    0.7184676    0.0002268   -5.7439121  
C    1.0974555    0.0000882   -3.4189128  
H    2.0940752   -0.0005478   -0.5817980  
H   -2.9081051    0.0011669   -2.9507063  
H   -2.1128195    0.0014909   -0.2706793  
C    3.3321173   -0.0004715    2.8079335  
C    2.6974184   -0.0000116    4.0032312  
C    1.2800439    0.0002118    3.6752840  
C    1.2395035   -0.0000644    2.1971295  
N    2.4394063   -0.0005460    1.6831036  
C    0.0000000    0.0000000    1.4700000  
C   -1.1468701   -0.0000635    2.1869543  
O   -2.3742202   -0.0000073    1.6395491  
C   -1.1388768   -0.0001607    3.6796354  
O   -2.2206231   -0.0000905    4.2670412  
C    0.1454524   -0.0001816    4.4024240  
H    3.1367986    0.0000651    4.9860947  
H   -2.9844344   -0.0001026    2.3990168  
H    0.1083576   -0.0003682    5.4835595  
H    4.3940039   -0.0007619    2.6198634  
