44
1A 10B 29A 30A 39B 11 13 43 40 42 3 4 2 3 4 2 0 3 0 nosym
C    0.0072362   -0.7172704   -5.1312249  
C    0.1641330   -0.4988121   -6.4622901  
C   -0.8688544    0.4276949   -6.8614857  
C   -1.6459761    0.7333179   -5.6451526  
N   -1.0641730    0.0073887   -4.6315340  
C   -2.7115368    1.5727277   -5.6042186  
C   -3.1204202    2.2180777   -6.8406948  
O   -4.0675147    2.9906596   -6.9072573  
C   -2.3119544    1.9087880   -8.1408976  
O   -2.6470495    2.4459876   -9.1879829  
C   -1.1818734    0.9867415   -8.0596606  
H    0.9174089   -0.9368710   -7.0926029  
H   -3.2678032    1.7833484   -4.7013804  
H   -0.6271708    0.7780517   -8.9643581  
H    0.5840377   -1.3468503   -4.4733351  
C    1.1319249    0.0015673   -0.8009268  
C    0.7969919    0.0034954   -2.1169403  
C   -0.6453335    0.0035697   -2.1842672  
C   -1.1266831    0.0015413   -0.7896029  
N    0.0000000    0.0000000    0.0000000  
C   -2.4346128    0.0013921   -0.4276299  
C   -3.4350109    0.0031346   -1.4820187  
O   -4.6384610    0.0030891   -1.2583924  
C   -2.9478954    0.0050451   -2.9661078  
O   -3.7809375    0.0062147   -3.8623779  
C   -1.5113818    0.0053061   -3.2312126  
H    1.4821242    0.0045430   -2.9459191  
H   -2.7664565    0.0000184    0.6013444  
H    2.1104318    0.0009428   -0.3488057  
C    2.5528530    2.1414826    2.8079335  
C    2.0663498    1.7338582    4.0032312  
C    0.9804344    0.8229586    3.6752840  
C    0.9495562    0.7966882    2.1971295  
N    1.8690446    1.5676019    1.6831036  
C    0.0000000    0.0000000    1.4700000  
C   -0.8785127   -0.7372425    2.1869543  
O   -1.8187535   -1.5261249    1.6395491  
C   -0.8723269   -0.7321790    3.6796354  
O   -1.7010379   -1.4274584    4.2670412  
C    0.1115397    0.0933559    4.4024240  
H    2.4028853    2.0163452    4.9860947  
H   -2.2861435   -1.9184361    2.3990168  
H    0.0832434    0.0693689    5.4835595  
H    3.3664920    2.8238276    2.6198634  
