44
0A 1A 10B 15A 29A 30A 39B 13 11 12 27 43 40 42 2 3 4 2 2 3 4 3 1 3 0 nosym
C    2.5250693   -2.1043384   -5.8790417  
C    1.9676429   -1.6402809   -7.0270842  
C    0.9000731   -0.7462066   -6.6452973  
C    0.8811185   -0.7272655   -5.1701455  
N    1.8902260   -1.5713255   -4.7674616  
C    0.0139740    0.0003882   -4.4216236  
C   -0.9662106    0.8193993   -5.1151614  
O   -1.7901774    1.5104538   -4.5305051  
C   -0.9644973    0.8143805   -6.6771402  
O   -1.7852533    1.4997460   -7.2720302  
C    0.0196112   -0.0107060   -7.3732829  
H    2.2697149   -1.8953397   -8.0272396  
H    0.0142751   -0.0084554   -8.4548052  
H    3.3460910   -2.7910335   -5.7515136  
H    2.1300305   -1.7680900   -3.8130902  
C    3.2798084    0.0005857   -1.4499648  
C    2.5571144    0.0005567   -2.5996554  
C    1.1637435    0.0001550   -2.2210360  
C    1.1336965   -0.0000199   -0.7459471  
N    2.4483512   -0.0001427   -0.3402718  
C    0.0000000    0.0000000    0.0000000  
C   -1.2757368   -0.0000186   -0.6964414  
O   -2.3524597   -0.0000639   -0.1142313  
C   -1.2676495   -0.0000872   -2.2584081  
O   -2.3355764   -0.0004099   -2.8557294  
C    0.0181561    0.0001761   -2.9516296  
H    2.9547355    0.0006077   -3.5989105  
H    4.3498548    0.0008614   -1.3200022  
H    2.7563628    0.0012824    0.6148063  
C    2.5528530    2.1414826    2.8079335  
C    2.0663498    1.7338582    4.0032312  
C    0.9804344    0.8229586    3.6752840  
C    0.9495562    0.7966882    2.1971295  
N    1.8690446    1.5676019    1.6831036  
C    0.0000000    0.0000000    1.4700000  
C   -0.8785127   -0.7372425    2.1869543  
O   -1.8187535   -1.5261249    1.6395491  
C   -0.8723269   -0.7321790    3.6796354  
O   -1.7010379   -1.4274584    4.2670412  
C    0.1115397    0.0933559    4.4024240  
H    2.4028853    2.0163452    4.9860947  
H   -2.2861435   -1.9184361    2.3990168  
H    0.0832434    0.0693689    5.4835595  
H    3.3664920    2.8238276    2.6198634  
