48
37A 38B 16A 20A 21B 47 44 32 28 29 1 7 2 1 7 2 0 3 0 nosym
C    1.1243415    0.0099154   -0.7919009  
C    0.7474086    0.0234032   -2.1148547  
C   -0.6787371    0.0234950   -2.1414700  
C   -1.1201741    0.0099356   -0.7935548  
N    0.0000000    0.0000000    0.0000000  
C   -2.4730813    0.0065397   -0.4408236  
C   -3.3971949    0.0173298   -1.4675053  
O   -4.7313511    0.0149489   -1.1793459  
C   -2.9763635    0.0305536   -2.8186319  
O   -4.0166455    0.0397857   -3.7247614  
C   -1.6418548    0.0336378   -3.1673479  
H    1.4178728    0.0310000   -2.9571213  
H   -2.8160170   -0.0039188    0.5845970  
H   -5.1938805    0.0234411   -2.0274374  
H   -3.6464652    0.0484778   -4.6127335  
H    2.1062467    0.0051380   -0.3505414  
C    1.6072290   -2.0690354   -5.4060706  
C    0.7600619   -1.6163253   -4.4212719  
C   -0.1612311   -0.7223961   -5.0431321  
C    0.1755454   -0.6689768   -6.4199593  
N    1.2548484   -1.4967110   -6.6059127  
C   -0.5252797    0.1165822   -7.3400299  
C   -1.5855809    0.8615557   -6.8615390  
O   -2.3042947    1.6457712   -7.7167992  
C   -1.9367372    0.8217963   -5.4911646  
O   -3.0155937    1.6196373   -5.1704429  
C   -1.2456309    0.0472573   -4.5828763  
H    0.8017491   -1.8951448   -3.3822746  
H    1.7090115   -1.6696790   -7.4844338  
H   -0.2735244    0.1617668   -8.3906394  
H   -2.9881066    2.0738628   -7.1853824  
H   -3.1867013    1.5351282   -4.2274773  
H    2.4358464   -2.7537950   -5.3472767  
C    0.8400945    0.7047457    2.2710304  
C    0.0000000    0.0000000    1.4700000  
C   -0.8844236   -0.7423113    2.3369512  
C   -0.4878984   -0.4098547    3.7186280  
N    0.5629682    0.4714286    3.6095011  
C   -1.0836927   -0.9095027    4.8308716  
C   -2.1891196   -1.8367527    4.6554461  
O   -2.7906899   -2.3413415    5.5944904  
C   -2.6257283   -2.2031529    3.2011665  
O   -3.5549479   -2.9829990    3.0410059  
C   -1.9068976   -1.5999348    2.0816745  
H   -0.7774656   -0.6525820    5.8354244  
H   -2.2155208   -1.8586617    1.0779135  
H    1.6384792    1.3747609    1.9961646  
H    1.0518368    0.8833920    4.3830260  
