44
5B 10B 29A 30A 39B 12 13 43 40 42 7 4 2 3 4 2 0 3 0 nosym
C   -0.8287671    0.0000935   -4.7555305  
C    0.4829789    0.0003529   -5.1068098  
C    0.5323570    0.0005978   -6.5498616  
C   -0.8681895    0.0004881   -7.0138229  
N   -1.6437154   -0.0002184   -5.8774035  
C   -1.2464060    0.0010495   -8.3171479  
C   -0.2045430    0.0015865   -9.3305868  
O   -0.4431242    0.0020510  -10.5311607  
C    1.2854923    0.0014598   -8.8619718  
O    2.1713300    0.0016017   -9.7060994  
C    1.5684483    0.0011143   -7.4288675  
H    1.3204180    0.0001883   -4.4320443  
H   -2.2794303    0.0010871   -8.6361646  
H    2.6027354    0.0012340   -7.1126813  
H   -2.6471544    0.0011001   -5.8649186  
C    1.0672566   -0.0000698   -0.8321912  
C    0.0000000    0.0000000    0.0000000  
C   -1.1601226   -0.0000736   -0.8778472  
C   -0.5938732   -0.0000770   -2.2438435  
N    0.7113365   -0.0001555   -2.2234123  
C   -1.4286989   -0.0001880   -3.4135239  
C   -2.7683117   -0.0006800   -3.2270522  
O   -3.6653907   -0.0008306   -4.2276967  
C   -3.3702026   -0.0010611   -1.8610771  
O   -4.5974909   -0.0013781   -1.7662957  
C   -2.4926826   -0.0008944   -0.6770655  
H   -4.5324249   -0.0012263   -3.7833950  
H   -2.9677773   -0.0012975    0.2947963  
H    2.1134390   -0.0000546   -0.5705121  
C    2.5528530    2.1414826    2.8079335  
C    2.0663498    1.7338582    4.0032312  
C    0.9804344    0.8229586    3.6752840  
C    0.9495562    0.7966882    2.1971295  
N    1.8690446    1.5676019    1.6831036  
C    0.0000000    0.0000000    1.4700000  
C   -0.8785127   -0.7372425    2.1869543  
O   -1.8187535   -1.5261249    1.6395491  
C   -0.8723269   -0.7321790    3.6796354  
O   -1.7010379   -1.4274584    4.2670412  
C    0.1115397    0.0933559    4.4024240  
H    2.4028853    2.0163452    4.9860947  
H   -2.2861435   -1.9184361    2.3990168  
H    0.0832434    0.0693689    5.4835595  
H    3.3664920    2.8238276    2.6198634  
