44
1A 10B 15A 29A 30A 39B 11 13 27 42 40 41 3 4 2 2 3 4 2 1 3 0 nosym
C    0.8807942   -0.7246972   -5.2251243  
C    0.6214214   -0.5080880   -6.5403738  
C   -0.4848673    0.4175787   -6.6044202  
C   -0.8513568    0.7247238   -5.2086628  
N    0.0139740    0.0003882   -4.4216236  
C   -1.8534968    1.5639099   -4.8437164  
C   -2.6226013    2.2073955   -5.8958288  
O   -3.5449414    2.9796321   -5.6694653  
C   -2.2520202    1.8964728   -7.3810228  
O   -2.8926937    2.4320967   -8.2753963  
C   -1.1509193    0.9748407   -7.6493942  
H    1.1451752   -0.9468428   -7.3709095  
H   -2.1059477    1.7756656   -3.8139892  
H   -0.9005288    0.7650128   -8.6804130  
H    1.6321139   -1.3531901   -4.7752298  
C    3.2798084    0.0005857   -1.4499648  
C    2.5571144    0.0005567   -2.5996554  
C    1.1637435    0.0001550   -2.2210360  
C    1.1336965   -0.0000199   -0.7459471  
N    2.4483512   -0.0001427   -0.3402718  
C    0.0000000    0.0000000    0.0000000  
C   -1.2757368   -0.0000186   -0.6964414  
O   -2.3524597   -0.0000639   -0.1142313  
C   -1.2676495   -0.0000872   -2.2584081  
O   -2.3355764   -0.0004099   -2.8557294  
C    0.0181561    0.0001761   -2.9516296  
H    2.9547355    0.0006077   -3.5989105  
H    4.3498548    0.0008614   -1.3200022  
H    2.7563628    0.0012824    0.6148063  
C    2.5128556    2.1077716    2.9199648  
C    1.9592212    1.6432552    4.0696553  
C    0.8915788    0.7479214    3.6910360  
C    0.8684491    0.7287414    2.2159470  
N    1.8754542    1.5738793    1.8102719  
C    0.0000000    0.0000000    1.4700000  
C   -0.9772830   -0.8200135    2.1664417  
O   -1.8021297   -1.5120829    1.5842315  
C   -0.9711318   -0.8147624    3.7284083  
O   -1.7894187   -1.5009653    4.3257297  
C    0.0140216    0.0115358    4.4216297  
H    2.2638494    1.8988021    5.0689105  
H    0.0117648    0.0094386    5.5031631  
H    3.3327358    2.7953732    2.7900019  
H    2.1123206    1.7707734    0.8551938  
