46
36B 41B 5A 20B 21B 43 44 13 30 27 7 4 7 1 7 2 1 2 0 nosym
C    3.3041269    0.0001177   -1.5420434  
C    2.5845370   -0.0004780   -0.3695856  
C    1.2040006   -0.0000007   -0.7283591  
C    1.1422372    0.0006038   -2.1454374  
N    2.4348634    0.0026110   -2.6077469  
C   -0.0655187    0.0008799   -2.8497915  
C   -1.2321772    0.0002326   -2.1101397  
O   -2.4392820    0.0001149   -2.7472517  
C   -1.1911209   -0.0000007   -0.6955263  
O   -2.4371523   -0.0002319   -0.1032858  
C    0.0000000    0.0000000    0.0000000  
H    3.0031535   -0.0000661    0.6222578  
H    2.7054623   -0.0071098   -3.5745264  
H   -0.1193555    0.0014846   -3.9297470  
H   -3.1132995   -0.0000646   -2.0551782  
H   -2.3200286   -0.0004070    0.8516413  
C    5.7131790    0.0002337   -0.7960719  
C    4.7577216    0.0005129   -1.7610467  
C    5.4429748    0.0015564   -3.0319767  
C    6.8863233    0.0018354   -2.7261412  
N    6.9827411    0.0013997   -1.3537007  
C    7.8703100    0.0023646   -3.6607399  
C    7.4818865    0.0029066   -5.0613336  
O    8.2934741    0.0034657   -5.9776444  
C    5.9589199    0.0028754   -5.4082901  
O    5.6198168    0.0036355   -6.5839900  
C    4.9917262    0.0019987   -4.3135818  
H    8.9232043    0.0024312   -3.4151319  
H    3.9391682    0.0017775   -4.5622707  
H    5.5966607   -0.0005086    0.2755216  
H    7.8428781   -0.0001033   -0.8367773  
C    0.0000000    0.0000000    1.4700000  
C    1.0541688    0.0001722    2.3260392  
C    0.5103138    0.0000454    3.6635956  
C   -0.9576371   -0.0002459    3.5155732  
N   -1.2018458    0.0001392    2.1615969  
C   -1.8348311   -0.0008317    4.5510609  
C   -1.2972847   -0.0009736    5.9014604  
O   -2.0050672   -0.0014265    6.9001319  
C    0.2542623   -0.0004184    6.0817573  
O    0.7184670   -0.0002256    7.2139121  
C    1.0974552   -0.0000873    4.8889129  
H    2.0940752    0.0005483    2.0517982  
H   -2.9081052   -0.0011668    4.4207061  
H    2.1707277    0.0000911    5.0223670  
H   -2.1128194   -0.0014912    1.7406791  
