48
38B 43B 16A 17A 26B 45 46 32 27 31 7 4 2 3 4 2 0 3 0 nosym
C    3.3003551    0.0005277   -1.4738980  
C    2.5232820    0.0003498   -2.6090740  
C    1.1623207   -0.0001318   -2.1820099  
C    1.1711887    0.0000584   -0.7636138  
N    2.4852302   -0.0014919   -0.3662352  
C    0.0000000    0.0000000    0.0000000  
C   -1.2020382    0.0000521   -0.6806482  
O   -2.3759248    0.0003494    0.0157741  
C   -1.2314651   -0.0005111   -2.0955511  
O   -2.5054381   -0.0008036   -2.6250184  
C   -0.0764509   -0.0007271   -2.8495194  
H    2.8036266    0.0088182    0.5858670  
H   -3.0835635    0.0000348   -0.6418822  
H   -2.4360036   -0.0011526   -3.5845927  
H   -0.1304085   -0.0013419   -3.9319086  
H    4.3715552    0.0004895   -1.3667123  
C    5.9080455   -2.1212789   -4.5066905  
C    5.7372502   -1.6233277   -5.7776512  
C    4.6108303   -0.7493042   -5.7345063  
C    4.1315416   -0.7536527   -4.3995197  
N    4.9405892   -1.5984031   -3.6808710  
C    3.0267445   -0.0008950   -3.9901692  
C    2.3944499    0.7705367   -4.9458228  
O    1.3109376    1.5252432   -4.6002324  
C    2.8575152    0.7878056   -6.2830179  
O    2.1214428    1.6052993   -7.1156313  
C    3.9471980    0.0452332   -6.6876204  
H    6.3485809   -1.8616771   -6.6311484  
H    4.8499644   -1.7941735   -2.7003392  
H    1.0265043    1.9789022   -5.4043194  
H    2.4998696    1.5596274   -7.9989841  
H    4.2786876    0.0784980   -7.7188758  
H    6.6425538   -2.8091595   -4.1242292  
C    0.0000000    0.0000000    1.4700000  
C    1.0541688    0.0001722    2.3260392  
C    0.5103138    0.0000454    3.6635956  
C   -0.9576371   -0.0002459    3.5155732  
N   -1.2018458    0.0001392    2.1615969  
C   -1.8348311   -0.0008317    4.5510609  
C   -1.2972847   -0.0009736    5.9014604  
O   -2.0050672   -0.0014265    6.9001319  
C    0.2542623   -0.0004184    6.0817573  
O    0.7184670   -0.0002256    7.2139121  
C    1.0974552   -0.0000873    4.8889129  
H    2.0940752    0.0005483    2.0517982  
H   -2.9081052   -0.0011668    4.4207061  
H    2.1707277    0.0000911    5.0223670  
H   -2.1128194   -0.0014912    1.7406791  
