46
31A 32A 41B 16A 20A 21B 44 42 43 29 30 28 2 3 4 2 1 7 3 0 3 0 nosym
C    3.3003551    0.0005277   -1.4738980  
C    2.5232820    0.0003498   -2.6090740  
C    1.1623207   -0.0001318   -2.1820099  
C    1.1711887    0.0000584   -0.7636138  
N    2.4852302   -0.0014919   -0.3662352  
C    0.0000000    0.0000000    0.0000000  
C   -1.2020382    0.0000521   -0.6806482  
O   -2.3759248    0.0003494    0.0157741  
C   -1.2314651   -0.0005111   -2.0955511  
O   -2.5054381   -0.0008036   -2.6250184  
C   -0.0764509   -0.0007271   -2.8495194  
H    2.8036266    0.0088182    0.5858670  
H   -3.0835635    0.0000348   -0.6418822  
H   -2.4360036   -0.0011526   -3.5845927  
H   -0.1304085   -0.0013419   -3.9319086  
H    4.3715552    0.0004895   -1.3667123  
C    5.8913008   -2.0917712   -4.5522448  
C    4.9784996   -1.6292454   -3.6595302  
C    4.1021074   -0.7349689   -4.3785862  
C    4.5825808   -0.7142849   -5.7734008  
N    5.6694222   -1.5569941   -5.8122141  
C    4.0183445    0.0134442   -6.7702721  
C    2.8607094    0.8310496   -6.4478779  
O    2.2818978    1.5221467   -7.2759255  
C    2.3349670    0.8245610   -4.9770421  
O    1.3612131    1.5092066   -4.6936263  
C    3.0267445   -0.0008950   -3.9901692  
H    4.9253047   -1.8851657   -2.6163191  
H    4.3863207    0.0143817   -7.7868851  
H    6.7075453   -2.7781454   -4.3956416  
H    6.2158974   -1.7548028   -6.6303123  
C    2.5128556    2.1077716    2.9199648  
C    1.9592212    1.6432552    4.0696553  
C    0.8915788    0.7479214    3.6910360  
C    0.8684491    0.7287414    2.2159470  
N    1.8754542    1.5738793    1.8102719  
C    0.0000000    0.0000000    1.4700000  
C   -0.9772830   -0.8200135    2.1664417  
O   -1.8021297   -1.5120829    1.5842315  
C   -0.9711318   -0.8147624    3.7284083  
O   -1.7894187   -1.5009653    4.3257297  
C    0.0140216    0.0115358    4.4216297  
H    2.2638494    1.8988021    5.0689105  
H    0.0117648    0.0094386    5.5031631  
H    3.3327358    2.7953732    2.7900019  
H    2.1123206    1.7707734    0.8551938  
