44
29A 30A 39B 0A 14A 18B 19A 42 40 41 12 27 28 26 2 3 4 2 2 1 7 3 1 3 0 nosym
C    3.2573671   -0.0002919   -1.5109380  
C    2.5379468   -0.0001709   -0.3591959  
C    1.1435044    0.0000332   -0.7338500  
C    1.1092611   -0.0000081   -2.2088474  
N    2.4227564    0.0001910   -2.6182609  
C   -0.0265530   -0.0002522   -2.9515663  
C   -1.3003034   -0.0002639   -2.2514982  
O   -2.3786783   -0.0004131   -2.8306430  
C   -1.2877725    0.0000312   -0.6895609  
O   -2.3539957    0.0003306   -0.0892038  
C    0.0000000    0.0000000    0.0000000  
H    2.9384088   -0.0000368    0.6389240  
H    4.3270397   -0.0004764   -1.6439442  
H    2.7280495   -0.0013405   -3.5742112  
C    2.4624173   -2.0918867   -5.9392947  
C    1.9141447   -1.6298149   -4.7860555  
C    0.8439988   -0.7345872   -5.1577953  
C    0.8135193   -0.7128504   -6.6327152  
N    1.8196259   -1.5559203   -7.0448716  
C   -0.0596537    0.0159609   -7.3730582  
C   -1.0343380    0.8337032   -6.6703331  
O   -1.8629425    1.5257391   -7.2472226  
C   -1.0200966    0.8261112   -5.1084288  
O   -1.8357402    1.5108611   -4.5058474  
C   -0.0307349   -0.0004645   -4.4215603  
H    2.2241310   -1.8866339   -3.7887762  
H   -0.0651882    0.0176593   -8.4542047  
H    3.2821087   -2.7786952   -6.0745345  
H    2.0500117   -1.7532075   -8.0014522  
C    2.5128556    2.1077716    2.9199648  
C    1.9592212    1.6432552    4.0696553  
C    0.8915788    0.7479214    3.6910360  
C    0.8684491    0.7287414    2.2159470  
N    1.8754542    1.5738793    1.8102719  
C    0.0000000    0.0000000    1.4700000  
C   -0.9772830   -0.8200135    2.1664417  
O   -1.8021297   -1.5120829    1.5842315  
C   -0.9711318   -0.8147624    3.7284083  
O   -1.7894187   -1.5009653    4.3257297  
C    0.0140216    0.0115358    4.4216297  
H    2.2638494    1.8988021    5.0689105  
H    0.0117648    0.0094386    5.5031631  
H    3.3327358    2.7953732    2.7900019  
H    2.1123206    1.7707734    0.8551938  
