48
37A 38B 16A 20A 21B 47 44 32 28 29 1 7 2 1 7 2 0 3 0 nosym
C    1.1188644    0.0008217   -0.8003807  
C    0.0000000    0.0000000    0.0000000  
C   -1.1323862    0.0008904   -0.8673526  
C   -0.6382660    0.0019682   -2.1969280  
N    0.7324018    0.0038477   -2.1202240  
C   -1.4770912    0.0027325   -3.3154810  
C   -2.8395475    0.0020958   -3.0876858  
O   -3.7039195    0.0024443   -4.1440347  
C   -3.3517868    0.0013946   -1.7684332  
O   -4.7300492    0.0012389   -1.7073123  
C   -2.5248543    0.0009136   -0.6644818  
H   -1.1067568    0.0036993   -4.3313811  
H   -4.5940030    0.0021851   -3.7685130  
H   -4.9934599    0.0007287   -0.7819913  
H   -2.9462578    0.0005617    0.3339655  
H    2.1619894    0.0009344   -0.5342067  
C    4.5872052   -2.1313027   -2.8760573  
C    3.4257616   -1.6618688   -2.3075958  
C    2.8225603   -0.7845975   -3.2568816  
C    3.6683566   -0.7581087   -4.3952372  
N    4.7314843   -1.5851520   -4.1299518  
C    3.3837512    0.0055772   -5.5312708  
C    2.2240413    0.7559604   -5.5180178  
O    1.8977517    1.5195620   -6.6012818  
C    1.3675643    0.7429384   -4.3914766  
O    0.2523239    1.5428637   -4.5318410  
C    1.6478436   -0.0100108   -3.2702998  
H    3.0590278   -1.9191273   -1.3286591  
H    5.4907264   -1.7742989   -4.7590434  
H    4.0243517    0.0301901   -6.4020331  
H    1.0629726    1.9557292   -6.3864164  
H   -0.2722933    1.4770481   -3.7280694  
H    5.3248310   -2.8113827   -2.4857258  
C    0.8400945    0.7047457    2.2710304  
C    0.0000000    0.0000000    1.4700000  
C   -0.8844236   -0.7423113    2.3369512  
C   -0.4878984   -0.4098547    3.7186280  
N    0.5629682    0.4714286    3.6095011  
C   -1.0836927   -0.9095027    4.8308716  
C   -2.1891196   -1.8367527    4.6554461  
O   -2.7906899   -2.3413415    5.5944904  
C   -2.6257283   -2.2031529    3.2011665  
O   -3.5549479   -2.9829990    3.0410059  
C   -1.9068976   -1.5999348    2.0816745  
H   -0.7774656   -0.6525820    5.8354244  
H   -2.2155208   -1.8586617    1.0779135  
H    1.6384792    1.3747609    1.9961646  
H    1.0518368    0.8833920    4.3830260  
