48
33A 37A 38B 5A 16A 20B 21B 46 47 45 13 32 28 29 2 1 7 7 2 1 7 3 1 3 0 nosym
C    0.0000000    0.0000000    0.0000000  
C    1.0521668   -0.0011901   -0.8862342  
C    0.4917217   -0.0011956   -2.1979133  
C   -0.9187428    0.0003148   -2.0478683  
N   -1.1833173   -0.0009411   -0.7007912  
C   -1.7951703    0.0010350   -3.1372089  
C   -1.2375839    0.0005225   -4.4010424  
O   -2.0474218    0.0015361   -5.4997581  
C    0.1673577   -0.0013566   -4.5711965  
O    0.5673522   -0.0020687   -5.8915550  
C    1.0325768   -0.0023412   -3.4969891  
H    2.0953058   -0.0030649   -0.6200564  
H   -2.0989775    0.0102371   -0.2891826  
H   -2.8710934    0.0020420   -3.0295514  
H   -1.4634887    0.0006497   -6.2693593  
H    1.5290707   -0.0033152   -5.9180043  
C    4.3850065   -2.1302628   -1.4420384  
C    3.1441269   -1.6664980   -1.8129925  
C    3.3426798   -0.7794194   -2.9122051  
C    4.7370096   -0.7413798   -3.1697395  
N    5.3406652   -1.5712836   -2.2578860  
C    5.2968236    0.0339843   -4.1896447  
C    4.4333107    0.7843869   -4.9638665  
O    4.9266681    1.5591317   -5.9735108  
C    3.0391105    0.7599365   -4.7221540  
O    2.3124198    1.5614494   -5.5782154  
C    2.4861699   -0.0045381   -3.7159923  
H    2.2107768   -1.9337380   -1.3477689  
H    6.3263418   -1.7540856   -2.2030554  
H    6.3586900    0.0674336   -4.3909475  
H    4.1660104    1.9932088   -6.3812373  
H    1.3813912    1.4874683   -5.3473123  
H    4.6641251   -2.8144409   -0.6591257  
C    3.2573670    0.0002920    2.9809380  
C    2.5379467    0.0001709    1.8291961  
C    1.1435042   -0.0000331    2.2038498  
C    1.1092607    0.0000083    3.6788474  
N    2.4227561   -0.0001909    4.0882609  
C   -0.0265533    0.0002524    4.4215661  
C   -1.3003036    0.0002640    3.7214979  
O   -2.3786784    0.0004133    4.3006425  
C   -1.2877726   -0.0000311    2.1595606  
O   -2.3539958   -0.0003306    1.5592035  
C    0.0000000    0.0000000    1.4700000  
H    2.9384090    0.0000368    0.8310761  
H   -0.0296291    0.0004086    5.5027230  
H    4.3270393    0.0004765    3.1139444  
H    2.7280493    0.0013407    5.0442112  
