44
1A 10B 34B 39B 11 13 41 42 3 4 7 4 2 0 2 0 nosym
C    0.0072362   -0.7172704   -5.1312249  
C    0.1641330   -0.4988121   -6.4622901  
C   -0.8688544    0.4276949   -6.8614857  
C   -1.6459761    0.7333179   -5.6451526  
N   -1.0641730    0.0073887   -4.6315340  
C   -2.7115368    1.5727277   -5.6042186  
C   -3.1204202    2.2180777   -6.8406948  
O   -4.0675147    2.9906596   -6.9072573  
C   -2.3119544    1.9087880   -8.1408976  
O   -2.6470495    2.4459876   -9.1879829  
C   -1.1818734    0.9867415   -8.0596606  
H    0.9174089   -0.9368710   -7.0926029  
H   -3.2678032    1.7833484   -4.7013804  
H   -0.6271708    0.7780517   -8.9643581  
H    0.5840377   -1.3468503   -4.4733351  
C    1.1319249    0.0015673   -0.8009268  
C    0.7969919    0.0034954   -2.1169403  
C   -0.6453335    0.0035697   -2.1842672  
C   -1.1266831    0.0015413   -0.7896029  
N    0.0000000    0.0000000    0.0000000  
C   -2.4346128    0.0013921   -0.4276299  
C   -3.4350109    0.0031346   -1.4820187  
O   -4.6384610    0.0030891   -1.2583924  
C   -2.9478954    0.0050451   -2.9661078  
O   -3.7809375    0.0062147   -3.8623779  
C   -1.5113818    0.0053061   -3.2312126  
H    1.4821242    0.0045430   -2.9459191  
H   -2.7664565    0.0000184    0.6013444  
H    2.1104318    0.0009428   -0.3488057  
C    0.0000000    0.0000000    1.4700000  
C    1.0541688    0.0001722    2.3260392  
C    0.5103138    0.0000454    3.6635956  
C   -0.9576371   -0.0002459    3.5155732  
N   -1.2018458    0.0001392    2.1615969  
C   -1.8348311   -0.0008317    4.5510609  
C   -1.2972847   -0.0009736    5.9014604  
O   -2.0050672   -0.0014265    6.9001319  
C    0.2542623   -0.0004184    6.0817573  
O    0.7184670   -0.0002256    7.2139121  
C    1.0974552   -0.0000873    4.8889129  
H    2.0940752    0.0005483    2.0517982  
H   -2.9081052   -0.0011668    4.4207061  
H    2.1707277    0.0000911    5.0223670  
H   -2.1128194   -0.0014912    1.7406791  
