44
5B 10B 29A 30A 39B 12 13 43 40 42 7 4 2 3 4 2 0 3 0 nosym
C    1.6707636   -0.0012341   -3.2725974  
C    3.0286798   -0.0023986   -3.2608758  
C    3.4615711   -0.0041419   -4.6383508  
C    2.2357542   -0.0038666   -5.4594254  
N    1.1849513   -0.0024746   -4.5713369  
C    2.2192678   -0.0047951   -6.8164194  
C    3.4939011   -0.0063827   -7.5148774  
O    3.5845448   -0.0073701   -8.7355664  
C    4.8047149   -0.0069529   -6.6654236  
O    5.8837805   -0.0085938   -7.2423782  
C    4.6947480   -0.0055640   -5.2087986  
H    3.6555467   -0.0022559   -2.3870045  
H    1.3089289   -0.0044420   -7.3996800  
H    5.6070598   -0.0057645   -4.6279280  
H    0.2146114   -0.0004135   -4.8272342  
C    1.0965514    0.0001359   -0.8010306  
C    0.0000000    0.0000000    0.0000000  
C   -1.1546565    0.0001470   -0.8669508  
C   -0.6372019    0.0003521   -2.2486278  
N    0.7342867    0.0007339   -2.1395012  
C   -1.4147744    0.0001355   -3.3608713  
C   -2.8576053   -0.0001045   -3.1854455  
O   -3.6427786   -0.0002490   -4.1244897  
C   -3.4275841   -0.0000724   -1.7311660  
O   -4.6406832    0.0000334   -1.5710050  
C   -2.4891868   -0.0001090   -0.6116739  
H   -1.0150456    0.0001619   -4.3654240  
H   -2.8919122   -0.0002919    0.3920871  
H    2.1388269    0.0000663   -0.5261650  
C    2.5528530    2.1414826    2.8079335  
C    2.0663498    1.7338582    4.0032312  
C    0.9804344    0.8229586    3.6752840  
C    0.9495562    0.7966882    2.1971295  
N    1.8690446    1.5676019    1.6831036  
C    0.0000000    0.0000000    1.4700000  
C   -0.8785127   -0.7372425    2.1869543  
O   -1.8187535   -1.5261249    1.6395491  
C   -0.8723269   -0.7321790    3.6796354  
O   -1.7010379   -1.4274584    4.2670412  
C    0.1115397    0.0933559    4.4024240  
H    2.4028853    2.0163452    4.9860947  
H   -2.2861435   -1.9184361    2.3990168  
H    0.0832434    0.0693689    5.4835595  
H    3.3664920    2.8238276    2.6198634  
