44
0A 1A 10B 15A 34B 39B 13 11 12 28 41 43 2 3 4 2 7 4 3 1 2 0 nosym
C    2.1650266   -2.1089226   -5.9297630  
C    1.5723605   -1.6445164   -7.0598731  
C    0.5184571   -0.7489602   -6.6450207  
C    0.5459257   -0.7295297   -5.1700093  
N    1.5661287   -1.5747496   -4.7989582  
C   -0.2963293   -0.0005341   -4.3948471  
C   -1.2968019    0.8195082   -5.0575088  
O   -2.1011001    1.5117977   -4.4474759  
C   -1.3442162    0.8139946   -6.6187671  
O   -2.1824060    1.5002191   -7.1877960  
C   -0.3835313   -0.0125664   -7.3452196  
H    1.8425077   -1.9002758   -8.0689424  
H   -0.4228731   -0.0106500   -8.4260400  
H    2.9887827   -2.7966242   -5.8278727  
H    1.8355780   -1.7715190   -3.8525301  
C    3.1301146   -0.0010313   -1.7028256  
C    2.5367765   -0.0002766   -0.4864669  
C    1.1089901    0.0001027   -0.7656184  
C    1.0177865   -0.0004150   -2.2415133  
N    2.1993571   -0.0011612   -2.7963824  
C   -0.2459219   -0.0002879   -2.9257116  
C   -1.3675326   -0.0000606   -2.1698520  
O   -2.6129318    0.0000865   -2.6748483  
C   -1.3083588    0.0000910   -0.6783229  
O   -2.3693264    0.0004206   -0.0541685  
C    0.0000000    0.0000000    0.0000000  
H    3.0096016   -0.0001007    0.4807518  
H   -3.1967444    0.0002093   -1.8949026  
H    4.1849275   -0.0015114   -1.9271979  
C    0.0000000    0.0000000    1.4700000  
C    1.0662921    0.0000102    2.3034270  
C    0.4961870   -0.0000064    3.6418889  
C   -0.9663858    0.0000850    3.4240247  
N   -1.2632773    0.0000084    2.1528658  
C   -1.8985362    0.0000517    4.5177257  
C   -1.3925775   -0.0004564    5.7720543  
O   -2.1456383   -0.0005410    6.8851312  
C    0.0786232   -0.0009323    6.0245000  
O    0.4683759   -0.0012588    7.1921102  
C    1.0143166   -0.0008442    4.8859032  
H    2.1107198   -0.0000632    2.0421868  
H   -2.9622183    0.0003270    4.3293377  
H   -1.5042274   -0.0009692    7.6184419  
H    2.0724152   -0.0013148    5.1109744  
