48
38B 43B 16A 17A 26B 45 46 32 27 31 7 4 2 3 4 2 0 3 0 nosym
C    3.3041272    0.0001176   -1.5420431  
C    2.5845372   -0.0004781   -0.3695853  
C    1.2040006   -0.0000009   -0.7283588  
C    1.1422374    0.0006035   -2.1454372  
N    2.4348639    0.0026108   -2.6077465  
C   -0.0655182    0.0008795   -2.8497919  
C   -1.2321769    0.0002322   -2.1101399  
O   -2.4392814    0.0001143   -2.7472520  
C   -1.1911210   -0.0000008   -0.6955264  
O   -2.4371527   -0.0002321   -0.1032861  
C    0.0000000    0.0000000    0.0000000  
H    3.0031535   -0.0000660    0.6222584  
H   -0.1193549    0.0014841   -3.9297469  
H   -3.1132989   -0.0000650   -2.0551785  
H   -2.3200281   -0.0004071    0.8516412  
H    4.3686623    0.0004070   -1.7024293  
C    5.6718697   -2.1292828   -4.7374663  
C    5.4024578   -1.6450691   -5.9966014  
C    4.2795479   -0.7737664   -5.8761626  
C    3.9039367   -0.7655396   -4.5084001  
N    4.7686523   -1.6005166   -3.8453034  
C    2.8310664   -0.0116222   -4.0232753  
C    2.1246912    0.7480617   -4.9354659  
O    1.0681525    1.5033225   -4.5155607  
C    2.4839118    0.7526866   -6.3043181  
O    1.6833245    1.5594236   -7.0863536  
C    3.5420398    0.0089615   -6.7836555  
H    5.9474652   -1.8905999   -6.8919643  
H    4.7540930   -1.7863154   -2.8587700  
H    0.7213545    1.9477939   -5.3000613  
H    1.9931409    1.5056032   -7.9955956  
H    3.7934479    0.0324030   -7.8375639  
H    6.4359575   -2.8111065   -4.4054346  
C    0.0000000    0.0000000    1.4700000  
C    1.0541688    0.0001722    2.3260392  
C    0.5103138    0.0000454    3.6635956  
C   -0.9576371   -0.0002459    3.5155732  
N   -1.2018458    0.0001392    2.1615969  
C   -1.8348311   -0.0008317    4.5510609  
C   -1.2972847   -0.0009736    5.9014604  
O   -2.0050672   -0.0014265    6.9001319  
C    0.2542623   -0.0004184    6.0817573  
O    0.7184670   -0.0002256    7.2139121  
C    1.0974552   -0.0000873    4.8889129  
H    2.0940752    0.0005483    2.0517982  
H   -2.9081052   -0.0011668    4.4207061  
H    2.1707277    0.0000911    5.0223670  
H   -2.1128194   -0.0014912    1.7406791  
