44
5B 10B 34B 39B 12 13 41 43 7 4 7 4 2 0 2 0 nosym
C    2.8699642   -0.0020523   -4.0185824  
C    4.1345928   -0.0034097   -4.5133419  
C    4.0234318   -0.0053868   -5.9529511  
C    2.5800290   -0.0050385   -6.2585304  
N    1.9354847   -0.0033853   -5.0430266  
C    2.0594328   -0.0061339   -7.5117993  
C    2.9823228   -0.0079910   -8.6346558  
O    2.6119075   -0.0091437   -9.8013136  
C    4.5151775   -0.0086429   -8.3343882  
O    5.3018071   -0.0105101   -9.2716568  
C    4.9555130   -0.0070565   -6.9415666  
H    5.0417779   -0.0032476   -3.9357363  
H    0.9973741   -0.0057233   -7.7141388  
H    6.0185130   -0.0073151   -6.7421805  
H    0.9396381   -0.0012173   -4.9192021  
C    3.2573670   -0.0002919   -1.5109381  
C    2.5379468   -0.0001709   -0.3591962  
C    1.1435042    0.0000332   -0.7338498  
C    1.1092608   -0.0000081   -2.2088474  
N    2.4227562    0.0001911   -2.6182609  
C   -0.0265531   -0.0002522   -2.9515663  
C   -1.3003034   -0.0002638   -2.2514980  
O   -2.3786783   -0.0004131   -2.8306426  
C   -1.2877724    0.0000312   -0.6895608  
O   -2.3539957    0.0003306   -0.0892036  
C    0.0000000    0.0000000    0.0000000  
H    2.9384090   -0.0000367    0.6389241  
H   -0.0296290   -0.0004083   -4.0327231  
H    4.3270393   -0.0004763   -1.6439444  
C    0.0000000    0.0000000    1.4700000  
C    1.0662921    0.0000102    2.3034270  
C    0.4961870   -0.0000064    3.6418889  
C   -0.9663858    0.0000850    3.4240247  
N   -1.2632773    0.0000084    2.1528658  
C   -1.8985362    0.0000517    4.5177257  
C   -1.3925775   -0.0004564    5.7720543  
O   -2.1456383   -0.0005410    6.8851312  
C    0.0786232   -0.0009323    6.0245000  
O    0.4683759   -0.0012588    7.1921102  
C    1.0143166   -0.0008442    4.8859032  
H    2.1107198   -0.0000632    2.0421868  
H   -2.9622183    0.0003270    4.3293377  
H   -1.5042274   -0.0009692    7.6184419  
H    2.0724152   -0.0013148    5.1109744  
