46
36B 41B 20A 21B 43 44 30 27 7 4 1 7 2 0 2 0 nosym
C    3.3003551    0.0005277   -1.4738980  
C    2.5232820    0.0003498   -2.6090740  
C    1.1623207   -0.0001318   -2.1820099  
C    1.1711887    0.0000584   -0.7636138  
N    2.4852302   -0.0014919   -0.3662352  
C    0.0000000    0.0000000    0.0000000  
C   -1.2020382    0.0000521   -0.6806482  
O   -2.3759248    0.0003494    0.0157741  
C   -1.2314651   -0.0005111   -2.0955511  
O   -2.5054381   -0.0008036   -2.6250184  
C   -0.0764509   -0.0007271   -2.8495194  
H    2.8036266    0.0088182    0.5858670  
H   -3.0835635    0.0000348   -0.6418822  
H   -2.4360036   -0.0011526   -3.5845927  
H   -0.1304085   -0.0013419   -3.9319086  
H    4.3715552    0.0004895   -1.3667123  
C    4.0912591   -0.7049384   -4.4540732  
C    3.0267445   -0.0008950   -3.9901692  
C    2.4918045    0.7392288   -5.1086020  
C    3.3379767    0.4062539   -6.2704584  
N    4.2890158   -0.4732102   -5.8068235  
C    3.1585242    0.9039809   -7.5201661  
C    2.0587102    1.8295629   -7.7352068  
O    1.8145052    2.3323678   -8.8241749  
C    1.1499701    2.1964770   -6.5189126  
O    0.2211192    2.9749317   -6.6877457  
C    1.4426652    1.5953882   -5.2201159  
H    3.7906033    0.6467128   -8.3587356  
H    0.8086037    1.8544578   -4.3831132  
H    4.7480574   -1.3734088   -3.9214824  
H    5.0137596   -0.8850252   -6.3655743  
C    0.0000000    0.0000000    1.4700000  
C    1.0541688    0.0001722    2.3260392  
C    0.5103138    0.0000454    3.6635956  
C   -0.9576371   -0.0002459    3.5155732  
N   -1.2018458    0.0001392    2.1615969  
C   -1.8348311   -0.0008317    4.5510609  
C   -1.2972847   -0.0009736    5.9014604  
O   -2.0050672   -0.0014265    6.9001319  
C    0.2542623   -0.0004184    6.0817573  
O    0.7184670   -0.0002256    7.2139121  
C    1.0974552   -0.0000873    4.8889129  
H    2.0940752    0.0005483    2.0517982  
H   -2.9081052   -0.0011668    4.4207061  
H    2.1707277    0.0000911    5.0223670  
H   -2.1128194   -0.0014912    1.7406791  
