44
4A 5B 29A 33A 34B 14 11 42 43 41 1 7 2 1 7 2 0 3 0 nosym
C    2.8285900   -0.7061763   -3.3536581  
C    1.6707639   -0.0012345   -3.2725973  
C    1.5413728    0.7389933   -4.5055432  
C    2.7272136    0.4051008   -5.3173857  
N    3.4676735   -0.4749401   -4.5623114  
C    2.9765560    0.9026379   -6.5551211  
C    2.0127661    1.8289694   -7.1256947  
O    2.1473183    2.3316733   -8.2336140  
C    0.7497780    2.1968609   -6.2834825  
O   -0.0684716    2.9759519   -6.7533179  
C    0.5906505    1.5958918   -4.9616028  
H    3.8525472    0.6446917   -7.1339240  
H   -0.2866830    1.8556406   -4.3849396  
H    3.2688578   -1.3749902   -2.6320340  
H    4.3372615   -0.8874290   -4.8464188  
C    1.0965515    0.0001358   -0.8010305  
C    0.0000000    0.0000000    0.0000000  
C   -1.1546564    0.0001470   -0.8669509  
C   -0.6372017    0.0003518   -2.2486278  
N    0.7342868    0.0007337   -2.1395011  
C   -1.4147742    0.0001351   -3.3608713  
C   -2.8576052   -0.0001048   -3.1854458  
O   -3.6427782   -0.0002494   -4.1244899  
C   -3.4275841   -0.0000725   -1.7311663  
O   -4.6406831    0.0000333   -1.5710053  
C   -2.4891868   -0.0001090   -0.6116741  
H   -1.0150454    0.0001614   -4.3654241  
H   -2.8919123   -0.0002920    0.3920869  
H    2.1388270    0.0000662   -0.5261648  
C    2.4951002    2.0940188    2.9809380  
C    1.9440701    1.6314916    1.8291961  
C    0.8759964    0.7350050    2.2038498  
C    0.8497377    0.7130254    3.6788474  
N    1.8560616    1.5571714    4.0882609  
C   -0.0205033   -0.0168748    4.4215661  
C   -0.9962600   -0.8356168    3.7214979  
O   -1.8224391   -1.5286685    4.3006425  
C   -0.9864710   -0.8277881    2.1595606  
O   -1.8030528   -1.5133726    1.5592035  
C    0.0000000    0.0000000    1.4700000  
H    2.2509283    1.8888011    0.8310761  
H   -0.0229599   -0.0187323    5.5027230  
H    3.3143982    2.7817323    3.1139444  
H    2.0889452    1.7545833    5.0442112  
