44
30A 39B 14A 15A 24B 40 42 27 25 26 3 4 2 3 4 2 0 3 0 nosym
C    1.0965514    0.0001359   -0.8010305  
C    0.0000000    0.0000000    0.0000000  
C   -1.1546565    0.0001470   -0.8669508  
C   -0.6372019    0.0003521   -2.2486278  
N    0.7342868    0.0007339   -2.1395011  
C   -1.4147745    0.0001355   -3.3608712  
C   -2.8576054   -0.0001045   -3.1854454  
O   -3.6427786   -0.0002490   -4.1244897  
C   -3.4275844   -0.0000724   -1.7311659  
O   -4.6406828    0.0000334   -1.5710047  
C   -2.4891866   -0.0001090   -0.6116741  
H   -1.0150455    0.0001619   -4.3654242  
H   -2.8919121   -0.0002919    0.3920869  
H    2.1388271    0.0000663   -0.5261648  
C    4.5298619   -2.1105786   -2.7870405  
C    4.8358775   -1.6476825   -4.0264584  
C    3.7723829   -0.7519984   -4.4157721  
C    2.8148495   -0.7308469   -3.2935098  
N    3.3319989   -1.5752939   -2.3383370  
C    1.6707637   -0.0012341   -3.2725974  
C    1.3617412    0.8177037   -4.4329340  
O    0.3555476    1.5104316   -4.5104134  
C    2.3615441    0.8103623   -5.6329950  
O    2.1118338    1.4956455   -6.6154880  
C    3.5619260   -0.0167196   -5.5388088  
H    5.7070847   -1.9045225   -4.6023443  
H    4.2491888   -0.0160707   -6.3739097  
H    5.0785343   -2.7978860   -2.1637773  
H    2.9059921   -1.7708747   -1.4510303  
C    0.8681109    0.7263879    2.2709268  
C    0.6127770    0.5096195    3.5869401  
C   -0.4920590   -0.4175482    3.6542670  
C   -0.8620974   -0.7254003    2.2596025  
N    0.0000000    0.0000000    1.4700000  
C   -1.8641242   -1.5660088    1.8976294  
C   -2.6293522   -2.2103885    2.9520183  
O   -3.5512764   -2.9839180    2.7283916  
C   -2.2549728   -1.8987399    4.4361073  
O   -2.8923672   -2.4351063    5.3323774  
C   -1.1543735   -0.9755647    4.7012123  
H    1.1382914    0.9492124    4.4159191  
H   -2.1192137   -1.7782617    0.8686553  
H   -0.9013378   -0.7652422    5.7314848  
H    1.6172880    1.3558399    1.8188057  
