44
33A 34B 14A 18A 19B 43 40 27 28 26 1 7 2 1 7 2 0 3 0 nosym
C    1.0965514    0.0001359   -0.8010305  
C    0.0000000    0.0000000    0.0000000  
C   -1.1546565    0.0001470   -0.8669508  
C   -0.6372019    0.0003521   -2.2486278  
N    0.7342868    0.0007339   -2.1395011  
C   -1.4147745    0.0001355   -3.3608712  
C   -2.8576054   -0.0001045   -3.1854454  
O   -3.6427786   -0.0002490   -4.1244897  
C   -3.4275844   -0.0000724   -1.7311659  
O   -4.6406828    0.0000334   -1.5710047  
C   -2.4891866   -0.0001090   -0.6116741  
H   -1.0150455    0.0001619   -4.3654242  
H   -2.8919121   -0.0002919    0.3920869  
H    2.1388271    0.0000663   -0.5261648  
C    4.5566849   -2.0943512   -2.8440025  
C    3.3981920   -1.6309278   -2.3080844  
C    2.8135370   -0.7361948   -3.2788916  
C    3.7329559   -0.7162208   -4.4326073  
N    4.7695081   -1.5597353   -4.1056016  
C    3.5352808    0.0116651   -5.5607968  
C    2.3371275    0.8302005   -5.6442441  
O    2.0692113    1.5215084   -6.6182128  
C    1.3496271    0.8244745   -4.4340311  
O    0.3376965    1.5099055   -4.4926967  
C    1.6707637   -0.0012341   -3.2725974  
H    2.9988743   -1.8865412   -1.3427759  
H    4.2221481    0.0120721   -6.3957360  
H    5.2729791   -2.7812824   -2.4233628  
H    5.5580249   -1.7581541   -4.6937498  
C    0.8400945    0.7047457    2.2710304  
C    0.0000000    0.0000000    1.4700000  
C   -0.8844236   -0.7423113    2.3369512  
C   -0.4878984   -0.4098547    3.7186280  
N    0.5629682    0.4714286    3.6095011  
C   -1.0836927   -0.9095027    4.8308716  
C   -2.1891196   -1.8367527    4.6554461  
O   -2.7906899   -2.3413415    5.5944904  
C   -2.6257283   -2.2031529    3.2011665  
O   -3.5549479   -2.9829990    3.0410059  
C   -1.9068976   -1.5999348    2.0816745  
H   -0.7774656   -0.6525820    5.8354244  
H   -2.2155208   -1.8586617    1.0779135  
H    1.6384792    1.3747609    1.9961646  
H    1.0518368    0.8833920    4.3830260  
