44
4A 5B 34B 14 11 40 1 7 7 2 0 1 0 nosym
C    4.3921562   -0.7036342   -4.2631882  
C    3.2973504   -0.0000931   -3.8752375  
C    2.8427566    0.7408282   -5.0281536  
C    3.7690871    0.4088690   -6.1274736  
N    4.6850990   -0.4708283   -5.5983756  
C    3.6784248    0.9075429   -7.3863658  
C    2.5964112    1.8331450   -7.6779859  
O    2.4297833    2.3367635   -8.7811197  
C    1.6038111    2.1989929   -6.5287660  
O    0.6890896    2.9774548   -6.7623085  
C    1.8039775    1.5969342   -5.2129737  
H    4.3683079    0.6510105   -8.1783015  
H    1.1122278    1.8552691   -4.4227397  
H    5.0097456   -1.3724304   -3.6859673  
H    5.4476425   -0.8821126   -6.1047552  
C    3.3321173    0.0004715   -1.3379333  
C    2.6974184    0.0000117   -2.5332310  
C    1.2800439   -0.0002118   -2.2052839  
C    1.2395035    0.0000643   -0.7271293  
N    2.4394063    0.0005460   -0.2131035  
C    0.0000000    0.0000000    0.0000000  
C   -1.1468702    0.0000634   -0.7169541  
O   -2.3742202    0.0000072   -0.1695491  
C   -1.1388767    0.0001606   -2.2096353  
O   -2.2206230    0.0000901   -2.7970412  
C    0.1454525    0.0001815   -2.9324239  
H   -2.9844345    0.0001024   -0.9290167  
H    0.1083577    0.0003682   -4.0135594  
H    4.3940039    0.0007620   -1.1498632  
C    0.8175213    0.6860729    2.3021913  
C    0.0000000    0.0000000    1.4700000  
C   -0.8887526   -0.7456559    2.3478473  
C   -0.4549825   -0.3816753    3.7138435  
N    0.5448156    0.4573574    3.6934124  
C   -1.0945674   -0.9182058    4.8835240  
C   -2.1210866   -1.7789155    4.6970523  
O   -2.8083856   -2.3554314    5.6976972  
C   -2.5824069   -2.1655116    3.3310774  
O   -3.5227682   -2.9541547    3.2362962  
C   -1.9100805   -1.6015804    2.1470656  
H   -0.7567140   -0.6349833    5.8697035  
H   -3.4728268   -2.9124471    5.2533954  
H   -2.2742832   -1.9066565    1.1752040  
H    1.6189533    1.3585343    2.0405121  
