44
0A 4A 5B 20B 34B 39B 13 14 12 27 41 43 2 1 7 7 7 4 3 1 2 0 nosym
C    6.7235414    0.0018294    0.8630491  
C    5.4473224    0.0014737    0.3990018  
C    5.5236523   -0.0004064   -1.0428741  
C    6.9592465   -0.0011513   -1.3832527  
N    7.6329844    0.0006717   -0.1836845  
C    7.4493969   -0.0032878   -2.6487382  
C    6.4996347   -0.0047394   -3.7489586  
O    6.8417408   -0.0066293   -4.9242288  
C    4.9744849   -0.0037319   -3.4117289  
O    4.1654295   -0.0046314   -4.3297095  
C    4.5679461   -0.0016854   -2.0086701  
H    4.5543644    0.0026028    0.9983662  
H    8.5062546   -0.0039294   -2.8766897  
H    7.0761909    0.0030566    1.8816397  
H    8.6315336   -0.0008655   -0.0839632  
C    3.1301149   -0.0010311   -1.7028252  
C    2.5367768   -0.0002767   -0.4864665  
C    1.1089904    0.0001028   -0.7656183  
C    1.0177872   -0.0004148   -2.2415132  
N    2.1993578   -0.0011611   -2.7963820  
C   -0.2459209   -0.0002877   -2.9257118  
C   -1.3675319   -0.0000605   -2.1698524  
O   -2.6129313    0.0000867   -2.6748490  
C   -1.3083584    0.0000910   -0.6783232  
O   -2.3693261    0.0004206   -0.0541692  
C    0.0000000    0.0000000    0.0000000  
H    3.0096017   -0.0001007    0.4807525  
H   -0.2829630   -0.0004687   -4.0053125  
H   -3.1967441    0.0002094   -1.8949034  
C    0.0000000    0.0000000    1.4700000  
C    1.0662921    0.0000102    2.3034270  
C    0.4961870   -0.0000064    3.6418889  
C   -0.9663858    0.0000850    3.4240247  
N   -1.2632773    0.0000084    2.1528658  
C   -1.8985362    0.0000517    4.5177257  
C   -1.3925775   -0.0004564    5.7720543  
O   -2.1456383   -0.0005410    6.8851312  
C    0.0786232   -0.0009323    6.0245000  
O    0.4683759   -0.0012588    7.1921102  
C    1.0143166   -0.0008442    4.8859032  
H    2.1107198   -0.0000632    2.0421868  
H   -2.9622183    0.0003270    4.3293377  
H   -1.5042274   -0.0009692    7.6184419  
H    2.0724152   -0.0013148    5.1109744  
