44
5B 10B 20B 29A 30A 39B 12 13 27 42 40 41 7 4 7 2 3 4 2 1 3 0 nosym
C    2.5562217   -0.0001550   -3.6003003  
C    3.5357960    0.0004087   -2.6598170  
C    4.7960230   -0.0001376   -3.3645605  
C    4.4679968   -0.0010432   -4.8030281  
N    3.0942342   -0.0014082   -4.8782989  
C    5.3873317   -0.0013580   -5.8012904  
C    6.7937412   -0.0009916   -5.4344817  
O    7.6974450   -0.0012923   -6.2600844  
C    7.1641096   -0.0002857   -3.9170393  
O    8.3448916   -0.0002790   -3.5960817  
C    6.0844251    0.0002815   -2.9331018  
H    3.3919680    0.0009430   -1.5940185  
H    5.1255386   -0.0018944   -6.8502775  
H    6.3492937    0.0009740   -1.8844990  
H    2.5641256   -0.0004663   -5.7303735  
C    0.0000000    0.0000000    0.0000000  
C    1.0541688   -0.0001721   -0.8560392  
C    0.5103141   -0.0000453   -2.1935956  
C   -0.9576367    0.0002460   -2.0455735  
N   -1.2018459   -0.0001391   -0.6915971  
C   -1.8348307    0.0008318   -3.0810613  
C   -1.2972842    0.0009738   -4.4314606  
O   -2.0050665    0.0014267   -5.4301324  
C    0.2542628    0.0004186   -4.6117571  
O    0.7184677    0.0002259   -5.7439121  
C    1.0974556    0.0000875   -3.4189129  
H    2.0940752   -0.0005483   -0.5817982  
H   -2.9081051    0.0011669   -2.9507066  
H   -2.1128195    0.0014912   -0.2706794  
C    3.2798086   -0.0005857    2.9199648  
C    2.5571146   -0.0005566    4.0696553  
C    1.1637436   -0.0001548    3.6910360  
C    1.1336965    0.0000200    2.2159470  
N    2.4483514    0.0001428    1.8102719  
C    0.0000000    0.0000000    1.4700000  
C   -1.2757367    0.0000186    2.1664417  
O   -2.3524596    0.0000640    1.5842315  
C   -1.2676493    0.0000873    3.7284083  
O   -2.3355761    0.0004100    4.3257297  
C    0.0181563   -0.0001760    4.4216297  
H    2.9547357   -0.0006076    5.0689105  
H    0.0150794   -0.0003319    5.5031631  
H    4.3498549   -0.0008612    2.7900019  
H    2.7563627   -0.0012824    0.8551938  
