44
29A 33A 34B 14A 15A 24B 42 43 41 27 25 26 2 1 7 2 3 4 3 0 3 0 nosym
C    3.2798086    0.0005858   -1.4499646  
C    2.5571145    0.0005567   -2.5996553  
C    1.1637436    0.0001549   -2.2210360  
C    1.1336963   -0.0000199   -0.7459471  
N    2.4483514   -0.0001427   -0.3402720  
C    0.0000000    0.0000000    0.0000000  
C   -1.2757367   -0.0000186   -0.6964417  
O   -2.3524597   -0.0000640   -0.1142315  
C   -1.2676494   -0.0000872   -2.2584082  
O   -2.3355761   -0.0004100   -2.8557297  
C    0.0181560    0.0001762   -2.9516297  
H    0.0150792    0.0003321   -4.0331631  
H    4.3498549    0.0008613   -1.3200019  
H    2.7563626    0.0012824    0.6148062  
C    5.9736434   -2.1043579   -4.3829118  
C    5.8838296   -1.6403858   -5.6559939  
C    4.7509390   -0.7462249   -5.6992518  
C    4.1840562   -0.7271400   -4.3372422  
N    4.9705835   -1.5712077   -3.5876998  
C    3.1006058    0.0006265   -3.9654949  
C    2.4492227    0.8196159   -4.9742028  
O    1.4668596    1.5107654   -4.7384561  
C    3.0324365    0.8144457   -6.4232161  
O    2.4922732    1.4997918   -7.2809953  
C    4.2049277   -0.0107539   -6.7027912  
H    6.5365801   -1.8955556   -6.4717258  
H    4.6026952   -0.0086077   -7.7085250  
H    6.6880815   -2.7910787   -3.9587855  
H    4.8377541   -1.7678910   -2.6126514  
C    2.4951002    2.0940188    2.9809380  
C    1.9440701    1.6314916    1.8291961  
C    0.8759964    0.7350050    2.2038498  
C    0.8497377    0.7130254    3.6788474  
N    1.8560616    1.5571714    4.0882609  
C   -0.0205033   -0.0168748    4.4215661  
C   -0.9962600   -0.8356168    3.7214979  
O   -1.8224391   -1.5286685    4.3006425  
C   -0.9864710   -0.8277881    2.1595606  
O   -1.8030528   -1.5133726    1.5592035  
C    0.0000000    0.0000000    1.4700000  
H    2.2509283    1.8888011    0.8310761  
H   -0.0229599   -0.0187323    5.5027230  
H    3.3143982    2.7817323    3.1139444  
H    2.0889452    1.7545833    5.0442112  
