46
31A 35A 36B 5A 17B 26B 44 45 43 13 27 29 2 1 7 7 3 4 3 1 2 0 nosym
C    3.3041269    0.0001177   -1.5420434  
C    2.5845370   -0.0004780   -0.3695856  
C    1.2040006   -0.0000007   -0.7283591  
C    1.1422372    0.0006038   -2.1454374  
N    2.4348634    0.0026110   -2.6077469  
C   -0.0655187    0.0008799   -2.8497915  
C   -1.2321772    0.0002326   -2.1101397  
O   -2.4392820    0.0001149   -2.7472517  
C   -1.1911209   -0.0000007   -0.6955263  
O   -2.4371523   -0.0002319   -0.1032858  
C    0.0000000    0.0000000    0.0000000  
H    3.0031535   -0.0000661    0.6222578  
H    2.7054623   -0.0071098   -3.5745264  
H   -0.1193555    0.0014846   -3.9297470  
H   -3.1132995   -0.0000646   -2.0551782  
H   -2.3200286   -0.0004070    0.8516413  
C    5.7183462    0.0008987   -0.7610768  
C    6.9697735    0.0035940   -1.2883314  
C    6.8214686    0.0054664   -2.7245896  
C    5.3706566    0.0036570   -2.9927897  
N    4.7577216    0.0005129   -1.7610467  
C    4.8178650    0.0050247   -4.2321946  
C    5.7114450    0.0082854   -5.3785096  
O    5.3110221    0.0096650   -6.5352121  
C    7.2515425    0.0099937   -5.1179312  
O    8.0137024    0.0124326   -6.0752022  
C    7.7277038    0.0085531   -3.7369459  
H    7.8915738    0.0040189   -0.7343474  
H    3.7509358    0.0037838   -4.4070375  
H    8.7954977    0.0099563   -3.5650787  
H    5.4170511   -0.0010552    0.2738660  
C    2.4951002    2.0940188    2.9809380  
C    1.9440701    1.6314916    1.8291961  
C    0.8759964    0.7350050    2.2038498  
C    0.8497377    0.7130254    3.6788474  
N    1.8560616    1.5571714    4.0882609  
C   -0.0205033   -0.0168748    4.4215661  
C   -0.9962600   -0.8356168    3.7214979  
O   -1.8224391   -1.5286685    4.3006425  
C   -0.9864710   -0.8277881    2.1595606  
O   -1.8030528   -1.5133726    1.5592035  
C    0.0000000    0.0000000    1.4700000  
H    2.2509283    1.8888011    0.8310761  
H   -0.0229599   -0.0187323    5.5027230  
H    3.3143982    2.7817323    3.1139444  
H    2.0889452    1.7545833    5.0442112  
