44
5B 10B 34B 39B 12 13 41 43 7 4 7 4 2 0 2 0 nosym
C    3.1006056    0.0006265   -3.9654949  
C    4.3965746    0.0016349   -4.3711278  
C    4.3857802    0.0012371   -5.8149837  
C    2.9671180   -0.0000659   -6.2201831  
N    2.2396191   -0.0007793   -5.0524355  
C    2.5349222   -0.0003794   -7.5066166  
C    3.5336517    0.0004079   -8.5625884  
O    3.2452514    0.0001430   -9.7521784  
C    5.0419188    0.0015389   -8.1564681  
O    5.8918134    0.0019019   -9.0367742  
C    5.3843443    0.0020629   -6.7363989  
H    5.2614025    0.0023702   -3.7318433  
H    1.4895028   -0.0012110   -7.7823114  
H    6.4309076    0.0030514   -6.4635847  
H    1.2375711   -0.0001539   -4.9981501  
C    3.2798085    0.0005858   -1.4499649  
C    2.5571143    0.0005567   -2.5996554  
C    1.1637433    0.0001549   -2.2210360  
C    1.1336964   -0.0000199   -0.7459472  
N    2.4483513   -0.0001427   -0.3402721  
C    0.0000000    0.0000000    0.0000000  
C   -1.2757369   -0.0000186   -0.6964416  
O   -2.3524596   -0.0000640   -0.1142312  
C   -1.2676496   -0.0000872   -2.2584084  
O   -2.3355764   -0.0004100   -2.8557297  
C    0.0181559    0.0001762   -2.9516297  
H    0.0150790    0.0003321   -4.0331631  
H    4.3498546    0.0008613   -1.3200024  
H    2.7563627    0.0012824    0.6148061  
C    0.0000000    0.0000000    1.4700000  
C    1.0662921    0.0000102    2.3034270  
C    0.4961870   -0.0000064    3.6418889  
C   -0.9663858    0.0000850    3.4240247  
N   -1.2632773    0.0000084    2.1528658  
C   -1.8985362    0.0000517    4.5177257  
C   -1.3925775   -0.0004564    5.7720543  
O   -2.1456383   -0.0005410    6.8851312  
C    0.0786232   -0.0009323    6.0245000  
O    0.4683759   -0.0012588    7.1921102  
C    1.0143166   -0.0008442    4.8859032  
H    2.1107198   -0.0000632    2.0421868  
H   -2.9622183    0.0003270    4.3293377  
H   -1.5042274   -0.0009692    7.6184419  
H    2.0724152   -0.0013148    5.1109744  
