44
4A 5B 20B 29A 30A 39B 14 11 27 42 40 41 1 7 7 2 3 4 2 1 3 0 nosym
C    3.4109754   -0.7015458   -3.0656410  
C    2.4521485    0.0014830   -3.7217479  
C    3.1155496    0.7427309   -4.7683070  
C    4.5497445    0.4115216   -4.6674293  
N    4.6623195   -0.4680975   -3.6155323  
C    5.5133069    0.9106827   -5.4823461  
C    5.1110200    1.8360556   -6.5284752  
O    5.9039680    2.3400730   -7.3130134  
C    3.5974461    2.2011119   -6.6535046  
O    3.2468635    2.9793746   -7.5302370  
C    2.6524711    1.5985774   -5.7165802  
H    6.5597855    0.6546979   -5.3914399  
H    1.6062671    1.8563651   -5.8099974  
H    3.3087463   -1.3703797   -2.2265344  
H    5.5209445   -0.8789278   -3.2976818  
C    0.0000000    0.0000000    0.0000000  
C    1.0662923   -0.0000105   -0.8334269  
C    0.4961874    0.0000060   -2.1718887  
C   -0.9663853   -0.0000854   -1.9540249  
N   -1.2632772   -0.0000086   -0.6828660  
C   -1.8985357   -0.0000523   -3.0477261  
C   -1.3925768    0.0004559   -4.3020546  
O   -2.1456376    0.0005405   -5.4151317  
C    0.0786242    0.0009317   -4.5545000  
O    0.4683768    0.0012580   -5.7221103  
C    1.0143173    0.0008436   -3.4159030  
H    2.1107200    0.0000630   -0.5721863  
H   -2.9622180   -0.0003275   -2.8593382  
H   -1.5042263    0.0009682   -6.1484421  
C    3.2798086   -0.0005857    2.9199648  
C    2.5571146   -0.0005566    4.0696553  
C    1.1637436   -0.0001548    3.6910360  
C    1.1336965    0.0000200    2.2159470  
N    2.4483514    0.0001428    1.8102719  
C    0.0000000    0.0000000    1.4700000  
C   -1.2757367    0.0000186    2.1664417  
O   -2.3524596    0.0000640    1.5842315  
C   -1.2676493    0.0000873    3.7284083  
O   -2.3355761    0.0004100    4.3257297  
C    0.0181563   -0.0001760    4.4216297  
H    2.9547357   -0.0006076    5.0689105  
H    0.0150794   -0.0003319    5.5031631  
H    4.3498549   -0.0008612    2.7900019  
H    2.7563627   -0.0012824    0.8551938  
