44
1A 10B 15A 33A 34B 11 13 28 43 40 3 4 2 1 7 2 1 2 0 nosym
C    0.5438759   -0.7269783   -5.2249516  
C    0.2435443   -0.5104532   -6.5314710  
C   -0.8630391    0.4166041   -6.5610250  
C   -1.1850652    0.7246567   -5.1545422  
N   -0.2963293   -0.0005341   -4.3948471  
C   -2.1741701    1.5652358   -4.7585601  
C   -2.9751657    2.2093704   -5.7861946  
O   -3.8889534    2.9828549   -5.5312126  
C   -2.6518673    1.8975067   -7.2821972  
O   -3.3196714    2.4336656   -8.1561713  
C   -1.5609178    0.9743860   -7.5847348  
H    0.7403652   -0.9501378   -7.3779105  
H   -2.3938456    1.7776382   -3.7214786  
H   -1.3433398    0.7639136   -8.6230431  
H    1.3081761   -1.3562874   -4.7986832  
C    3.1301146   -0.0010313   -1.7028256  
C    2.5367765   -0.0002766   -0.4864669  
C    1.1089901    0.0001027   -0.7656184  
C    1.0177865   -0.0004150   -2.2415133  
N    2.1993571   -0.0011612   -2.7963824  
C   -0.2459219   -0.0002879   -2.9257116  
C   -1.3675326   -0.0000606   -2.1698520  
O   -2.6129318    0.0000865   -2.6748483  
C   -1.3083588    0.0000910   -0.6783229  
O   -2.3693264    0.0004206   -0.0541685  
C    0.0000000    0.0000000    0.0000000  
H    3.0096016   -0.0001007    0.4807518  
H   -3.1967444    0.0002093   -1.8949026  
H    4.1849275   -0.0015114   -1.9271979  
C    0.8400945    0.7047457    2.2710304  
C    0.0000000    0.0000000    1.4700000  
C   -0.8844236   -0.7423113    2.3369512  
C   -0.4878984   -0.4098547    3.7186280  
N    0.5629682    0.4714286    3.6095011  
C   -1.0836927   -0.9095027    4.8308716  
C   -2.1891196   -1.8367527    4.6554461  
O   -2.7906899   -2.3413415    5.5944904  
C   -2.6257283   -2.2031529    3.2011665  
O   -3.5549479   -2.9829990    3.0410059  
C   -1.9068976   -1.5999348    2.0816745  
H   -0.7774656   -0.6525820    5.8354244  
H   -2.2155208   -1.8586617    1.0779135  
H    1.6384792    1.3747609    1.9961646  
H    1.0518368    0.8833920    4.3830260  
