44
1A 10B 15A 33A 34B 11 13 27 43 40 3 4 2 1 7 2 1 2 0 nosym
C    0.8353417   -0.7266720   -5.2248493  
C    0.5761909   -0.5101807   -6.5401620  
C   -0.5291488    0.4166003   -6.6044786  
C   -0.8953233    0.7245277   -5.2088109  
N   -0.0307352   -0.0004646   -4.4215603  
C   -1.8966030    1.5648465   -4.8441095  
C   -2.6650479    2.2088130   -5.8964096  
O   -3.5865962    2.9820602   -5.6702716  
C   -2.2947856    1.8970777   -7.3815129  
O   -2.9349100    2.4330969   -8.2760426  
C   -1.1946296    0.9742397   -7.6496152  
H    1.0994948   -0.9497141   -7.3705696  
H   -2.1488367    1.7771610   -3.8144441  
H   -0.9444543    0.7638547   -8.6805737  
H    1.5860170   -1.3558031   -4.7747714  
C    3.2573670   -0.0002920   -1.5109380  
C    2.5379468   -0.0001709   -0.3591961  
C    1.1435043    0.0000332   -0.7338500  
C    1.1092609   -0.0000082   -2.2088477  
N    2.4227562    0.0001909   -2.6182613  
C   -0.0265532   -0.0002522   -2.9515663  
C   -1.3003035   -0.0002639   -2.2514981  
O   -2.3786784   -0.0004131   -2.8306429  
C   -1.2877725    0.0000312   -0.6895608  
O   -2.3539958    0.0003307   -0.0892036  
C    0.0000000    0.0000000    0.0000000  
H    2.9384091   -0.0000369    0.6389239  
H    4.3270394   -0.0004765   -1.6439446  
H    2.7280494   -0.0013406   -3.5742113  
C    0.8400945    0.7047457    2.2710304  
C    0.0000000    0.0000000    1.4700000  
C   -0.8844236   -0.7423113    2.3369512  
C   -0.4878984   -0.4098547    3.7186280  
N    0.5629682    0.4714286    3.6095011  
C   -1.0836927   -0.9095027    4.8308716  
C   -2.1891196   -1.8367527    4.6554461  
O   -2.7906899   -2.3413415    5.5944904  
C   -2.6257283   -2.2031529    3.2011665  
O   -3.5549479   -2.9829990    3.0410059  
C   -1.9068976   -1.5999348    2.0816745  
H   -0.7774656   -0.6525820    5.8354244  
H   -2.2155208   -1.8586617    1.0779135  
H    1.6384792    1.3747609    1.9961646  
H    1.0518368    0.8833920    4.3830260  
