44
29A 30A 39B 10B 19B 24B 42 40 41 12 26 27 2 3 4 4 7 4 3 1 2 0 nosym
C    3.2798086    0.0005856   -1.4499647  
C    2.5571145    0.0005565   -2.5996553  
C    1.1637436    0.0001547   -2.2210360  
C    1.1336964   -0.0000200   -0.7459470  
N    2.4483513   -0.0001429   -0.3402720  
C    0.0000000    0.0000000    0.0000000  
C   -1.2757371   -0.0000187   -0.6964417  
O   -2.3524597   -0.0000640   -0.1142316  
C   -1.2676493   -0.0000874   -2.2584081  
O   -2.3355762   -0.0004102   -2.8557296  
C    0.0181561    0.0001758   -2.9516297  
H    2.9547354    0.0006074   -3.5989102  
H    0.0150792    0.0003317   -4.0331628  
H    2.7563626    0.0012823    0.6148063  
C    4.7390845    0.0009613   -1.2727278  
C    5.7159794    0.0017141   -2.2159942  
C    6.9782060    0.0017425   -1.5148386  
C    6.6542736    0.0009095   -0.0754436  
N    5.2807306    0.0008647    0.0037357  
C    7.5764448    0.0002872    0.9201990  
C    8.9818046    0.0006750    0.5493908  
O    9.8878540    0.0002343    1.3724188  
C    9.3478548    0.0018088   -0.9690991  
O   10.5277197    0.0024503   -1.2934139  
C    8.2653754    0.0021245   -1.9499610  
H    5.5691196    0.0023771   -3.2813794  
H    7.3176377   -0.0004496    1.9699265  
H    8.5272597    0.0027054   -2.9993135  
H    4.7530488   -0.0011860    0.8573135  
C    2.5128556    2.1077716    2.9199648  
C    1.9592212    1.6432552    4.0696553  
C    0.8915788    0.7479214    3.6910360  
C    0.8684491    0.7287414    2.2159470  
N    1.8754542    1.5738793    1.8102719  
C    0.0000000    0.0000000    1.4700000  
C   -0.9772830   -0.8200135    2.1664417  
O   -1.8021297   -1.5120829    1.5842315  
C   -0.9711318   -0.8147624    3.7284083  
O   -1.7894187   -1.5009653    4.3257297  
C    0.0140216    0.0115358    4.4216297  
H    2.2638494    1.8988021    5.0689105  
H    0.0117648    0.0094386    5.5031631  
H    3.3327358    2.7953732    2.7900019  
H    2.1123206    1.7707734    0.8551938  
