48
38B 43B 10A 16A 20B 21B 45 46 15 32 28 29 7 4 4 2 1 7 2 1 3 0 nosym
C    0.0000000    0.0000000    0.0000000  
C    1.0521663   -0.0011902   -0.8862345  
C    0.4917214   -0.0011957   -2.1979134  
C   -0.9187430    0.0003148   -2.0478682  
N   -1.1833173   -0.0009412   -0.7007911  
C   -1.7951704    0.0010350   -3.1372089  
C   -1.2375842    0.0005225   -4.4010423  
O   -2.0474221    0.0015360   -5.4997574  
C    0.1673576   -0.0013567   -4.5711965  
O    0.5673515   -0.0020688   -5.8915554  
C    1.0325766   -0.0023413   -3.4969893  
H    2.0953056   -0.0030649   -0.6200564  
H   -2.0989777    0.0102372   -0.2891822  
H   -1.4634892    0.0006498   -6.2693592  
H    1.5290704   -0.0033153   -5.9180050  
H    2.1042142   -0.0039610   -3.6584459  
C   -4.5382429    2.1273444   -0.3186949  
C   -3.4269656    1.6642216   -0.9843127  
C   -3.8900509    0.7769057   -2.0005914  
C   -5.3047975    0.7380663   -1.9061940  
N   -5.6653150    1.5677427   -0.8735851  
C   -6.0984770   -0.0377254   -2.7564928  
C   -5.4522254   -0.7877412   -3.7198273  
O   -6.1789714   -1.5628757   -4.5765766  
C   -4.0415000   -0.7624929   -3.8295258  
O   -3.5480024   -1.5637040   -4.8384184  
C   -3.2578657    0.0024039   -2.9908504  
H   -2.4078446    1.9320310   -0.7637135  
H   -6.6071041    1.7500068   -0.5772841  
H   -7.1771658   -0.0717844   -2.6896186  
H   -5.5421621   -1.9965802   -5.1593618  
H   -2.5888282   -1.4891820   -4.8443294  
H   -4.6159805    2.8114593    0.5088937  
C    0.0000000    0.0000000    1.4700000  
C    1.0541688    0.0001722    2.3260392  
C    0.5103138    0.0000454    3.6635956  
C   -0.9576371   -0.0002459    3.5155732  
N   -1.2018458    0.0001392    2.1615969  
C   -1.8348311   -0.0008317    4.5510609  
C   -1.2972847   -0.0009736    5.9014604  
O   -2.0050672   -0.0014265    6.9001319  
C    0.2542623   -0.0004184    6.0817573  
O    0.7184670   -0.0002256    7.2139121  
C    1.0974552   -0.0000873    4.8889129  
H    2.0940752    0.0005483    2.0517982  
H   -2.9081052   -0.0011668    4.4207061  
H    2.1707277    0.0000911    5.0223670  
H   -2.1128194   -0.0014912    1.7406791  
