44
4A 5B 15A 34B 39B 14 11 28 41 43 1 7 2 7 4 2 1 2 0 nosym
C    0.5163333   -0.7047859   -5.2241143  
C   -0.2963293   -0.0005341   -4.3948471  
C   -1.2105198    0.7409708   -5.2310658  
C   -0.8613568    0.4085796   -6.6254799  
N    0.1932970   -0.4718999   -6.5523277  
C   -1.4953163    0.9075958   -7.7167099  
C   -2.5947752    1.8340485   -7.5036130  
O   -3.2285720    2.3380304   -8.4215478  
C   -2.9815341    2.2003658   -6.0352686  
O   -3.9053021    2.9795441   -5.8434486  
C   -2.2242843    1.5978726   -4.9409992  
H   -1.2235230    0.6507358   -8.7311364  
H   -2.4985006    1.8565368   -3.9272820  
H    1.3241780   -1.3741581   -4.9766927  
H    0.6556632   -0.8836273   -7.3421034  
C    3.1301146   -0.0010313   -1.7028256  
C    2.5367765   -0.0002766   -0.4864669  
C    1.1089901    0.0001027   -0.7656184  
C    1.0177865   -0.0004150   -2.2415133  
N    2.1993571   -0.0011612   -2.7963824  
C   -0.2459219   -0.0002879   -2.9257116  
C   -1.3675326   -0.0000606   -2.1698520  
O   -2.6129318    0.0000865   -2.6748483  
C   -1.3083588    0.0000910   -0.6783229  
O   -2.3693264    0.0004206   -0.0541685  
C    0.0000000    0.0000000    0.0000000  
H    3.0096016   -0.0001007    0.4807518  
H   -3.1967444    0.0002093   -1.8949026  
H    4.1849275   -0.0015114   -1.9271979  
C    0.0000000    0.0000000    1.4700000  
C    1.0662921    0.0000102    2.3034270  
C    0.4961870   -0.0000064    3.6418889  
C   -0.9663858    0.0000850    3.4240247  
N   -1.2632773    0.0000084    2.1528658  
C   -1.8985362    0.0000517    4.5177257  
C   -1.3925775   -0.0004564    5.7720543  
O   -2.1456383   -0.0005410    6.8851312  
C    0.0786232   -0.0009323    6.0245000  
O    0.4683759   -0.0012588    7.1921102  
C    1.0143166   -0.0008442    4.8859032  
H    2.1107198   -0.0000632    2.0421868  
H   -2.9622183    0.0003270    4.3293377  
H   -1.5042274   -0.0009692    7.6184419  
H    2.0724152   -0.0013148    5.1109744  
