44
1A 10B 20B 29A 30A 39B 11 13 27 42 40 41 3 4 7 2 3 4 2 1 3 0 nosym
C    5.5868522    0.0001900   -1.0681562  
C    6.8043815    0.0013359   -1.6695679  
C    6.5701479    0.0005337   -3.0943378  
C    5.1058541   -0.0011566   -3.2749814  
N    4.5679461   -0.0016854   -2.0086701  
C    4.4796773   -0.0019122   -4.4789773  
C    5.3028522   -0.0012260   -5.6768582  
O    4.8337315   -0.0018783   -6.8074451  
C    6.8558128    0.0003100   -5.5091804  
O    7.5591484    0.0005920   -6.5104686  
C    7.4139939    0.0012960   -4.1592600  
H    7.7577671    0.0024167   -1.1719051  
H    3.4041773   -0.0030228   -4.5894718  
H    8.4901789    0.0025629   -4.0517888  
H    5.3482114    0.0003408   -0.0169948  
C    3.1301149   -0.0010311   -1.7028252  
C    2.5367768   -0.0002767   -0.4864665  
C    1.1089904    0.0001028   -0.7656183  
C    1.0177872   -0.0004148   -2.2415132  
N    2.1993578   -0.0011611   -2.7963820  
C   -0.2459209   -0.0002877   -2.9257118  
C   -1.3675319   -0.0000605   -2.1698524  
O   -2.6129313    0.0000867   -2.6748490  
C   -1.3083584    0.0000910   -0.6783232  
O   -2.3693261    0.0004206   -0.0541692  
C    0.0000000    0.0000000    0.0000000  
H    3.0096017   -0.0001007    0.4807525  
H   -0.2829630   -0.0004687   -4.0053125  
H   -3.1967441    0.0002094   -1.8949034  
C    2.5128556    2.1077716    2.9199648  
C    1.9592212    1.6432552    4.0696553  
C    0.8915788    0.7479214    3.6910360  
C    0.8684491    0.7287414    2.2159470  
N    1.8754542    1.5738793    1.8102719  
C    0.0000000    0.0000000    1.4700000  
C   -0.9772830   -0.8200135    2.1664417  
O   -1.8021297   -1.5120829    1.5842315  
C   -0.9711318   -0.8147624    3.7284083  
O   -1.7894187   -1.5009653    4.3257297  
C    0.0140216    0.0115358    4.4216297  
H    2.2638494    1.8988021    5.0689105  
H    0.0117648    0.0094386    5.5031631  
H    3.3327358    2.7953732    2.7900019  
H    2.1123206    1.7707734    0.8551938  
