44
1A 10B 15A 29A 33A 34B 11 13 28 42 43 41 3 4 2 2 1 7 2 1 3 0 nosym
C    0.5438759   -0.7269783   -5.2249516  
C    0.2435443   -0.5104532   -6.5314710  
C   -0.8630391    0.4166041   -6.5610250  
C   -1.1850652    0.7246567   -5.1545422  
N   -0.2963293   -0.0005341   -4.3948471  
C   -2.1741701    1.5652358   -4.7585601  
C   -2.9751657    2.2093704   -5.7861946  
O   -3.8889534    2.9828549   -5.5312126  
C   -2.6518673    1.8975067   -7.2821972  
O   -3.3196714    2.4336656   -8.1561713  
C   -1.5609178    0.9743860   -7.5847348  
H    0.7403652   -0.9501378   -7.3779105  
H   -2.3938456    1.7776382   -3.7214786  
H   -1.3433398    0.7639136   -8.6230431  
H    1.3081761   -1.3562874   -4.7986832  
C    3.1301146   -0.0010313   -1.7028256  
C    2.5367765   -0.0002766   -0.4864669  
C    1.1089901    0.0001027   -0.7656184  
C    1.0177865   -0.0004150   -2.2415133  
N    2.1993571   -0.0011612   -2.7963824  
C   -0.2459219   -0.0002879   -2.9257116  
C   -1.3675326   -0.0000606   -2.1698520  
O   -2.6129318    0.0000865   -2.6748483  
C   -1.3083588    0.0000910   -0.6783229  
O   -2.3693264    0.0004206   -0.0541685  
C    0.0000000    0.0000000    0.0000000  
H    3.0096016   -0.0001007    0.4807518  
H   -3.1967444    0.0002093   -1.8949026  
H    4.1849275   -0.0015114   -1.9271979  
C    2.4951002    2.0940188    2.9809380  
C    1.9440701    1.6314916    1.8291961  
C    0.8759964    0.7350050    2.2038498  
C    0.8497377    0.7130254    3.6788474  
N    1.8560616    1.5571714    4.0882609  
C   -0.0205033   -0.0168748    4.4215661  
C   -0.9962600   -0.8356168    3.7214979  
O   -1.8224391   -1.5286685    4.3006425  
C   -0.9864710   -0.8277881    2.1595606  
O   -1.8030528   -1.5133726    1.5592035  
C    0.0000000    0.0000000    1.4700000  
H    2.2509283    1.8888011    0.8310761  
H   -0.0229599   -0.0187323    5.5027230  
H    3.3143982    2.7817323    3.1139444  
H    2.0889452    1.7545833    5.0442112  
