46
31A 32A 41B 16A 17A 26B 44 42 43 29 27 28 2 3 4 2 3 4 3 0 3 0 nosym
C    3.3041272    0.0001176   -1.5420431  
C    2.5845372   -0.0004781   -0.3695853  
C    1.2040006   -0.0000009   -0.7283588  
C    1.1422374    0.0006035   -2.1454372  
N    2.4348639    0.0026108   -2.6077465  
C   -0.0655182    0.0008795   -2.8497919  
C   -1.2321769    0.0002322   -2.1101399  
O   -2.4392814    0.0001143   -2.7472520  
C   -1.1911210   -0.0000008   -0.6955264  
O   -2.4371527   -0.0002321   -0.1032861  
C    0.0000000    0.0000000    0.0000000  
H    3.0031535   -0.0000660    0.6222584  
H   -0.1193549    0.0014841   -3.9297469  
H   -3.1132989   -0.0000650   -2.0551785  
H   -2.3200281   -0.0004071    0.8516412  
H    4.3686623    0.0004070   -1.7024293  
C    5.6502441   -2.1159095   -4.7187983  
C    5.4250929   -1.6663856   -5.9802697  
C    4.2912972   -0.7748309   -5.9133914  
C    3.8713717   -0.7415300   -4.4994096  
N    4.7351844   -1.5757176   -3.8279569  
C    2.8310664   -0.0116222   -4.0232753  
C    2.0743464    0.7948331   -4.9664296  
O    1.1203089    1.4867875   -4.6358047  
C    2.5012808    0.7745014   -6.4688004  
O    1.8714980    1.4492146   -7.2721662  
C    3.6401550   -0.0516388   -6.8616237  
H    5.9888048   -1.9294831   -6.8575508  
H    3.9294739   -0.0600291   -7.9037121  
H    6.4075322   -2.7965354   -4.3650279  
H    4.7066626   -1.7617128   -2.8422391  
C    2.5128556    2.1077716    2.9199648  
C    1.9592212    1.6432552    4.0696553  
C    0.8915788    0.7479214    3.6910360  
C    0.8684491    0.7287414    2.2159470  
N    1.8754542    1.5738793    1.8102719  
C    0.0000000    0.0000000    1.4700000  
C   -0.9772830   -0.8200135    2.1664417  
O   -1.8021297   -1.5120829    1.5842315  
C   -0.9711318   -0.8147624    3.7284083  
O   -1.7894187   -1.5009653    4.3257297  
C    0.0140216    0.0115358    4.4216297  
H    2.2638494    1.8988021    5.0689105  
H    0.0117648    0.0094386    5.5031631  
H    3.3327358    2.7953732    2.7900019  
H    2.1123206    1.7707734    0.8551938  
