48
38B 43B 5B 21B 26B 45 46 13 29 32 7 4 7 7 4 2 1 2 0 nosym
C    3.3041269    0.0001177   -1.5420434  
C    2.5845370   -0.0004780   -0.3695856  
C    1.2040006   -0.0000007   -0.7283591  
C    1.1422372    0.0006038   -2.1454374  
N    2.4348634    0.0026110   -2.6077469  
C   -0.0655187    0.0008799   -2.8497915  
C   -1.2321772    0.0002326   -2.1101397  
O   -2.4392820    0.0001149   -2.7472517  
C   -1.1911209   -0.0000007   -0.6955263  
O   -2.4371523   -0.0002319   -0.1032858  
C    0.0000000    0.0000000    0.0000000  
H    3.0031535   -0.0000661    0.6222578  
H    2.7054623   -0.0071098   -3.5745264  
H   -0.1193555    0.0014846   -3.9297470  
H   -3.1132995   -0.0000646   -2.0551782  
H   -2.3200286   -0.0004070    0.8516413  
C    4.7577216    0.0005129   -1.7610467  
C    5.7908195   -0.0019868   -0.8526580  
C    7.0043636   -0.0008153   -1.6022639  
C    6.6458593    0.0027296   -2.9746298  
N    5.2743991    0.0015007   -3.0355631  
C    7.5924713    0.0050318   -4.0035660  
C    8.9252702    0.0040387   -3.6404920  
O    9.8910729    0.0065389   -4.6049782  
C    9.3028361    0.0001389   -2.2765837  
O   10.6680520   -0.0008066   -2.0777643  
C    8.3695192   -0.0024071   -1.2609857  
H    5.6830210   -0.0054674    0.2184912  
H    4.7309660    0.0139152   -3.8796648  
H    7.3257211    0.0075923   -5.0514402  
H   10.7390805    0.0050006   -4.1422204  
H   10.8374849   -0.0034607   -1.1307220  
H    8.6888293   -0.0055597   -0.2253651  
C    0.0000000    0.0000000    1.4700000  
C    1.0541688    0.0001722    2.3260392  
C    0.5103138    0.0000454    3.6635956  
C   -0.9576371   -0.0002459    3.5155732  
N   -1.2018458    0.0001392    2.1615969  
C   -1.8348311   -0.0008317    4.5510609  
C   -1.2972847   -0.0009736    5.9014604  
O   -2.0050672   -0.0014265    6.9001319  
C    0.2542623   -0.0004184    6.0817573  
O    0.7184670   -0.0002256    7.2139121  
C    1.0974552   -0.0000873    4.8889129  
H    2.0940752    0.0005483    2.0517982  
H   -2.9081052   -0.0011668    4.4207061  
H    2.1707277    0.0000911    5.0223670  
H   -2.1128194   -0.0014912    1.7406791  
