44
33A 34B 18A 19B 43 40 28 25 1 7 1 7 2 0 2 0 nosym
C    3.2798086    0.0005858   -1.4499646  
C    2.5571145    0.0005567   -2.5996553  
C    1.1637436    0.0001549   -2.2210360  
C    1.1336963   -0.0000199   -0.7459471  
N    2.4483514   -0.0001427   -0.3402720  
C    0.0000000    0.0000000    0.0000000  
C   -1.2757367   -0.0000186   -0.6964417  
O   -2.3524597   -0.0000640   -0.1142315  
C   -1.2676494   -0.0000872   -2.2584082  
O   -2.3355761   -0.0004100   -2.8557297  
C    0.0181560    0.0001762   -2.9516297  
H    0.0150792    0.0003321   -4.0331631  
H    4.3498549    0.0008613   -1.3200019  
H    2.7563626    0.0012824    0.6148062  
C    4.1786372   -0.7024184   -4.3986812  
C    3.1006058    0.0006265   -3.9654949  
C    2.5980057    0.7412286   -5.0985161  
C    3.4778860    0.4096225   -6.2354584  
N    4.4155771   -0.4695863   -5.7449307  
C    3.3346034    0.9081441   -7.4895122  
C    2.2409277    1.8331979   -7.7358538  
O    2.0282336    2.3366406   -8.8311203  
C    1.2968981    2.1986649   -6.5462957  
O    0.3728610    2.9766643   -6.7415722  
C    1.5520113    1.5968163   -5.2399472  
H    3.9910132    0.6518771   -8.3094898  
H    0.8936645    1.8548847   -4.4215923  
H    4.8200676   -1.3708665   -3.8476514  
H    5.1565580   -0.8805454   -6.2826177  
C    0.8400945    0.7047457    2.2710304  
C    0.0000000    0.0000000    1.4700000  
C   -0.8844236   -0.7423113    2.3369512  
C   -0.4878984   -0.4098547    3.7186280  
N    0.5629682    0.4714286    3.6095011  
C   -1.0836927   -0.9095027    4.8308716  
C   -2.1891196   -1.8367527    4.6554461  
O   -2.7906899   -2.3413415    5.5944904  
C   -2.6257283   -2.2031529    3.2011665  
O   -3.5549479   -2.9829990    3.0410059  
C   -1.9068976   -1.5999348    2.0816745  
H   -0.7774656   -0.6525820    5.8354244  
H   -2.2155208   -1.8586617    1.0779135  
H    1.6384792    1.3747609    1.9961646  
H    1.0518368    0.8833920    4.3830260  
