46
35A 36B 20A 21B 45 42 30 27 1 7 1 7 2 0 2 0 nosym
C    1.1188644    0.0008217   -0.8003807  
C    0.0000000    0.0000000    0.0000000  
C   -1.1323862    0.0008904   -0.8673526  
C   -0.6382660    0.0019682   -2.1969280  
N    0.7324018    0.0038477   -2.1202240  
C   -1.4770912    0.0027325   -3.3154810  
C   -2.8395475    0.0020958   -3.0876858  
O   -3.7039195    0.0024443   -4.1440347  
C   -3.3517868    0.0013946   -1.7684332  
O   -4.7300492    0.0012389   -1.7073123  
C   -2.5248543    0.0009136   -0.6644818  
H   -1.1067568    0.0036993   -4.3313811  
H   -4.5940030    0.0021851   -3.7685130  
H   -4.9934599    0.0007287   -0.7819913  
H   -2.9462578    0.0005617    0.3339655  
H    2.1619894    0.0009344   -0.5342067  
C    2.8039995   -0.7159430   -3.3653705  
C    1.6478436   -0.0100108   -3.2702998  
C    1.4957383    0.7174261   -4.5082560  
C    2.6664296    0.3749481   -5.3383046  
N    3.4206996   -0.4973443   -4.5879230  
C    2.8929120    0.8595962   -6.5855121  
C    1.9187473    1.7801243   -7.1477991  
O    2.0328502    2.2713023   -8.2631579  
C    0.6714799    2.1569269   -6.2863178  
O   -0.1553086    2.9312424   -6.7490451  
C    0.5367513    1.5697092   -4.9555756  
H    3.7580977    0.5955251   -7.1776521  
H   -0.3298165    1.8355607   -4.3655688  
H    3.2575063   -1.3773178   -2.6450894  
H    4.2849172   -0.9128960   -4.8837142  
C    0.8400945    0.7047457    2.2710304  
C    0.0000000    0.0000000    1.4700000  
C   -0.8844236   -0.7423113    2.3369512  
C   -0.4878984   -0.4098547    3.7186280  
N    0.5629682    0.4714286    3.6095011  
C   -1.0836927   -0.9095027    4.8308716  
C   -2.1891196   -1.8367527    4.6554461  
O   -2.7906899   -2.3413415    5.5944904  
C   -2.6257283   -2.2031529    3.2011665  
O   -3.5549479   -2.9829990    3.0410059  
C   -1.9068976   -1.5999348    2.0816745  
H   -0.7774656   -0.6525820    5.8354244  
H   -2.2155208   -1.8586617    1.0779135  
H    1.6384792    1.3747609    1.9961646  
H    1.0518368    0.8833920    4.3830260  
