44
4A 5B 25B 34B 14 11 27 40 1 7 4 7 2 1 1 0 nosym
C   -3.9876871    0.7052806   -1.9724716  
C   -3.2941076    0.0012878   -2.9038237  
C   -4.2617031   -0.7397005   -3.6781172  
C   -5.5853416   -0.4072885   -3.1175167  
N   -5.3499114    0.4727085   -2.0864648  
C   -6.7615312   -0.9058813   -3.5754340  
C   -6.7210841   -1.8318679   -4.6950089  
O   -7.7260362   -2.3354485   -5.1795481  
C   -5.3302203   -2.1981986   -5.3041932  
O   -5.2836147   -2.9769867   -6.2468371  
C   -4.1319543   -1.5961844   -4.7248927  
H   -7.7217182   -0.6490142   -3.1500286  
H   -3.1728430   -1.8548545   -5.1525829  
H   -3.6182638    1.3742586   -1.2122846  
H   -6.0586653    0.8843289   -1.5074277  
C    0.0000000    0.0000000    0.0000000  
C    1.0541688   -0.0001723   -0.8560392  
C    0.5103136   -0.0000455   -2.1935956  
C   -0.9576373    0.0002461   -2.0455730  
N   -1.2018460   -0.0001389   -0.6915968  
C   -1.8348314    0.0008319   -3.0810607  
C   -1.2972851    0.0009739   -4.4314603  
O   -2.0050676    0.0014268   -5.4301316  
C    0.2542619    0.0004184   -4.6117572  
O    0.7184666    0.0002257   -5.7439122  
C    1.0974551    0.0000873   -3.4189129  
H    2.0940752   -0.0005484   -0.5817983  
H    2.1707276   -0.0000912   -3.5523673  
H   -2.1128194    0.0014915   -0.2706789  
C    1.0672568    0.0000697    2.3021913  
C    0.0000000    0.0000000    1.4700000  
C   -1.1601224    0.0000736    2.3478473  
C   -0.5938729    0.0000769    3.7138435  
N    0.7113367    0.0001554    3.6934124  
C   -1.4286986    0.0001879    4.8835240  
C   -2.7683114    0.0006799    4.6970523  
O   -3.6653903    0.0008304    5.6976972  
C   -3.3702025    0.0010610    3.3310774  
O   -4.5974910    0.0013779    3.2362962  
C   -2.4926826    0.0008943    2.1470656  
H   -0.9878360   -0.0000190    5.8697035  
H   -4.5324246    0.0012261    5.2533954  
H   -2.9677772    0.0012974    1.1752040  
H    2.1134392    0.0000545    2.0405121  
