46
31A 35A 36B 17A 26B 44 45 43 27 29 2 1 7 3 4 3 0 2 0 nosym
C    3.3003551    0.0005277   -1.4738980  
C    2.5232820    0.0003498   -2.6090740  
C    1.1623207   -0.0001318   -2.1820099  
C    1.1711887    0.0000584   -0.7636138  
N    2.4852302   -0.0014919   -0.3662352  
C    0.0000000    0.0000000    0.0000000  
C   -1.2020382    0.0000521   -0.6806482  
O   -2.3759248    0.0003494    0.0157741  
C   -1.2314651   -0.0005111   -2.0955511  
O   -2.5054381   -0.0008036   -2.6250184  
C   -0.0764509   -0.0007271   -2.8495194  
H    2.8036266    0.0088182    0.5858670  
H   -3.0835635    0.0000348   -0.6418822  
H   -2.4360036   -0.0011526   -3.5845927  
H   -0.1304085   -0.0013419   -3.9319086  
H    4.3715552    0.0004895   -1.3667123  
C    4.1171242   -0.7271062   -4.4445137  
C    4.3278185   -0.5117036   -5.7686303  
C    3.3122727    0.4143190   -6.2113316  
C    2.4867580    0.7229877   -5.0280992  
N    3.0267445   -0.0008950   -3.9901692  
C    1.4208269    1.5629158   -5.0321547  
C    1.0625892    2.2056490   -6.2855878  
O    0.1193415    2.9784598   -6.3921130  
C    1.9228121    1.8931123   -7.5513454  
O    1.6305917    2.4280920   -8.6123193  
C    3.0482303    0.9707966   -7.4224265  
H    5.1057478   -0.9514809   -6.3669918  
H    0.8286154    1.7757888   -4.1530187  
H    3.6389555    0.7598509   -8.3034881  
H    4.6665438   -1.3554374   -3.7624378  
C    2.4951002    2.0940188    2.9809380  
C    1.9440701    1.6314916    1.8291961  
C    0.8759964    0.7350050    2.2038498  
C    0.8497377    0.7130254    3.6788474  
N    1.8560616    1.5571714    4.0882609  
C   -0.0205033   -0.0168748    4.4215661  
C   -0.9962600   -0.8356168    3.7214979  
O   -1.8224391   -1.5286685    4.3006425  
C   -0.9864710   -0.8277881    2.1595606  
O   -1.8030528   -1.5133726    1.5592035  
C    0.0000000    0.0000000    1.4700000  
H    2.2509283    1.8888011    0.8310761  
H   -0.0229599   -0.0187323    5.5027230  
H    3.3143982    2.7817323    3.1139444  
H    2.0889452    1.7545833    5.0442112  
