44
5B 10B 25B 29A 30A 39B 12 13 28 42 40 41 7 4 4 2 3 4 2 1 3 0 nosym
C   -3.3460096   -0.0004265   -2.7913646  
C   -4.0050885   -0.0007132   -1.6040609  
C   -5.4169936   -0.0010568   -1.9063183  
C   -5.5272435   -0.0009752   -3.3775883  
N   -4.2366047   -0.0001892   -3.8541818  
C   -6.6998409   -0.0016247   -4.0607559  
C   -7.9358014   -0.0022336   -3.2959439  
O   -9.0426028   -0.0027795   -3.8187164  
C   -7.8427529   -0.0020786   -1.7367301  
O   -8.8766027   -0.0022804   -1.0821965  
C   -6.5211391   -0.0016359   -1.1144848  
H   -3.5536957   -0.0005046   -0.6279169  
H   -6.7586577   -0.0016815   -5.1403167  
H   -6.4653747   -0.0017366   -0.0343859  
H   -3.9810064   -0.0015043   -4.8246018  
C    0.0000000    0.0000000    0.0000000  
C    1.0662919   -0.0000103   -0.8334269  
C    0.4961869    0.0000064   -2.1718889  
C   -0.9663859   -0.0000850   -1.9540246  
N   -1.2632774   -0.0000084   -0.6828657  
C   -1.8985363   -0.0000518   -3.0477257  
C   -1.3925778    0.0004564   -4.3020545  
O   -2.1456384    0.0005409   -5.4151311  
C    0.0786230    0.0009323   -4.5544998  
O    0.4683758    0.0012588   -5.7221098  
C    1.0143164    0.0008442   -3.4159030  
H    2.1107195    0.0000633   -0.5721867  
H   -1.5042275    0.0009691   -6.1484418  
H    2.0724152    0.0013148   -3.6409744  
C    3.2798086   -0.0005857    2.9199648  
C    2.5571146   -0.0005566    4.0696553  
C    1.1637436   -0.0001548    3.6910360  
C    1.1336965    0.0000200    2.2159470  
N    2.4483514    0.0001428    1.8102719  
C    0.0000000    0.0000000    1.4700000  
C   -1.2757367    0.0000186    2.1664417  
O   -2.3524596    0.0000640    1.5842315  
C   -1.2676493    0.0000873    3.7284083  
O   -2.3355761    0.0004100    4.3257297  
C    0.0181563   -0.0001760    4.4216297  
H    2.9547357   -0.0006076    5.0689105  
H    0.0150794   -0.0003319    5.5031631  
H    4.3498549   -0.0008612    2.7900019  
H    2.7563627   -0.0012824    0.8551938  
