44
0A 4A 5B 15A 29A 30A 39B 13 14 12 28 42 40 41 2 1 7 2 2 3 4 3 1 3 0 nosym
C    2.1473371   -2.0926192   -5.9901683  
C    1.6357178   -1.6303822   -4.8202719  
C    0.5546351   -0.7348943   -5.1582033  
C    0.4777937   -0.7131847   -6.6314354  
N    1.4702303   -1.5565174   -7.0750003  
C   -0.4180468    0.0158283   -7.3439767  
C   -1.3699453    0.8338324   -6.6109733  
O   -2.2161080    1.5260627   -7.1615419  
C   -1.3065950    0.8262739   -5.0502887  
O   -2.1027136    1.5112429   -4.4223775  
C   -0.2963293   -0.0005341   -4.3948471  
H    1.9768483   -1.8872553   -3.8332259  
H   -0.4575773    0.0175026   -8.4244131  
H    2.9621981   -2.7796368   -6.1510962  
H    1.6703706   -1.7538853   -8.0383470  
C    3.1301146   -0.0010313   -1.7028256  
C    2.5367765   -0.0002766   -0.4864669  
C    1.1089901    0.0001027   -0.7656184  
C    1.0177865   -0.0004150   -2.2415133  
N    2.1993571   -0.0011612   -2.7963824  
C   -0.2459219   -0.0002879   -2.9257116  
C   -1.3675326   -0.0000606   -2.1698520  
O   -2.6129318    0.0000865   -2.6748483  
C   -1.3083588    0.0000910   -0.6783229  
O   -2.3693264    0.0004206   -0.0541685  
C    0.0000000    0.0000000    0.0000000  
H    3.0096016   -0.0001007    0.4807518  
H   -3.1967444    0.0002093   -1.8949026  
H    4.1849275   -0.0015114   -1.9271979  
C    2.5128556    2.1077716    2.9199648  
C    1.9592212    1.6432552    4.0696553  
C    0.8915788    0.7479214    3.6910360  
C    0.8684491    0.7287414    2.2159470  
N    1.8754542    1.5738793    1.8102719  
C    0.0000000    0.0000000    1.4700000  
C   -0.9772830   -0.8200135    2.1664417  
O   -1.8021297   -1.5120829    1.5842315  
C   -0.9711318   -0.8147624    3.7284083  
O   -1.7894187   -1.5009653    4.3257297  
C    0.0140216    0.0115358    4.4216297  
H    2.2638494    1.8988021    5.0689105  
H    0.0117648    0.0094386    5.5031631  
H    3.3327358    2.7953732    2.7900019  
H    2.1123206    1.7707734    0.8551938  
