44
4A 5B 33A 34B 14 11 43 40 1 7 1 7 2 0 2 0 nosym
C    3.9142817   -0.7071704   -4.5248279  
C    2.8699635   -0.0020528   -4.0185828  
C    2.2908369    0.7380397   -5.1148085  
C    3.0890705    0.4038762   -6.3097765  
N    4.0573678   -0.4761765   -5.8845732  
C    2.8596371    0.9012232   -7.5514331  
C    1.7527751    1.8276214   -7.7222502  
O    1.4651459    2.3301677   -8.8006837  
C    0.8942535    2.1957988   -6.4703753  
O   -0.0400354    2.9749483   -6.6018690  
C    1.2387379    1.5950173   -5.1842012  
H    3.4570854    0.6430794   -8.4147563  
H    0.6392473    1.8549636   -4.3223645  
H    4.5915376   -1.3759573   -4.0189247  
H    4.7585940   -0.8888252   -6.4719830  
C    3.2573667   -0.0002919   -1.5109386  
C    2.5379468   -0.0001709   -0.3591965  
C    1.1435041    0.0000331   -0.7338500  
C    1.1092604   -0.0000084   -2.2088475  
N    2.4227558    0.0001908   -2.6182613  
C   -0.0265536   -0.0002526   -2.9515663  
C   -1.3003039   -0.0002641   -2.2514979  
O   -2.3786786   -0.0004135   -2.8306422  
C   -1.2877726    0.0000311   -0.6895607  
O   -2.3539957    0.0003306   -0.0892033  
C    0.0000000    0.0000000    0.0000000  
H    2.9384090   -0.0000368    0.6389236  
H   -0.0296296   -0.0004089   -4.0327231  
H    4.3270391   -0.0004765   -1.6439450  
C    0.8400945    0.7047457    2.2710304  
C    0.0000000    0.0000000    1.4700000  
C   -0.8844236   -0.7423113    2.3369512  
C   -0.4878984   -0.4098547    3.7186280  
N    0.5629682    0.4714286    3.6095011  
C   -1.0836927   -0.9095027    4.8308716  
C   -2.1891196   -1.8367527    4.6554461  
O   -2.7906899   -2.3413415    5.5944904  
C   -2.6257283   -2.2031529    3.2011665  
O   -3.5549479   -2.9829990    3.0410059  
C   -1.9068976   -1.5999348    2.0816745  
H   -0.7774656   -0.6525820    5.8354244  
H   -2.2155208   -1.8586617    1.0779135  
H    1.6384792    1.3747609    1.9961646  
H    1.0518368    0.8833920    4.3830260  
