48
33A 37A 38B 16A 20A 21B 46 47 45 32 28 29 2 1 7 2 1 7 3 0 3 0 nosym
C    1.1243415    0.0099159   -0.7919008  
C    0.7474084    0.0234036   -2.1148547  
C   -0.6787372    0.0234950   -2.1414699  
C   -1.1201741    0.0099353   -0.7935545  
N    0.0000000    0.0000000    0.0000000  
C   -2.4730813    0.0065388   -0.4408235  
C   -3.3971951    0.0173288   -1.4675053  
O   -4.7313510    0.0149472   -1.1793456  
C   -2.9763637    0.0305528   -2.8186317  
O   -4.0166458    0.0397846   -3.7247611  
C   -1.6418550    0.0336375   -3.1673478  
H   -2.8160168   -0.0039199    0.5845974  
H   -5.1938811    0.0234395   -2.0274371  
H   -3.6464651    0.0484770   -4.6127333  
H   -1.3497452    0.0436785   -4.2109230  
H    2.1062467    0.0051388   -0.3505413  
C    4.6033855   -2.0936204   -2.9144231  
C    3.4416706   -1.6366434   -2.3364460  
C    2.8380291   -0.7402902   -3.2674496  
C    3.6838497   -0.6898570   -4.4049784  
N    4.7474130   -1.5216283   -4.1567715  
C    3.3988715    0.0969608   -5.5250200  
C    2.2387576    0.8462874   -5.4963340  
O    1.9120936    1.6319095   -6.5636213  
C    1.3822496    0.8095563   -4.3703400  
O    0.2665838    1.6116092   -4.4942145  
C    1.6628963    0.0337773   -3.2649305  
H    3.0750419   -1.9142493   -1.3630438  
H    5.5067780   -1.6973427   -4.7895989  
H    4.0394880    0.1398851   -6.3950601  
H    1.0770731    2.0631004   -6.3398369  
H   -0.2580249    1.5289360   -3.6919959  
H    5.3413639   -2.7812155   -2.5381784  
C    2.4951002    2.0940188    2.9809380  
C    1.9440701    1.6314916    1.8291961  
C    0.8759964    0.7350050    2.2038498  
C    0.8497377    0.7130254    3.6788474  
N    1.8560616    1.5571714    4.0882609  
C   -0.0205033   -0.0168748    4.4215661  
C   -0.9962600   -0.8356168    3.7214979  
O   -1.8224391   -1.5286685    4.3006425  
C   -0.9864710   -0.8277881    2.1595606  
O   -1.8030528   -1.5133726    1.5592035  
C    0.0000000    0.0000000    1.4700000  
H    2.2509283    1.8888011    0.8310761  
H   -0.0229599   -0.0187323    5.5027230  
H    3.3143982    2.7817323    3.1139444  
H    2.0889452    1.7545833    5.0442112  
