44
1A 10B 15A 34B 39B 11 13 27 41 42 3 4 2 7 4 2 1 2 0 nosym
C    0.8353417   -0.7266720   -5.2248493  
C    0.5761909   -0.5101807   -6.5401620  
C   -0.5291488    0.4166003   -6.6044786  
C   -0.8953233    0.7245277   -5.2088109  
N   -0.0307352   -0.0004646   -4.4215603  
C   -1.8966030    1.5648465   -4.8441095  
C   -2.6650479    2.2088130   -5.8964096  
O   -3.5865962    2.9820602   -5.6702716  
C   -2.2947856    1.8970777   -7.3815129  
O   -2.9349100    2.4330969   -8.2760426  
C   -1.1946296    0.9742397   -7.6496152  
H    1.0994948   -0.9497141   -7.3705696  
H   -2.1488367    1.7771610   -3.8144441  
H   -0.9444543    0.7638547   -8.6805737  
H    1.5860170   -1.3558031   -4.7747714  
C    3.2573670   -0.0002920   -1.5109380  
C    2.5379468   -0.0001709   -0.3591961  
C    1.1435043    0.0000332   -0.7338500  
C    1.1092609   -0.0000082   -2.2088477  
N    2.4227562    0.0001909   -2.6182613  
C   -0.0265532   -0.0002522   -2.9515663  
C   -1.3003035   -0.0002639   -2.2514981  
O   -2.3786784   -0.0004131   -2.8306429  
C   -1.2877725    0.0000312   -0.6895608  
O   -2.3539958    0.0003307   -0.0892036  
C    0.0000000    0.0000000    0.0000000  
H    2.9384091   -0.0000369    0.6389239  
H    4.3270394   -0.0004765   -1.6439446  
H    2.7280494   -0.0013406   -3.5742113  
C    0.0000000    0.0000000    1.4700000  
C    1.0541688    0.0001722    2.3260392  
C    0.5103138    0.0000454    3.6635956  
C   -0.9576371   -0.0002459    3.5155732  
N   -1.2018458    0.0001392    2.1615969  
C   -1.8348311   -0.0008317    4.5510609  
C   -1.2972847   -0.0009736    5.9014604  
O   -2.0050672   -0.0014265    6.9001319  
C    0.2542623   -0.0004184    6.0817573  
O    0.7184670   -0.0002256    7.2139121  
C    1.0974552   -0.0000873    4.8889129  
H    2.0940752    0.0005483    2.0517982  
H   -2.9081052   -0.0011668    4.4207061  
H    2.1707277    0.0000911    5.0223670  
H   -2.1128194   -0.0014912    1.7406791  
