44
1A 10B 29A 30A 39B 11 13 42 40 41 3 4 2 3 4 2 0 3 0 nosym
C    0.2910126   -0.7257130   -5.1324105  
C    0.5948837   -0.5088181   -6.4380498  
C   -0.3867656    0.4178184   -6.9504411  
C   -1.2939336    0.7252212   -5.8282374  
N   -0.8287665    0.0000939   -4.7555305  
C   -2.3568841    1.5652668   -5.9067477  
C   -2.6255096    2.2094718   -7.1816501  
O   -3.5588356    2.9825046   -7.3537674  
C   -1.6778811    1.8982918   -8.3837200  
O   -1.8942772    2.4345159   -9.4620967  
C   -0.5644306    0.9757095   -8.1765447  
H    1.4131936   -0.9479933   -6.9803666  
H   -3.0098165    1.7771968   -5.0714784  
H    0.0871557    0.7657088   -9.0138369  
H    0.7907726   -1.3548827   -4.4138877  
C    1.0672569   -0.0000698   -0.8321910  
C    0.0000000    0.0000000    0.0000000  
C   -1.1601223   -0.0000736   -0.8778472  
C   -0.5938729   -0.0000768   -2.2438435  
N    0.7113367   -0.0001553   -2.2234123  
C   -1.4286985   -0.0001877   -3.4135239  
C   -2.7683113   -0.0006798   -3.2270524  
O   -3.6653902   -0.0008302   -4.2276970  
C   -3.3702024   -0.0010610   -1.8610774  
O   -4.5974910   -0.0013779   -1.7662963  
C   -2.4926825   -0.0008943   -0.6770658  
H   -4.5324245   -0.0012258   -3.7833954  
H   -2.9677772   -0.0012974    0.2947961  
H    2.1134391   -0.0000547   -0.5705119  
C    2.5128556    2.1077716    2.9199648  
C    1.9592212    1.6432552    4.0696553  
C    0.8915788    0.7479214    3.6910360  
C    0.8684491    0.7287414    2.2159470  
N    1.8754542    1.5738793    1.8102719  
C    0.0000000    0.0000000    1.4700000  
C   -0.9772830   -0.8200135    2.1664417  
O   -1.8021297   -1.5120829    1.5842315  
C   -0.9711318   -0.8147624    3.7284083  
O   -1.7894187   -1.5009653    4.3257297  
C    0.0140216    0.0115358    4.4216297  
H    2.2638494    1.8988021    5.0689105  
H    0.0117648    0.0094386    5.5031631  
H    3.3327358    2.7953732    2.7900019  
H    2.1123206    1.7707734    0.8551938  
