44
5B 10B 34B 12 13 40 7 4 7 2 0 1 0 nosym
C   -0.8712823    0.0001712   -4.7267111  
C    0.4246872    0.0002196   -5.1323438  
C    0.4138926    0.0002759   -6.5761998  
C   -1.0047700    0.0002855   -6.9813995  
N   -1.7322693   -0.0001789   -5.8136520  
C   -1.4369658    0.0007303   -8.2678330  
C   -0.4382360    0.0010070   -9.3238036  
O   -0.7266357    0.0013501  -10.5133944  
C    1.0700318    0.0007501   -8.9176840  
O    1.9199270    0.0006729   -9.7979908  
C    1.4124573    0.0005497   -7.4976147  
H    1.2895154    0.0000339   -4.4930591  
H   -2.4823854    0.0008589   -8.5435279  
H    2.4590211    0.0005779   -7.2248003  
H   -2.7343169    0.0012687   -5.7593665  
C    1.0965515    0.0001358   -0.8010304  
C    0.0000000    0.0000000    0.0000000  
C   -1.1546562    0.0001470   -0.8669514  
C   -0.6372012    0.0003520   -2.2486282  
N    0.7342873    0.0007338   -2.1395014  
C   -1.4147737    0.0001354   -3.3608717  
C   -2.8576047   -0.0001047   -3.1854463  
O   -3.6427778   -0.0002491   -4.1244908  
C   -3.4275837   -0.0000725   -1.7311667  
O   -4.6406828    0.0000333   -1.5710061  
C   -2.4891866   -0.0001090   -0.6116745  
H   -2.8919121   -0.0002919    0.3920865  
H    2.1388272    0.0000662   -0.5261647  
H    1.3735873   -0.0006098   -2.9130261  
C    0.8175213    0.6860729    2.3021913  
C    0.0000000    0.0000000    1.4700000  
C   -0.8887526   -0.7456559    2.3478473  
C   -0.4549825   -0.3816753    3.7138435  
N    0.5448156    0.4573574    3.6934124  
C   -1.0945674   -0.9182058    4.8835240  
C   -2.1210866   -1.7789155    4.6970523  
O   -2.8083856   -2.3554314    5.6976972  
C   -2.5824069   -2.1655116    3.3310774  
O   -3.5227682   -2.9541547    3.2362962  
C   -1.9100805   -1.6015804    2.1470656  
H   -0.7567140   -0.6349833    5.8697035  
H   -3.4728268   -2.9124471    5.2533954  
H   -2.2742832   -1.9066565    1.1752040  
H    1.6189533    1.3585343    2.0405121  
