48
33A 34A 43B 10A 16A 20B 21B 46 44 45 15 32 28 29 2 3 4 4 2 1 7 3 1 3 0 nosym
C    0.0000000    0.0000000    0.0000000  
C    1.0521663   -0.0011902   -0.8862345  
C    0.4917214   -0.0011957   -2.1979134  
C   -0.9187430    0.0003148   -2.0478682  
N   -1.1833173   -0.0009412   -0.7007911  
C   -1.7951704    0.0010350   -3.1372089  
C   -1.2375842    0.0005225   -4.4010423  
O   -2.0474221    0.0015360   -5.4997574  
C    0.1673576   -0.0013567   -4.5711965  
O    0.5673515   -0.0020688   -5.8915554  
C    1.0325766   -0.0023413   -3.4969893  
H    2.0953056   -0.0030649   -0.6200564  
H   -2.0989777    0.0102372   -0.2891822  
H   -1.4634892    0.0006498   -6.2693592  
H    1.5290704   -0.0033153   -5.9180050  
H    2.1042142   -0.0039610   -3.6584459  
C   -4.5382429    2.1273444   -0.3186949  
C   -3.4269656    1.6642216   -0.9843127  
C   -3.8900509    0.7769057   -2.0005914  
C   -5.3047975    0.7380663   -1.9061940  
N   -5.6653150    1.5677427   -0.8735851  
C   -6.0984770   -0.0377254   -2.7564928  
C   -5.4522254   -0.7877412   -3.7198273  
O   -6.1789714   -1.5628757   -4.5765766  
C   -4.0415000   -0.7624929   -3.8295258  
O   -3.5480024   -1.5637040   -4.8384184  
C   -3.2578657    0.0024039   -2.9908504  
H   -2.4078446    1.9320310   -0.7637135  
H   -6.6071041    1.7500068   -0.5772841  
H   -7.1771658   -0.0717844   -2.6896186  
H   -5.5421621   -1.9965802   -5.1593618  
H   -2.5888282   -1.4891820   -4.8443294  
H   -4.6159805    2.8114593    0.5088937  
C    3.2798086   -0.0005857    2.9199648  
C    2.5571146   -0.0005566    4.0696553  
C    1.1637436   -0.0001548    3.6910360  
C    1.1336965    0.0000200    2.2159470  
N    2.4483514    0.0001428    1.8102719  
C    0.0000000    0.0000000    1.4700000  
C   -1.2757367    0.0000186    2.1664417  
O   -2.3524596    0.0000640    1.5842315  
C   -1.2676493    0.0000873    3.7284083  
O   -2.3355761    0.0004100    4.3257297  
C    0.0181563   -0.0001760    4.4216297  
H    2.9547357   -0.0006076    5.0689105  
H    0.0150794   -0.0003319    5.5031631  
H    4.3498549   -0.0008612    2.7900019  
H    2.7563627   -0.0012824    0.8551938  
