44
0A 4A 5B 25B 29A 30A 39B 13 14 12 28 43 40 42 2 1 7 4 2 3 4 3 1 3 0 nosym
C   -4.3987272    2.0900784   -0.0683241  
C   -3.3607172    1.6285359   -0.8123593  
C   -3.9158677    0.7332931   -1.7998732  
C   -5.3728406    0.7109705   -1.5685250  
N   -5.6005090    1.5537502   -0.5051440  
C   -6.2559200   -0.0180276   -2.2968360  
C   -5.7367212   -0.8353677   -3.3807747  
O   -6.4510506   -1.5275308   -4.0941786  
C   -4.1970125   -0.8271529   -3.6435203  
O   -3.7482415   -1.5115604   -4.5531639  
C   -3.3460097   -0.0004262   -2.7913647  
H   -2.3243864    1.8857149   -0.6839425  
H   -7.3209372   -0.0201578   -2.1107087  
H   -4.3868355    2.7767306    0.7624932  
H   -6.5012030    1.7506262   -0.1088635  
C    0.0000000    0.0000000    0.0000000  
C    1.0662919   -0.0000103   -0.8334272  
C    0.4961868    0.0000066   -2.1718889  
C   -0.9663860   -0.0000849   -1.9540248  
N   -1.2632775   -0.0000084   -0.6828659  
C   -1.8985364   -0.0000515   -3.0477258  
C   -1.3925778    0.0004567   -4.3020543  
O   -2.1456385    0.0005412   -5.4151314  
C    0.0786229    0.0009326   -4.5544999  
O    0.4683756    0.0012594   -5.7221104  
C    1.0143162    0.0008443   -3.4159034  
H    2.1107195    0.0000631   -0.5721869  
H   -1.5042277    0.0009692   -6.1484420  
H    2.0724151    0.0013151   -3.6409746  
C    3.3321173   -0.0004715    2.8079335  
C    2.6974184   -0.0000116    4.0032312  
C    1.2800439    0.0002118    3.6752840  
C    1.2395035   -0.0000644    2.1971295  
N    2.4394063   -0.0005460    1.6831036  
C    0.0000000    0.0000000    1.4700000  
C   -1.1468701   -0.0000635    2.1869543  
O   -2.3742202   -0.0000073    1.6395491  
C   -1.1388768   -0.0001607    3.6796354  
O   -2.2206231   -0.0000905    4.2670412  
C    0.1454524   -0.0001816    4.4024240  
H    3.1367986    0.0000651    4.9860947  
H   -2.9844344   -0.0001026    2.3990168  
H    0.1083576   -0.0003682    5.4835595  
H    4.3940039   -0.0007619    2.6198634  
