48
33A 34A 43B 17A 26B 46 44 45 27 31 2 3 4 3 4 3 0 2 0 nosym
C    3.3041272    0.0001176   -1.5420431  
C    2.5845372   -0.0004781   -0.3695853  
C    1.2040006   -0.0000009   -0.7283588  
C    1.1422374    0.0006035   -2.1454372  
N    2.4348639    0.0026108   -2.6077465  
C   -0.0655182    0.0008795   -2.8497919  
C   -1.2321769    0.0002322   -2.1101399  
O   -2.4392814    0.0001143   -2.7472520  
C   -1.1911210   -0.0000008   -0.6955264  
O   -2.4371527   -0.0002321   -0.1032861  
C    0.0000000    0.0000000    0.0000000  
H    3.0031535   -0.0000660    0.6222584  
H   -0.1193549    0.0014841   -3.9297469  
H   -3.1132989   -0.0000650   -2.0551785  
H   -2.3200281   -0.0004071    0.8516412  
H    4.3686623    0.0004070   -1.7024293  
C    3.8878171   -0.7221153   -4.5427235  
C    3.9719333   -0.4862754   -5.8954137  
C    2.9171610    0.4147682   -6.2273411  
C    2.2168609    0.6962702   -5.0263988  
N    2.8310664   -0.0116222   -4.0232753  
C    1.1122536    1.5520018   -4.9778752  
C    0.7074031    2.1344020   -6.1632377  
O   -0.3652174    2.9784454   -6.1726997  
C    1.3930195    1.8656299   -7.3717530  
O    0.8682191    2.5214010   -8.4662358  
C    2.4826538    1.0213222   -7.4204129  
H    4.7028564   -0.9122323   -6.5612256  
H    0.5741181    1.7705381   -4.0658149  
H   -0.4758797    3.2691033   -7.0873241  
H    1.3885186    2.2856096   -9.2403768  
H    2.9875790    0.8344052   -8.3609398  
H    4.4971336   -1.3420435   -3.9076006  
C    2.5128556    2.1077716    2.9199648  
C    1.9592212    1.6432552    4.0696553  
C    0.8915788    0.7479214    3.6910360  
C    0.8684491    0.7287414    2.2159470  
N    1.8754542    1.5738793    1.8102719  
C    0.0000000    0.0000000    1.4700000  
C   -0.9772830   -0.8200135    2.1664417  
O   -1.8021297   -1.5120829    1.5842315  
C   -0.9711318   -0.8147624    3.7284083  
O   -1.7894187   -1.5009653    4.3257297  
C    0.0140216    0.0115358    4.4216297  
H    2.2638494    1.8988021    5.0689105  
H    0.0117648    0.0094386    5.5031631  
H    3.3327358    2.7953732    2.7900019  
H    2.1123206    1.7707734    0.8551938  
