46
31A 35A 36B 20A 21B 44 45 43 30 27 2 1 7 1 7 3 0 2 0 nosym
C    3.3041272    0.0001176   -1.5420431  
C    2.5845372   -0.0004781   -0.3695853  
C    1.2040006   -0.0000009   -0.7283588  
C    1.1422374    0.0006035   -2.1454372  
N    2.4348639    0.0026108   -2.6077465  
C   -0.0655182    0.0008795   -2.8497919  
C   -1.2321769    0.0002322   -2.1101399  
O   -2.4392814    0.0001143   -2.7472520  
C   -1.1911210   -0.0000008   -0.6955264  
O   -2.4371527   -0.0002321   -0.1032861  
C    0.0000000    0.0000000    0.0000000  
H    3.0031535   -0.0000660    0.6222584  
H   -0.1193549    0.0014841   -3.9297469  
H   -3.1132989   -0.0000650   -2.0551785  
H   -2.3200281   -0.0004071    0.8516412  
H    4.3686623    0.0004070   -1.7024293  
C    3.8594208   -0.7175078   -4.5601992  
C    2.8310664   -0.0116222   -4.0232753  
C    2.2094027    0.7153300   -5.1048991  
C    2.9652787    0.3726183   -6.3247311  
N    3.9521594   -0.4993327   -5.9264122  
C    2.6888641    0.8568052   -7.5620115  
C    1.5725231    1.7770482   -7.7015489  
O    1.2438403    2.2678073   -8.7736615  
C    0.7583122    2.1540908   -6.4229928  
O   -0.1835063    2.9281698   -6.5280651  
C    1.1517637    1.5673729   -5.1443963  
H    3.2557694    0.5925697   -8.4438888  
H    0.5827555    1.8333880   -4.2639475  
H    4.5574576   -1.3785742   -4.0727304  
H    4.6334388   -0.9149355   -6.5348368  
C    2.4951002    2.0940188    2.9809380  
C    1.9440701    1.6314916    1.8291961  
C    0.8759964    0.7350050    2.2038498  
C    0.8497377    0.7130254    3.6788474  
N    1.8560616    1.5571714    4.0882609  
C   -0.0205033   -0.0168748    4.4215661  
C   -0.9962600   -0.8356168    3.7214979  
O   -1.8224391   -1.5286685    4.3006425  
C   -0.9864710   -0.8277881    2.1595606  
O   -1.8030528   -1.5133726    1.5592035  
C    0.0000000    0.0000000    1.4700000  
H    2.2509283    1.8888011    0.8310761  
H   -0.0229599   -0.0187323    5.5027230  
H    3.3143982    2.7817323    3.1139444  
H    2.0889452    1.7545833    5.0442112  
