44
5B 10B 25B 29A 34B 12 13 28 43 41 7 4 4 2 7 2 1 2 0 nosym
C   -3.3460096   -0.0004265   -2.7913646  
C   -4.0050885   -0.0007132   -1.6040609  
C   -5.4169936   -0.0010568   -1.9063183  
C   -5.5272435   -0.0009752   -3.3775883  
N   -4.2366047   -0.0001892   -3.8541818  
C   -6.6998409   -0.0016247   -4.0607559  
C   -7.9358014   -0.0022336   -3.2959439  
O   -9.0426028   -0.0027795   -3.8187164  
C   -7.8427529   -0.0020786   -1.7367301  
O   -8.8766027   -0.0022804   -1.0821965  
C   -6.5211391   -0.0016359   -1.1144848  
H   -3.5536957   -0.0005046   -0.6279169  
H   -6.7586577   -0.0016815   -5.1403167  
H   -6.4653747   -0.0017366   -0.0343859  
H   -3.9810064   -0.0015043   -4.8246018  
C    0.0000000    0.0000000    0.0000000  
C    1.0662919   -0.0000103   -0.8334269  
C    0.4961869    0.0000064   -2.1718889  
C   -0.9663859   -0.0000850   -1.9540246  
N   -1.2632774   -0.0000084   -0.6828657  
C   -1.8985363   -0.0000518   -3.0477257  
C   -1.3925778    0.0004564   -4.3020545  
O   -2.1456384    0.0005409   -5.4151311  
C    0.0786230    0.0009323   -4.5544998  
O    0.4683758    0.0012588   -5.7221098  
C    1.0143164    0.0008442   -3.4159030  
H    2.1107195    0.0000633   -0.5721867  
H   -1.5042275    0.0009691   -6.1484418  
H    2.0724152    0.0013148   -3.6409744  
C    3.1301144    0.0010313    3.1728260  
C    2.5367765    0.0002768    1.9564670  
C    1.1089900   -0.0001027    2.2356185  
C    1.0177864    0.0004150    3.7115134  
N    2.1993570    0.0011613    4.2663826  
C   -0.2459220    0.0002880    4.3957118  
C   -1.3675327    0.0000606    3.6398520  
O   -2.6129319   -0.0000866    4.1448486  
C   -1.3083589   -0.0000910    2.1483229  
O   -2.3693264   -0.0004206    1.5241687  
C    0.0000000    0.0000000    1.4700000  
H    3.0096015    0.0001008    0.9892483  
H   -0.2829642    0.0004689    5.4753125  
H   -3.1967446   -0.0002093    3.3649027  
H    4.1849273    0.0015113    3.3971983  
