48
33A 37A 38B 10A 16A 17B 26B 46 47 45 15 32 27 31 2 1 7 4 2 3 4 3 1 3 0 nosym
C    0.0000000    0.0000000    0.0000000  
C    1.0521663   -0.0011902   -0.8862345  
C    0.4917214   -0.0011957   -2.1979134  
C   -0.9187430    0.0003148   -2.0478682  
N   -1.1833173   -0.0009412   -0.7007911  
C   -1.7951704    0.0010350   -3.1372089  
C   -1.2375842    0.0005225   -4.4010423  
O   -2.0474221    0.0015360   -5.4997574  
C    0.1673576   -0.0013567   -4.5711965  
O    0.5673515   -0.0020688   -5.8915554  
C    1.0325766   -0.0023413   -3.4969893  
H    2.0953056   -0.0030649   -0.6200564  
H   -2.0989777    0.0102372   -0.2891822  
H   -1.4634892    0.0006498   -6.2693592  
H    1.5290704   -0.0033153   -5.9180050  
H    2.1042142   -0.0039610   -3.6584459  
C   -4.4707109    2.1246525   -0.3281853  
C   -5.6599901    1.6263874   -0.8075741  
C   -5.3396942    0.7516100   -1.8877479  
C   -3.9276530    0.7558436   -2.0220873  
N   -3.4313379    1.6012525   -1.0610604  
C   -3.2578657    0.0024039   -2.9908504  
C   -4.0275277   -0.7696041   -3.8392617  
O   -3.4247833   -1.5249880   -4.8031640  
C   -5.4376976   -0.7867693   -3.7211788  
O   -6.0624818   -1.6048900   -4.6396926  
C   -6.0991481   -0.0435243   -2.7658798  
H   -6.6381343    1.8650161   -0.4264135  
H   -2.4588395    1.7971149   -0.9065737  
H   -4.1335874   -1.9789648   -5.2772602  
H   -7.0119724   -1.5591007   -4.4914531  
H   -7.1803454   -0.0767265   -2.6996341  
H   -4.2817180    2.8130888    0.4776039  
C    3.2573670    0.0002920    2.9809380  
C    2.5379467    0.0001709    1.8291961  
C    1.1435042   -0.0000331    2.2038498  
C    1.1092607    0.0000083    3.6788474  
N    2.4227561   -0.0001909    4.0882609  
C   -0.0265533    0.0002524    4.4215661  
C   -1.3003036    0.0002640    3.7214979  
O   -2.3786784    0.0004133    4.3006425  
C   -1.2877726   -0.0000311    2.1595606  
O   -2.3539958   -0.0003306    1.5592035  
C    0.0000000    0.0000000    1.4700000  
H    2.9384090    0.0000368    0.8310761  
H   -0.0296291    0.0004086    5.5027230  
H    4.3270393    0.0004765    3.1139444  
H    2.7280493    0.0013407    5.0442112  
