44
29A 33A 34B 10A 15B 24B 42 43 41 12 25 27 2 1 7 4 3 4 3 1 2 0 nosym
C    3.2798086    0.0005856   -1.4499647  
C    2.5571145    0.0005565   -2.5996553  
C    1.1637436    0.0001547   -2.2210360  
C    1.1336964   -0.0000200   -0.7459470  
N    2.4483513   -0.0001429   -0.3402720  
C    0.0000000    0.0000000    0.0000000  
C   -1.2757371   -0.0000187   -0.6964417  
O   -2.3524597   -0.0000640   -0.1142316  
C   -1.2676493   -0.0000874   -2.2584081  
O   -2.3355762   -0.0004102   -2.8557296  
C    0.0181561    0.0001758   -2.9516297  
H    2.9547354    0.0006074   -3.5989102  
H    0.0150792    0.0003317   -4.0331628  
H    2.7563626    0.0012823    0.6148063  
C    5.6706446   -0.0002810   -2.2998279  
C    6.9366753   -0.0019085   -1.8086675  
C    6.8296106   -0.0021191   -0.3687464  
C    5.3870841   -0.0004983   -0.0590621  
N    4.7390845    0.0009613   -1.2727278  
C    4.8700552   -0.0005809    1.1956833  
C    5.7961355   -0.0021606    2.3159101  
O    5.4290412   -0.0023003    3.4836182  
C    7.3281295   -0.0036399    2.0112840  
O    8.1174228   -0.0046694    2.9463116  
C    7.7645002   -0.0036802    0.6172135  
H    7.8422130   -0.0026712   -2.3888522  
H    3.8085772    0.0004946    1.4010434  
H    8.8269280   -0.0049141    0.4148035  
H    5.3397993    0.0003324   -3.3257084  
C    2.4951002    2.0940188    2.9809380  
C    1.9440701    1.6314916    1.8291961  
C    0.8759964    0.7350050    2.2038498  
C    0.8497377    0.7130254    3.6788474  
N    1.8560616    1.5571714    4.0882609  
C   -0.0205033   -0.0168748    4.4215661  
C   -0.9962600   -0.8356168    3.7214979  
O   -1.8224391   -1.5286685    4.3006425  
C   -0.9864710   -0.8277881    2.1595606  
O   -1.8030528   -1.5133726    1.5592035  
C    0.0000000    0.0000000    1.4700000  
H    2.2509283    1.8888011    0.8310761  
H   -0.0229599   -0.0187323    5.5027230  
H    3.3143982    2.7817323    3.1139444  
H    2.0889452    1.7545833    5.0442112  
