46
35A 36B 10B 21B 26B 45 42 15 28 29 1 7 4 7 4 2 1 2 0 nosym
C    3.3003548    0.0005276   -1.4738982  
C    2.5232817    0.0003497   -2.6090743  
C    1.1623206   -0.0001319   -2.1820098  
C    1.1711888    0.0000583   -0.7636138  
N    2.4852302   -0.0014919   -0.3662355  
C    0.0000000    0.0000000    0.0000000  
C   -1.2020381    0.0000520   -0.6806479  
O   -2.3759246    0.0003495    0.0157742  
C   -1.2314650   -0.0005112   -2.0955510  
O   -2.5054382   -0.0008036   -2.6250182  
C   -0.0764510   -0.0007271   -2.8495193  
H    2.8919962   -0.0005619   -3.6205297  
H    2.8036267    0.0088181    0.5858667  
H   -3.0835639    0.0000348   -0.6418822  
H   -2.4360046   -0.0011526   -3.5845924  
H   -0.1304090   -0.0013420   -3.9319086  
C    4.7630507    0.0004755   -1.3275395  
C    5.7197932    0.0016002   -2.2912395  
C    6.9965557    0.0009190   -1.6169148  
C    6.7031140   -0.0007356   -0.1709966  
N    5.3315510   -0.0005303   -0.0628080  
C    7.6461194   -0.0021759    0.8049349  
C    9.0433296   -0.0018645    0.4045104  
O    9.9665695   -0.0030126    1.2082066  
C    9.3772083    0.0001309   -1.1213750  
O   10.5499553    0.0007164   -1.4705513  
C    8.2742424    0.0012903   -2.0791417  
H    5.5504518    0.0029555   -3.3532823  
H    7.4095540   -0.0035070    1.8598967  
H    8.5138925    0.0024646   -3.1337934  
H    4.8220247   -0.0029951    0.8017292  
C    0.8400945    0.7047457    2.2710304  
C    0.0000000    0.0000000    1.4700000  
C   -0.8844236   -0.7423113    2.3369512  
C   -0.4878984   -0.4098547    3.7186280  
N    0.5629682    0.4714286    3.6095011  
C   -1.0836927   -0.9095027    4.8308716  
C   -2.1891196   -1.8367527    4.6554461  
O   -2.7906899   -2.3413415    5.5944904  
C   -2.6257283   -2.2031529    3.2011665  
O   -3.5549479   -2.9829990    3.0410059  
C   -1.9068976   -1.5999348    2.0816745  
H   -0.7774656   -0.6525820    5.8354244  
H   -2.2155208   -1.8586617    1.0779135  
H    1.6384792    1.3747609    1.9961646  
H    1.0518368    0.8833920    4.3830260  
