44
1A 10B 20B 34B 11 13 27 40 3 4 7 7 2 1 1 0 nosym
C    5.5868522    0.0001900   -1.0681562  
C    6.8043815    0.0013359   -1.6695679  
C    6.5701479    0.0005337   -3.0943378  
C    5.1058541   -0.0011566   -3.2749814  
N    4.5679461   -0.0016854   -2.0086701  
C    4.4796773   -0.0019122   -4.4789773  
C    5.3028522   -0.0012260   -5.6768582  
O    4.8337315   -0.0018783   -6.8074451  
C    6.8558128    0.0003100   -5.5091804  
O    7.5591484    0.0005920   -6.5104686  
C    7.4139939    0.0012960   -4.1592600  
H    7.7577671    0.0024167   -1.1719051  
H    3.4041773   -0.0030228   -4.5894718  
H    8.4901789    0.0025629   -4.0517888  
H    5.3482114    0.0003408   -0.0169948  
C    3.1301149   -0.0010311   -1.7028252  
C    2.5367768   -0.0002767   -0.4864665  
C    1.1089904    0.0001028   -0.7656183  
C    1.0177872   -0.0004148   -2.2415132  
N    2.1993578   -0.0011611   -2.7963820  
C   -0.2459209   -0.0002877   -2.9257118  
C   -1.3675319   -0.0000605   -2.1698524  
O   -2.6129313    0.0000867   -2.6748490  
C   -1.3083584    0.0000910   -0.6783232  
O   -2.3693261    0.0004206   -0.0541692  
C    0.0000000    0.0000000    0.0000000  
H    3.0096017   -0.0001007    0.4807525  
H   -0.2829630   -0.0004687   -4.0053125  
H   -3.1967441    0.0002094   -1.8949034  
C    0.8175213    0.6860729    2.3021913  
C    0.0000000    0.0000000    1.4700000  
C   -0.8887526   -0.7456559    2.3478473  
C   -0.4549825   -0.3816753    3.7138435  
N    0.5448156    0.4573574    3.6934124  
C   -1.0945674   -0.9182058    4.8835240  
C   -2.1210866   -1.7789155    4.6970523  
O   -2.8083856   -2.3554314    5.6976972  
C   -2.5824069   -2.1655116    3.3310774  
O   -3.5227682   -2.9541547    3.2362962  
C   -1.9100805   -1.6015804    2.1470656  
H   -0.7567140   -0.6349833    5.8697035  
H   -3.4728268   -2.9124471    5.2533954  
H   -2.2742832   -1.9066565    1.1752040  
H    1.6189533    1.3585343    2.0405121  
