44
4A 5B 29A 34B 14 11 43 41 1 7 2 7 2 0 2 0 nosym
C    0.2658893   -0.7035316   -5.1437509  
C   -0.8287665    0.0000939   -4.7555305  
C   -1.2832026    0.7415539   -5.9081626  
C   -0.3569428    0.4098185   -7.0076098  
N    0.5588817   -0.4702767   -6.4788489  
C   -0.4474988    0.9089940   -8.2663108  
C   -1.5293154    1.8349386   -8.5575761  
O   -1.6958357    2.3390151   -9.6605167  
C   -2.5218375    2.2005576   -7.4082161  
O   -3.4363932    2.9793038   -7.6414602  
C   -2.3217990    1.5979518   -6.0926544  
H    0.2423297    0.6526182   -9.0583448  
H   -3.0134939    1.8561313   -5.3023215  
H    0.8833363   -1.3726808   -4.5667864  
H    1.3213375   -0.8815292   -6.9853862  
C    1.0672569   -0.0000698   -0.8321910  
C    0.0000000    0.0000000    0.0000000  
C   -1.1601223   -0.0000736   -0.8778472  
C   -0.5938729   -0.0000768   -2.2438435  
N    0.7113367   -0.0001553   -2.2234123  
C   -1.4286985   -0.0001877   -3.4135239  
C   -2.7683113   -0.0006798   -3.2270524  
O   -3.6653902   -0.0008302   -4.2276970  
C   -3.3702024   -0.0010610   -1.8610774  
O   -4.5974910   -0.0013779   -1.7662963  
C   -2.4926825   -0.0008943   -0.6770658  
H   -4.5324245   -0.0012258   -3.7833954  
H   -2.9677772   -0.0012974    0.2947961  
H    2.1134391   -0.0000547   -0.5705119  
C    2.3971438    2.0127888    3.1728260  
C    1.9431056    1.6308205    1.9564670  
C    0.8496017    0.7127664    2.2356185  
C    0.7794028    0.6545384    3.7115134  
N    1.6840587    1.4146091    4.2663826  
C   -0.1885723   -0.1578550    4.3957118  
C   -1.0476298   -0.8789867    3.6398520  
O   -2.0015663   -1.6796266    4.1448486  
C   -1.0022026   -0.8410666    2.1483229  
O   -1.8147390   -1.5232959    1.5241687  
C    0.0000000    0.0000000    1.4700000  
H    2.3054237    1.9346118    0.9892483  
H   -0.2170646   -0.1815267    5.4753125  
H   -2.4487139   -2.0549881    3.3649027  
H    3.2048689    2.6911772    3.3971983  
