44
4A 5B 20B 34B 39B 14 11 27 41 43 1 7 7 7 4 2 1 2 0 nosym
C    3.4109754   -0.7015458   -3.0656410  
C    2.4521485    0.0014830   -3.7217479  
C    3.1155496    0.7427309   -4.7683070  
C    4.5497445    0.4115216   -4.6674293  
N    4.6623195   -0.4680975   -3.6155323  
C    5.5133069    0.9106827   -5.4823461  
C    5.1110200    1.8360556   -6.5284752  
O    5.9039680    2.3400730   -7.3130134  
C    3.5974461    2.2011119   -6.6535046  
O    3.2468635    2.9793746   -7.5302370  
C    2.6524711    1.5985774   -5.7165802  
H    6.5597855    0.6546979   -5.3914399  
H    1.6062671    1.8563651   -5.8099974  
H    3.3087463   -1.3703797   -2.2265344  
H    5.5209445   -0.8789278   -3.2976818  
C    0.0000000    0.0000000    0.0000000  
C    1.0662923   -0.0000105   -0.8334269  
C    0.4961874    0.0000060   -2.1718887  
C   -0.9663853   -0.0000854   -1.9540249  
N   -1.2632772   -0.0000086   -0.6828660  
C   -1.8985357   -0.0000523   -3.0477261  
C   -1.3925768    0.0004559   -4.3020546  
O   -2.1456376    0.0005405   -5.4151317  
C    0.0786242    0.0009317   -4.5545000  
O    0.4683768    0.0012580   -5.7221103  
C    1.0143173    0.0008436   -3.4159030  
H    2.1107200    0.0000630   -0.5721863  
H   -2.9622180   -0.0003275   -2.8593382  
H   -1.5042263    0.0009682   -6.1484421  
C    0.0000000    0.0000000    1.4700000  
C    1.0662921    0.0000102    2.3034270  
C    0.4961870   -0.0000064    3.6418889  
C   -0.9663858    0.0000850    3.4240247  
N   -1.2632773    0.0000084    2.1528658  
C   -1.8985362    0.0000517    4.5177257  
C   -1.3925775   -0.0004564    5.7720543  
O   -2.1456383   -0.0005410    6.8851312  
C    0.0786232   -0.0009323    6.0245000  
O    0.4683759   -0.0012588    7.1921102  
C    1.0143166   -0.0008442    4.8859032  
H    2.1107198   -0.0000632    2.0421868  
H   -2.9622183    0.0003270    4.3293377  
H   -1.5042274   -0.0009692    7.6184419  
H    2.0724152   -0.0013148    5.1109744  
