44
4A 5B 34B 39B 14 11 41 43 1 7 7 4 2 0 2 0 nosym
C    4.3921562   -0.7036342   -4.2631882  
C    3.2973504   -0.0000931   -3.8752375  
C    2.8427566    0.7408282   -5.0281536  
C    3.7690871    0.4088690   -6.1274736  
N    4.6850990   -0.4708283   -5.5983756  
C    3.6784248    0.9075429   -7.3863658  
C    2.5964112    1.8331450   -7.6779859  
O    2.4297833    2.3367635   -8.7811197  
C    1.6038111    2.1989929   -6.5287660  
O    0.6890896    2.9774548   -6.7623085  
C    1.8039775    1.5969342   -5.2129737  
H    4.3683079    0.6510105   -8.1783015  
H    1.1122278    1.8552691   -4.4227397  
H    5.0097456   -1.3724304   -3.6859673  
H    5.4476425   -0.8821126   -6.1047552  
C    3.3321173    0.0004715   -1.3379333  
C    2.6974184    0.0000117   -2.5332310  
C    1.2800439   -0.0002118   -2.2052839  
C    1.2395035    0.0000643   -0.7271293  
N    2.4394063    0.0005460   -0.2131035  
C    0.0000000    0.0000000    0.0000000  
C   -1.1468702    0.0000634   -0.7169541  
O   -2.3742202    0.0000072   -0.1695491  
C   -1.1388767    0.0001606   -2.2096353  
O   -2.2206230    0.0000901   -2.7970412  
C    0.1454525    0.0001815   -2.9324239  
H   -2.9844345    0.0001024   -0.9290167  
H    0.1083577    0.0003682   -4.0135594  
H    4.3940039    0.0007620   -1.1498632  
C    0.0000000    0.0000000    1.4700000  
C    1.0662921    0.0000102    2.3034270  
C    0.4961870   -0.0000064    3.6418889  
C   -0.9663858    0.0000850    3.4240247  
N   -1.2632773    0.0000084    2.1528658  
C   -1.8985362    0.0000517    4.5177257  
C   -1.3925775   -0.0004564    5.7720543  
O   -2.1456383   -0.0005410    6.8851312  
C    0.0786232   -0.0009323    6.0245000  
O    0.4683759   -0.0012588    7.1921102  
C    1.0143166   -0.0008442    4.8859032  
H    2.1107198   -0.0000632    2.0421868  
H   -2.9622183    0.0003270    4.3293377  
H   -1.5042274   -0.0009692    7.6184419  
H    2.0724152   -0.0013148    5.1109744  
