44
0A 1A 10B 29A 30A 39B 13 11 12 43 40 42 2 3 4 2 3 4 3 0 3 0 nosym
C    6.1842680   -2.1064481   -4.1727570  
C    6.1478042   -1.6423485   -5.4484360  
C    5.0181327   -0.7476334   -5.5387854  
C    4.3949980   -0.7283624   -4.2015785  
N    5.1492018   -1.5728623   -3.4199865  
C    3.2973504   -0.0000931   -3.8752375  
C    2.6889607    0.8192797   -4.9101412  
O    1.6979620    1.5108916   -4.7154741  
C    3.3320443    0.8139210   -6.3335950  
O    2.8284244    1.4995863   -7.2130782  
C    4.5147674   -0.0118307   -6.5641416  
H    6.8338547   -1.8977820   -6.2362822  
H    4.9540982   -0.0098120   -7.5524272  
H    6.8800805   -2.7935444   -3.7192890  
H    4.9757634   -1.7695449   -2.4513369  
C    3.3321173    0.0004715   -1.3379333  
C    2.6974184    0.0000117   -2.5332310  
C    1.2800439   -0.0002118   -2.2052839  
C    1.2395035    0.0000643   -0.7271293  
N    2.4394063    0.0005460   -0.2131035  
C    0.0000000    0.0000000    0.0000000  
C   -1.1468702    0.0000634   -0.7169541  
O   -2.3742202    0.0000072   -0.1695491  
C   -1.1388767    0.0001606   -2.2096353  
O   -2.2206230    0.0000901   -2.7970412  
C    0.1454525    0.0001815   -2.9324239  
H   -2.9844345    0.0001024   -0.9290167  
H    0.1083577    0.0003682   -4.0135594  
H    4.3940039    0.0007620   -1.1498632  
C    2.5528530    2.1414826    2.8079335  
C    2.0663498    1.7338582    4.0032312  
C    0.9804344    0.8229586    3.6752840  
C    0.9495562    0.7966882    2.1971295  
N    1.8690446    1.5676019    1.6831036  
C    0.0000000    0.0000000    1.4700000  
C   -0.8785127   -0.7372425    2.1869543  
O   -1.8187535   -1.5261249    1.6395491  
C   -0.8723269   -0.7321790    3.6796354  
O   -1.7010379   -1.4274584    4.2670412  
C    0.1115397    0.0933559    4.4024240  
H    2.4028853    2.0163452    4.9860947  
H   -2.2861435   -1.9184361    2.3990168  
H    0.0832434    0.0693689    5.4835595  
H    3.3664920    2.8238276    2.6198634  
