46
31A 35A 36B 0A 20B 21A 44 45 43 15 30 27 2 1 7 2 1 7 3 1 2 0 nosym
C    3.3003543    0.0005277   -1.4738990  
C    2.5232811    0.0003499   -2.6090749  
C    1.1623199   -0.0001317   -2.1820104  
C    1.1711881    0.0000584   -0.7636144  
N    2.4852300   -0.0014918   -0.3662360  
C    0.0000000    0.0000000    0.0000000  
C   -1.2020384    0.0000520   -0.6806478  
O   -2.3759250    0.0003494    0.0157748  
C   -1.2314658   -0.0005111   -2.0955509  
O   -2.5054391   -0.0008036   -2.6250178  
C   -0.0764518   -0.0007271   -2.8495195  
H    2.8919951   -0.0005617   -3.6205306  
H    2.8036264    0.0088181    0.5858657  
H   -3.0835640    0.0000348   -0.6418817  
H   -2.4360050   -0.0011525   -3.5845919  
H    4.3715549    0.0004896   -1.3667139  
C    0.6503151   -0.7058444   -5.1591996  
C   -0.1496418   -0.0015610   -4.3176961  
C   -1.0769621    0.7392934   -5.1399168  
C   -0.7493500    0.4064857   -6.5394522  
N    0.3066308   -0.4735891   -6.4823318  
C   -1.4003407    0.9048526   -7.6209078  
C   -2.4966979    1.8309959   -7.3911360  
O   -3.1448399    2.3343955   -8.2993226  
C   -2.8607670    2.1977447   -5.9171096  
O   -3.7817308    2.9766677   -5.7112816  
C   -2.0864157    1.5959461   -4.8344875  
H   -1.1442224    0.6476961   -8.6393299  
H   -2.3449688    1.8549056   -3.8167380  
H    1.4621431   -1.3748325   -4.9240830  
H    0.7568401   -0.8854579   -7.2790267  
C    2.4951002    2.0940188    2.9809380  
C    1.9440701    1.6314916    1.8291961  
C    0.8759964    0.7350050    2.2038498  
C    0.8497377    0.7130254    3.6788474  
N    1.8560616    1.5571714    4.0882609  
C   -0.0205033   -0.0168748    4.4215661  
C   -0.9962600   -0.8356168    3.7214979  
O   -1.8224391   -1.5286685    4.3006425  
C   -0.9864710   -0.8277881    2.1595606  
O   -1.8030528   -1.5133726    1.5592035  
C    0.0000000    0.0000000    1.4700000  
H    2.2509283    1.8888011    0.8310761  
H   -0.0229599   -0.0187323    5.5027230  
H    3.3143982    2.7817323    3.1139444  
H    2.0889452    1.7545833    5.0442112  
