46
36B 41B 20A 21B 43 44 30 27 7 4 1 7 2 0 2 0 nosym
C    1.1188644    0.0008217   -0.8003807  
C    0.0000000    0.0000000    0.0000000  
C   -1.1323862    0.0008904   -0.8673526  
C   -0.6382660    0.0019682   -2.1969280  
N    0.7324018    0.0038477   -2.1202240  
C   -1.4770912    0.0027325   -3.3154810  
C   -2.8395475    0.0020958   -3.0876858  
O   -3.7039195    0.0024443   -4.1440347  
C   -3.3517868    0.0013946   -1.7684332  
O   -4.7300492    0.0012389   -1.7073123  
C   -2.5248543    0.0009136   -0.6644818  
H   -1.1067568    0.0036993   -4.3313811  
H   -4.5940030    0.0021851   -3.7685130  
H   -4.9934599    0.0007287   -0.7819913  
H   -2.9462578    0.0005617    0.3339655  
H    2.1619894    0.0009344   -0.5342067  
C    2.8039995   -0.7159430   -3.3653705  
C    1.6478436   -0.0100108   -3.2702998  
C    1.4957383    0.7174261   -4.5082560  
C    2.6664296    0.3749481   -5.3383046  
N    3.4206996   -0.4973443   -4.5879230  
C    2.8929120    0.8595962   -6.5855121  
C    1.9187473    1.7801243   -7.1477991  
O    2.0328502    2.2713023   -8.2631579  
C    0.6714799    2.1569269   -6.2863178  
O   -0.1553086    2.9312424   -6.7490451  
C    0.5367513    1.5697092   -4.9555756  
H    3.7580977    0.5955251   -7.1776521  
H   -0.3298165    1.8355607   -4.3655688  
H    3.2575063   -1.3773178   -2.6450894  
H    4.2849172   -0.9128960   -4.8837142  
C    0.0000000    0.0000000    1.4700000  
C    1.0541688    0.0001722    2.3260392  
C    0.5103138    0.0000454    3.6635956  
C   -0.9576371   -0.0002459    3.5155732  
N   -1.2018458    0.0001392    2.1615969  
C   -1.8348311   -0.0008317    4.5510609  
C   -1.2972847   -0.0009736    5.9014604  
O   -2.0050672   -0.0014265    6.9001319  
C    0.2542623   -0.0004184    6.0817573  
O    0.7184670   -0.0002256    7.2139121  
C    1.0974552   -0.0000873    4.8889129  
H    2.0940752    0.0005483    2.0517982  
H   -2.9081052   -0.0011668    4.4207061  
H    2.1707277    0.0000911    5.0223670  
H   -2.1128194   -0.0014912    1.7406791  
