44
0A 1A 10B 25B 34B 13 11 12 28 40 2 3 4 4 7 3 1 1 0 nosym
C    6.7793179   -0.0000203   -4.0582542  
C    7.7853565    0.0004710   -3.1461345  
C    7.1695416    0.0010650   -1.8401453  
C    5.7118171    0.0008489   -2.0678072  
N    5.5416283    0.0005849   -3.4330637  
C    4.7795901    0.0008674   -1.0815733  
C    5.2428769    0.0013429    0.2960698  
O    4.4818135    0.0014588    1.2547581  
C    6.7823177    0.0018305    0.5605057  
O    7.1842444    0.0025395    1.7162370  
C    7.6891550    0.0014824   -0.5847013  
H    8.8386419    0.0006051   -3.3633967  
H    8.7535772    0.0016184   -0.3930576  
H    6.8379580   -0.0005567   -5.1345677  
H    4.6549020   -0.0011625   -3.9029153  
C    3.3321168    0.0004716   -1.3379341  
C    2.6974177    0.0000118   -2.5332316  
C    1.2800432   -0.0002116   -2.2052842  
C    1.2395033    0.0000644   -0.7271298  
N    2.4394059    0.0005460   -0.2131041  
C    0.0000000    0.0000000    0.0000000  
C   -1.1468704    0.0000635   -0.7169542  
O   -2.3742206    0.0000074   -0.1695488  
C   -1.1388774    0.0001608   -2.2096352  
O   -2.2206238    0.0000906   -2.7970409  
C    0.1454514    0.0001818   -2.9324241  
H    3.1367978   -0.0000649   -3.5160956  
H   -2.9844350    0.0001027   -0.9290164  
H    0.1083567    0.0003684   -4.0135594  
C    0.8175213    0.6860729    2.3021913  
C    0.0000000    0.0000000    1.4700000  
C   -0.8887526   -0.7456559    2.3478473  
C   -0.4549825   -0.3816753    3.7138435  
N    0.5448156    0.4573574    3.6934124  
C   -1.0945674   -0.9182058    4.8835240  
C   -2.1210866   -1.7789155    4.6970523  
O   -2.8083856   -2.3554314    5.6976972  
C   -2.5824069   -2.1655116    3.3310774  
O   -3.5227682   -2.9541547    3.2362962  
C   -1.9100805   -1.6015804    2.1470656  
H   -0.7567140   -0.6349833    5.8697035  
H   -3.4728268   -2.9124471    5.2533954  
H   -2.2742832   -1.9066565    1.1752040  
H    1.6189533    1.3585343    2.0405121  
