46
31A 35A 36B 0A 16A 17B 26A 44 45 43 15 29 27 28 2 1 7 2 2 3 4 3 1 3 0 nosym
C    3.3003543    0.0005277   -1.4738990  
C    2.5232811    0.0003499   -2.6090749  
C    1.1623199   -0.0001317   -2.1820104  
C    1.1711881    0.0000584   -0.7636144  
N    2.4852300   -0.0014918   -0.3662360  
C    0.0000000    0.0000000    0.0000000  
C   -1.2020384    0.0000520   -0.6806478  
O   -2.3759250    0.0003494    0.0157748  
C   -1.2314658   -0.0005111   -2.0955509  
O   -2.5054391   -0.0008036   -2.6250178  
C   -0.0764518   -0.0007271   -2.8495195  
H    2.8919951   -0.0005617   -3.6205306  
H    2.8036264    0.0088181    0.5858657  
H   -3.0835640    0.0000348   -0.6418817  
H   -2.4360050   -0.0011525   -3.5845919  
H    4.3715549    0.0004896   -1.3667139  
C    2.2883732   -2.1096666   -5.8898013  
C    1.6780803   -1.6459101   -7.0107595  
C    0.6304141   -0.7505690   -6.5799515  
C    0.6807522   -0.7305567   -5.1055512  
N    1.7068943   -1.5752686   -4.7500468  
C   -0.1496418   -0.0015610   -4.3176961  
C   -1.1605702    0.8178674   -4.9650724  
O   -1.9555601    1.5101067   -4.3429015  
C   -1.2321944    0.8117314   -6.5254052  
O   -2.0793591    1.4974364   -7.0816260  
C   -0.2825940   -0.0147685   -7.2663562  
H    1.9326354   -1.9019645   -8.0238001  
H   -0.3386970   -0.0132853   -8.3464369  
H    3.1138601   -2.7970350   -5.8004378  
H    1.9910632   -1.7715749   -3.8078371  
C    2.4951002    2.0940188    2.9809380  
C    1.9440701    1.6314916    1.8291961  
C    0.8759964    0.7350050    2.2038498  
C    0.8497377    0.7130254    3.6788474  
N    1.8560616    1.5571714    4.0882609  
C   -0.0205033   -0.0168748    4.4215661  
C   -0.9962600   -0.8356168    3.7214979  
O   -1.8224391   -1.5286685    4.3006425  
C   -0.9864710   -0.8277881    2.1595606  
O   -1.8030528   -1.5133726    1.5592035  
C    0.0000000    0.0000000    1.4700000  
H    2.2509283    1.8888011    0.8310761  
H   -0.0229599   -0.0187323    5.5027230  
H    3.3143982    2.7817323    3.1139444  
H    2.0889452    1.7545833    5.0442112  
