44
5B 10B 29A 30A 39B 12 13 43 40 42 7 4 2 3 4 2 0 3 0 nosym
C   -0.8712823    0.0001712   -4.7267111  
C    0.4246872    0.0002196   -5.1323438  
C    0.4138926    0.0002759   -6.5761998  
C   -1.0047700    0.0002855   -6.9813995  
N   -1.7322693   -0.0001789   -5.8136520  
C   -1.4369658    0.0007303   -8.2678330  
C   -0.4382360    0.0010070   -9.3238036  
O   -0.7266357    0.0013501  -10.5133944  
C    1.0700318    0.0007501   -8.9176840  
O    1.9199270    0.0006729   -9.7979908  
C    1.4124573    0.0005497   -7.4976147  
H    1.2895154    0.0000339   -4.4930591  
H   -2.4823854    0.0008589   -8.5435279  
H    2.4590211    0.0005779   -7.2248003  
H   -2.7343169    0.0012687   -5.7593665  
C    1.0965515    0.0001358   -0.8010304  
C    0.0000000    0.0000000    0.0000000  
C   -1.1546562    0.0001470   -0.8669514  
C   -0.6372012    0.0003520   -2.2486282  
N    0.7342873    0.0007338   -2.1395014  
C   -1.4147737    0.0001354   -3.3608717  
C   -2.8576047   -0.0001047   -3.1854463  
O   -3.6427778   -0.0002491   -4.1244908  
C   -3.4275837   -0.0000725   -1.7311667  
O   -4.6406828    0.0000333   -1.5710061  
C   -2.4891866   -0.0001090   -0.6116745  
H   -2.8919121   -0.0002919    0.3920865  
H    2.1388272    0.0000662   -0.5261647  
H    1.3735873   -0.0006098   -2.9130261  
C    2.5528530    2.1414826    2.8079335  
C    2.0663498    1.7338582    4.0032312  
C    0.9804344    0.8229586    3.6752840  
C    0.9495562    0.7966882    2.1971295  
N    1.8690446    1.5676019    1.6831036  
C    0.0000000    0.0000000    1.4700000  
C   -0.8785127   -0.7372425    2.1869543  
O   -1.8187535   -1.5261249    1.6395491  
C   -0.8723269   -0.7321790    3.6796354  
O   -1.7010379   -1.4274584    4.2670412  
C    0.1115397    0.0933559    4.4024240  
H    2.4028853    2.0163452    4.9860947  
H   -2.2861435   -1.9184361    2.3990168  
H    0.0832434    0.0693689    5.4835595  
H    3.3664920    2.8238276    2.6198634  
