44
1A 10B 15A 29A 33A 34B 11 13 27 42 43 41 3 4 2 2 1 7 2 1 3 0 nosym
C    0.8353417   -0.7266720   -5.2248493  
C    0.5761909   -0.5101807   -6.5401620  
C   -0.5291488    0.4166003   -6.6044786  
C   -0.8953233    0.7245277   -5.2088109  
N   -0.0307352   -0.0004646   -4.4215603  
C   -1.8966030    1.5648465   -4.8441095  
C   -2.6650479    2.2088130   -5.8964096  
O   -3.5865962    2.9820602   -5.6702716  
C   -2.2947856    1.8970777   -7.3815129  
O   -2.9349100    2.4330969   -8.2760426  
C   -1.1946296    0.9742397   -7.6496152  
H    1.0994948   -0.9497141   -7.3705696  
H   -2.1488367    1.7771610   -3.8144441  
H   -0.9444543    0.7638547   -8.6805737  
H    1.5860170   -1.3558031   -4.7747714  
C    3.2573670   -0.0002920   -1.5109380  
C    2.5379468   -0.0001709   -0.3591961  
C    1.1435043    0.0000332   -0.7338500  
C    1.1092609   -0.0000082   -2.2088477  
N    2.4227562    0.0001909   -2.6182613  
C   -0.0265532   -0.0002522   -2.9515663  
C   -1.3003035   -0.0002639   -2.2514981  
O   -2.3786784   -0.0004131   -2.8306429  
C   -1.2877725    0.0000312   -0.6895608  
O   -2.3539958    0.0003307   -0.0892036  
C    0.0000000    0.0000000    0.0000000  
H    2.9384091   -0.0000369    0.6389239  
H    4.3270394   -0.0004765   -1.6439446  
H    2.7280494   -0.0013406   -3.5742113  
C    2.4951002    2.0940188    2.9809380  
C    1.9440701    1.6314916    1.8291961  
C    0.8759964    0.7350050    2.2038498  
C    0.8497377    0.7130254    3.6788474  
N    1.8560616    1.5571714    4.0882609  
C   -0.0205033   -0.0168748    4.4215661  
C   -0.9962600   -0.8356168    3.7214979  
O   -1.8224391   -1.5286685    4.3006425  
C   -0.9864710   -0.8277881    2.1595606  
O   -1.8030528   -1.5133726    1.5592035  
C    0.0000000    0.0000000    1.4700000  
H    2.2509283    1.8888011    0.8310761  
H   -0.0229599   -0.0187323    5.5027230  
H    3.3143982    2.7817323    3.1139444  
H    2.0889452    1.7545833    5.0442112  
