44
4A 5B 25B 34B 14 11 28 40 1 7 4 7 2 1 1 0 nosym
C    5.7595790   -0.0002669   -2.0216242  
C    4.7795901    0.0008674   -1.0815733  
C    5.4318891    0.0022325    0.2065803  
C    6.8826346    0.0018267   -0.0619862  
N    7.0143611   -0.0001033   -1.4314878  
C    7.8422285    0.0032038    0.8976396  
C    7.4178678    0.0049944    2.2877655  
O    8.2055920    0.0062612    3.2246706  
C    5.8864725    0.0052017    2.5953903  
O    5.5172076    0.0063960    3.7619675  
C    4.9477880    0.0038977    1.4761399  
H    8.9010986    0.0030054    0.6792256  
H    3.8891756    0.0042561    1.6976423  
H    5.6706934   -0.0014256   -3.0958621  
H    7.8875234    0.0007406   -1.9260930  
C    3.3321168    0.0004716   -1.3379341  
C    2.6974177    0.0000118   -2.5332316  
C    1.2800432   -0.0002116   -2.2052842  
C    1.2395033    0.0000644   -0.7271298  
N    2.4394059    0.0005460   -0.2131041  
C    0.0000000    0.0000000    0.0000000  
C   -1.1468704    0.0000635   -0.7169542  
O   -2.3742206    0.0000074   -0.1695488  
C   -1.1388774    0.0001608   -2.2096352  
O   -2.2206238    0.0000906   -2.7970409  
C    0.1454514    0.0001818   -2.9324241  
H    3.1367978   -0.0000649   -3.5160956  
H   -2.9844350    0.0001027   -0.9290164  
H    0.1083567    0.0003684   -4.0135594  
C    0.8175213    0.6860729    2.3021913  
C    0.0000000    0.0000000    1.4700000  
C   -0.8887526   -0.7456559    2.3478473  
C   -0.4549825   -0.3816753    3.7138435  
N    0.5448156    0.4573574    3.6934124  
C   -1.0945674   -0.9182058    4.8835240  
C   -2.1210866   -1.7789155    4.6970523  
O   -2.8083856   -2.3554314    5.6976972  
C   -2.5824069   -2.1655116    3.3310774  
O   -3.5227682   -2.9541547    3.2362962  
C   -1.9100805   -1.6015804    2.1470656  
H   -0.7567140   -0.6349833    5.8697035  
H   -3.4728268   -2.9124471    5.2533954  
H   -2.2742832   -1.9066565    1.1752040  
H    1.6189533    1.3585343    2.0405121  
