48
38B 43B 17A 26B 45 46 27 31 7 4 3 4 2 0 2 0 nosym
C    3.3003551    0.0005277   -1.4738980  
C    2.5232820    0.0003498   -2.6090740  
C    1.1623207   -0.0001318   -2.1820099  
C    1.1711887    0.0000584   -0.7636138  
N    2.4852302   -0.0014919   -0.3662352  
C    0.0000000    0.0000000    0.0000000  
C   -1.2020382    0.0000521   -0.6806482  
O   -2.3759248    0.0003494    0.0157741  
C   -1.2314651   -0.0005111   -2.0955511  
O   -2.5054381   -0.0008036   -2.6250184  
C   -0.0764509   -0.0007271   -2.8495194  
H    2.8036266    0.0088182    0.5858670  
H   -3.0835635    0.0000348   -0.6418822  
H   -2.4360036   -0.0011526   -3.5845927  
H   -0.1304085   -0.0013419   -3.9319086  
H    4.3715552    0.0004895   -1.3667123  
C    4.1182196   -0.7098244   -4.4345224  
C    4.3063926   -0.4605392   -5.7742670  
C    3.2826546    0.4475820   -6.1766060  
C    2.4931728    0.7193451   -5.0299639  
N    3.0267445   -0.0008950   -3.9901692  
C    1.3904690    1.5784648   -5.0572793  
C    1.0792525    2.1743286   -6.2640389  
O    0.0128520    3.0222366   -6.3468383  
C    1.8547095    1.9154239   -7.4192239  
O    1.4171357    2.5841567   -8.5437990  
C    2.9425265    1.0677821   -7.3930722  
H    5.0850022   -0.8823008   -6.3865387  
H    0.7846355    1.7896271   -4.1868891  
H   -0.0265958    3.3225742   -7.2641748  
H    1.9945696    2.3544011   -9.2782280  
H    3.5175162    0.8886450   -8.2940579  
H    4.6753589   -1.3383451   -3.7610861  
C    0.0000000    0.0000000    1.4700000  
C    1.0541688    0.0001722    2.3260392  
C    0.5103138    0.0000454    3.6635956  
C   -0.9576371   -0.0002459    3.5155732  
N   -1.2018458    0.0001392    2.1615969  
C   -1.8348311   -0.0008317    4.5510609  
C   -1.2972847   -0.0009736    5.9014604  
O   -2.0050672   -0.0014265    6.9001319  
C    0.2542623   -0.0004184    6.0817573  
O    0.7184670   -0.0002256    7.2139121  
C    1.0974552   -0.0000873    4.8889129  
H    2.0940752    0.0005483    2.0517982  
H   -2.9081052   -0.0011668    4.4207061  
H    2.1707277    0.0000911    5.0223670  
H   -2.1128194   -0.0014912    1.7406791  
