44
0A 4A 5B 29A 30A 39B 13 14 12 42 40 41 2 1 7 2 3 4 3 0 3 0 nosym
C    2.0683304   -2.0904429   -5.1158917  
C    1.0946576   -1.6288415   -4.2894774  
C    0.2713680   -0.7336496   -5.0677200  
C    0.8493397   -0.7114210   -6.4250127  
N    1.9361820   -1.5542010   -6.3877881  
C    0.3570788    0.0175080   -7.4584763  
C   -0.8204474    0.8348675   -7.2178704  
O   -1.3391945    1.5269729   -8.0840066  
C   -1.4489542    0.8267520   -5.7879333  
O   -2.4403050    1.5111764   -5.5733482  
C   -0.8287665    0.0000939   -4.7555305  
H    0.9677678   -1.8859493   -3.2529408  
H    0.7960719    0.0195696   -8.4464992  
H    2.8714299   -2.7770826   -4.9027089  
H    2.5391736   -1.7511316   -7.1653912  
C    1.0672569   -0.0000698   -0.8321910  
C    0.0000000    0.0000000    0.0000000  
C   -1.1601223   -0.0000736   -0.8778472  
C   -0.5938729   -0.0000768   -2.2438435  
N    0.7113367   -0.0001553   -2.2234123  
C   -1.4286985   -0.0001877   -3.4135239  
C   -2.7683113   -0.0006798   -3.2270524  
O   -3.6653902   -0.0008302   -4.2276970  
C   -3.3702024   -0.0010610   -1.8610774  
O   -4.5974910   -0.0013779   -1.7662963  
C   -2.4926825   -0.0008943   -0.6770658  
H   -4.5324245   -0.0012258   -3.7833954  
H   -2.9677772   -0.0012974    0.2947961  
H    2.1134391   -0.0000547   -0.5705119  
C    2.5128556    2.1077716    2.9199648  
C    1.9592212    1.6432552    4.0696553  
C    0.8915788    0.7479214    3.6910360  
C    0.8684491    0.7287414    2.2159470  
N    1.8754542    1.5738793    1.8102719  
C    0.0000000    0.0000000    1.4700000  
C   -0.9772830   -0.8200135    2.1664417  
O   -1.8021297   -1.5120829    1.5842315  
C   -0.9711318   -0.8147624    3.7284083  
O   -1.7894187   -1.5009653    4.3257297  
C    0.0140216    0.0115358    4.4216297  
H    2.2638494    1.8988021    5.0689105  
H    0.0117648    0.0094386    5.5031631  
H    3.3327358    2.7953732    2.7900019  
H    2.1123206    1.7707734    0.8551938  
