44
4A 5B 20B 34B 39B 14 11 27 41 43 1 7 7 7 4 2 1 2 0 nosym
C    3.4548275   -0.7035789   -2.8642458  
C    2.5562217   -0.0001540   -3.6003003  
C    3.3073788    0.7404850   -4.5862272  
C    4.7274414    0.4084870   -4.3626454  
N    4.7488622   -0.4709612   -3.3048164  
C    5.7576435    0.9069213   -5.0919957  
C    5.4471106    1.8322883   -6.1689359  
O    6.3047237    2.3356824   -6.8826551  
C    3.9500519    2.1981730   -6.4233951  
O    3.6764169    2.9764385   -7.3271026  
C    2.9278439    1.5963824   -5.5708751  
H    6.7923185    0.6503647   -4.9116181  
H    1.8936590    1.8547411   -5.7537312  
H    3.2806108   -1.3721679   -2.0368844  
H    5.5768194   -0.8822064   -2.9144172  
C    0.0000000    0.0000000    0.0000000  
C    1.0541688   -0.0001718   -0.8560391  
C    0.5103141   -0.0000448   -2.1935955  
C   -0.9576367    0.0002462   -2.0455732  
N   -1.2018459   -0.0001391   -0.6915971  
C   -1.8348307    0.0008319   -3.0810611  
C   -1.2972843    0.0009743   -4.4314607  
O   -2.0050666    0.0014272   -5.4301322  
C    0.2542627    0.0004194   -4.6117573  
O    0.7184676    0.0002268   -5.7439121  
C    1.0974555    0.0000882   -3.4189128  
H    2.0940752   -0.0005478   -0.5817980  
H   -2.9081051    0.0011669   -2.9507063  
H   -2.1128195    0.0014909   -0.2706793  
C    0.0000000    0.0000000    1.4700000  
C    1.0662921    0.0000102    2.3034270  
C    0.4961870   -0.0000064    3.6418889  
C   -0.9663858    0.0000850    3.4240247  
N   -1.2632773    0.0000084    2.1528658  
C   -1.8985362    0.0000517    4.5177257  
C   -1.3925775   -0.0004564    5.7720543  
O   -2.1456383   -0.0005410    6.8851312  
C    0.0786232   -0.0009323    6.0245000  
O    0.4683759   -0.0012588    7.1921102  
C    1.0143166   -0.0008442    4.8859032  
H    2.1107198   -0.0000632    2.0421868  
H   -2.9622183    0.0003270    4.3293377  
H   -1.5042274   -0.0009692    7.6184419  
H    2.0724152   -0.0013148    5.1109744  
