44
0A 1A 10B 15A 29A 30A 39B 13 11 12 28 43 40 42 2 3 4 2 2 3 4 3 1 3 0 nosym
C    2.5586924   -2.1046957   -5.9372707  
C    1.9655214   -1.6405076   -7.0672056  
C    0.9106448   -0.7462548   -6.6520154  
C    0.9380924   -0.7273513   -5.1769968  
N    1.9592141   -1.5716012   -4.8062645  
C    0.0950452    0.0004352   -4.4015596  
C   -0.9063186    0.8196392   -5.0639120  
O   -1.7113693    1.5108234   -4.4536180  
C   -0.9537271    0.8146634   -6.6251723  
O   -1.7926628    1.5001907   -7.1939423  
C    0.0078559   -0.0105780   -7.3519365  
H    2.2359462   -1.8955920   -8.0763713  
H   -0.0314881   -0.0082964   -8.4327561  
H    3.3831960   -2.7915396   -5.8356398  
H    2.2288772   -1.7684346   -3.8599107  
C    3.3321174    0.0004718   -1.3379334  
C    2.6974185    0.0000117   -2.5332310  
C    1.2800440   -0.0002117   -2.2052839  
C    1.2395036    0.0000644   -0.7271297  
N    2.4394063    0.0005460   -0.2131035  
C    0.0000000    0.0000000    0.0000000  
C   -1.1468700    0.0000635   -0.7169545  
O   -2.3742202    0.0000073   -0.1695490  
C   -1.1388767    0.0001607   -2.2096357  
O   -2.2206230    0.0000904   -2.7970414  
C    0.1454526    0.0001816   -2.9324241  
H    3.1367988   -0.0000648   -3.5160946  
H   -2.9844344    0.0001025   -0.9290171  
H    4.3940040    0.0007621   -1.1498634  
C    2.5528530    2.1414826    2.8079335  
C    2.0663498    1.7338582    4.0032312  
C    0.9804344    0.8229586    3.6752840  
C    0.9495562    0.7966882    2.1971295  
N    1.8690446    1.5676019    1.6831036  
C    0.0000000    0.0000000    1.4700000  
C   -0.8785127   -0.7372425    2.1869543  
O   -1.8187535   -1.5261249    1.6395491  
C   -0.8723269   -0.7321790    3.6796354  
O   -1.7010379   -1.4274584    4.2670412  
C    0.1115397    0.0933559    4.4024240  
H    2.4028853    2.0163452    4.9860947  
H   -2.2861435   -1.9184361    2.3990168  
H    0.0832434    0.0693689    5.4835595  
H    3.3664920    2.8238276    2.6198634  
