48
33A 37A 38B 16A 20A 21B 46 47 45 32 28 29 2 1 7 2 1 7 3 0 3 0 nosym
C    1.1243415    0.0099154   -0.7919009  
C    0.7474086    0.0234032   -2.1148547  
C   -0.6787371    0.0234950   -2.1414700  
C   -1.1201741    0.0099356   -0.7935548  
N    0.0000000    0.0000000    0.0000000  
C   -2.4730813    0.0065397   -0.4408236  
C   -3.3971949    0.0173298   -1.4675053  
O   -4.7313511    0.0149489   -1.1793459  
C   -2.9763635    0.0305536   -2.8186319  
O   -4.0166455    0.0397857   -3.7247614  
C   -1.6418548    0.0336378   -3.1673479  
H    1.4178728    0.0310000   -2.9571213  
H   -2.8160170   -0.0039188    0.5845970  
H   -5.1938805    0.0234411   -2.0274374  
H   -3.6464652    0.0484778   -4.6127335  
H    2.1062467    0.0051380   -0.3505414  
C    1.6072290   -2.0690354   -5.4060706  
C    0.7600619   -1.6163253   -4.4212719  
C   -0.1612311   -0.7223961   -5.0431321  
C    0.1755454   -0.6689768   -6.4199593  
N    1.2548484   -1.4967110   -6.6059127  
C   -0.5252797    0.1165822   -7.3400299  
C   -1.5855809    0.8615557   -6.8615390  
O   -2.3042947    1.6457712   -7.7167992  
C   -1.9367372    0.8217963   -5.4911646  
O   -3.0155937    1.6196373   -5.1704429  
C   -1.2456309    0.0472573   -4.5828763  
H    0.8017491   -1.8951448   -3.3822746  
H    1.7090115   -1.6696790   -7.4844338  
H   -0.2735244    0.1617668   -8.3906394  
H   -2.9881066    2.0738628   -7.1853824  
H   -3.1867013    1.5351282   -4.2274773  
H    2.4358464   -2.7537950   -5.3472767  
C    2.4951002    2.0940188    2.9809380  
C    1.9440701    1.6314916    1.8291961  
C    0.8759964    0.7350050    2.2038498  
C    0.8497377    0.7130254    3.6788474  
N    1.8560616    1.5571714    4.0882609  
C   -0.0205033   -0.0168748    4.4215661  
C   -0.9962600   -0.8356168    3.7214979  
O   -1.8224391   -1.5286685    4.3006425  
C   -0.9864710   -0.8277881    2.1595606  
O   -1.8030528   -1.5133726    1.5592035  
C    0.0000000    0.0000000    1.4700000  
H    2.2509283    1.8888011    0.8310761  
H   -0.0229599   -0.0187323    5.5027230  
H    3.3143982    2.7817323    3.1139444  
H    2.0889452    1.7545833    5.0442112  
