44
1A 10B 30A 39B 11 13 40 42 3 4 3 4 2 0 2 0 nosym
C    4.4172842   -0.7258057   -4.2518393  
C    4.7211091   -0.5093464   -5.5575617  
C    3.7392625    0.4168844   -6.0703081  
C    2.8320290    0.7245239   -4.9482222  
N    3.2973504   -0.0000931   -3.8752375  
C    1.7688997    1.5643128   -5.0270543  
C    1.5001372    2.2079719   -6.3022035  
O    0.5666464    2.9807397   -6.4746170  
C    2.4478318    1.8965334   -7.5041542  
O    2.2313218    2.4322979   -8.5827361  
C    3.5614791    0.9742677   -7.2966257  
H    5.5395127   -0.9485552   -6.0997101  
H    1.1159218    1.7764239   -4.1918662  
H    4.2131098    0.7640852   -8.1338370  
H    4.9171781   -1.3545935   -3.5330755  
C    3.3321173    0.0004715   -1.3379333  
C    2.6974184    0.0000117   -2.5332310  
C    1.2800439   -0.0002118   -2.2052839  
C    1.2395035    0.0000643   -0.7271293  
N    2.4394063    0.0005460   -0.2131035  
C    0.0000000    0.0000000    0.0000000  
C   -1.1468702    0.0000634   -0.7169541  
O   -2.3742202    0.0000072   -0.1695491  
C   -1.1388767    0.0001606   -2.2096353  
O   -2.2206230    0.0000901   -2.7970412  
C    0.1454525    0.0001815   -2.9324239  
H   -2.9844345    0.0001024   -0.9290167  
H    0.1083577    0.0003682   -4.0135594  
H    4.3940039    0.0007620   -1.1498632  
C    0.8681109    0.7263879    2.2709268  
C    0.6127770    0.5096195    3.5869401  
C   -0.4920590   -0.4175482    3.6542670  
C   -0.8620974   -0.7254003    2.2596025  
N    0.0000000    0.0000000    1.4700000  
C   -1.8641242   -1.5660088    1.8976294  
C   -2.6293522   -2.2103885    2.9520183  
O   -3.5512764   -2.9839180    2.7283916  
C   -2.2549728   -1.8987399    4.4361073  
O   -2.8923672   -2.4351063    5.3323774  
C   -1.1543735   -0.9755647    4.7012123  
H    1.1382914    0.9492124    4.4159191  
H   -2.1192137   -1.7782617    0.8686553  
H   -0.9013378   -0.7652422    5.7314848  
H    1.6172880    1.3558399    1.8188057  
