44
0A 1A 10B 15A 29A 34B 13 11 12 27 43 41 2 3 4 2 2 7 3 1 2 0 nosym
C    2.5250693   -2.1043384   -5.8790417  
C    1.9676429   -1.6402809   -7.0270842  
C    0.9000731   -0.7462066   -6.6452973  
C    0.8811185   -0.7272655   -5.1701455  
N    1.8902260   -1.5713255   -4.7674616  
C    0.0139740    0.0003882   -4.4216236  
C   -0.9662106    0.8193993   -5.1151614  
O   -1.7901774    1.5104538   -4.5305051  
C   -0.9644973    0.8143805   -6.6771402  
O   -1.7852533    1.4997460   -7.2720302  
C    0.0196112   -0.0107060   -7.3732829  
H    2.2697149   -1.8953397   -8.0272396  
H    0.0142751   -0.0084554   -8.4548052  
H    3.3460910   -2.7910335   -5.7515136  
H    2.1300305   -1.7680900   -3.8130902  
C    3.2798084    0.0005857   -1.4499648  
C    2.5571144    0.0005567   -2.5996554  
C    1.1637435    0.0001550   -2.2210360  
C    1.1336965   -0.0000199   -0.7459471  
N    2.4483512   -0.0001427   -0.3402718  
C    0.0000000    0.0000000    0.0000000  
C   -1.2757368   -0.0000186   -0.6964414  
O   -2.3524597   -0.0000639   -0.1142313  
C   -1.2676495   -0.0000872   -2.2584081  
O   -2.3355764   -0.0004099   -2.8557294  
C    0.0181561    0.0001761   -2.9516296  
H    2.9547355    0.0006077   -3.5989105  
H    4.3498548    0.0008614   -1.3200022  
H    2.7563628    0.0012824    0.6148063  
C    2.3971438    2.0127888    3.1728260  
C    1.9431056    1.6308205    1.9564670  
C    0.8496017    0.7127664    2.2356185  
C    0.7794028    0.6545384    3.7115134  
N    1.6840587    1.4146091    4.2663826  
C   -0.1885723   -0.1578550    4.3957118  
C   -1.0476298   -0.8789867    3.6398520  
O   -2.0015663   -1.6796266    4.1448486  
C   -1.0022026   -0.8410666    2.1483229  
O   -1.8147390   -1.5232959    1.5241687  
C    0.0000000    0.0000000    1.4700000  
H    2.3054237    1.9346118    0.9892483  
H   -0.2170646   -0.1815267    5.4753125  
H   -2.4487139   -2.0549881    3.3649027  
H    3.2048689    2.6911772    3.3971983  
