44
29A 30A 39B 0A 14A 18B 19A 42 40 41 12 27 28 26 2 3 4 2 2 1 7 3 1 3 0 nosym
C    3.2798084    0.0005856   -1.4499649  
C    2.5571145    0.0005564   -2.5996554  
C    1.1637435    0.0001547   -2.2210363  
C    1.1336965   -0.0000200   -0.7459473  
N    2.4483513   -0.0001428   -0.3402723  
C    0.0000000    0.0000000    0.0000000  
C   -1.2757369   -0.0000187   -0.6964416  
O   -2.3524596   -0.0000640   -0.1142313  
C   -1.2676495   -0.0000874   -2.2584083  
O   -2.3355762   -0.0004102   -2.8557296  
C    0.0181561    0.0001758   -2.9516298  
H    2.9547353    0.0006073   -3.5989108  
H    4.3498552    0.0008611   -1.3200024  
H    2.7563627    0.0012824    0.6148060  
C    2.5092672   -2.0880366   -5.9399680  
C    1.9605218   -1.6268628   -4.7865937  
C    0.8894591   -0.7326238   -5.1580730  
C    0.8589569   -0.7104883   -6.6329866  
N    1.8659267   -1.5524066   -7.0453882  
C   -0.0149626    0.0176437   -7.3731170  
C   -0.9904840    0.8341821   -6.6701532  
O   -1.8197972    1.5255369   -7.2468410  
C   -0.9762344    0.8261494   -5.1082512  
O   -1.7925789    1.5098877   -4.5054707  
C    0.0139739    0.0003876   -4.4216236  
H    2.2707714   -1.8836548   -3.7893895  
H   -0.0204992    0.0196517   -8.4542626  
H    3.3296618   -2.7739654   -6.0754080  
H    2.0965142   -1.7491789   -8.0020267  
C    2.5128556    2.1077716    2.9199648  
C    1.9592212    1.6432552    4.0696553  
C    0.8915788    0.7479214    3.6910360  
C    0.8684491    0.7287414    2.2159470  
N    1.8754542    1.5738793    1.8102719  
C    0.0000000    0.0000000    1.4700000  
C   -0.9772830   -0.8200135    2.1664417  
O   -1.8021297   -1.5120829    1.5842315  
C   -0.9711318   -0.8147624    3.7284083  
O   -1.7894187   -1.5009653    4.3257297  
C    0.0140216    0.0115358    4.4216297  
H    2.2638494    1.8988021    5.0689105  
H    0.0117648    0.0094386    5.5031631  
H    3.3327358    2.7953732    2.7900019  
H    2.1123206    1.7707734    0.8551938  
