46
31A 32A 41B 5A 17B 26B 44 42 43 13 27 29 2 3 4 7 3 4 3 1 2 0 nosym
C    3.3041269    0.0001177   -1.5420434  
C    2.5845370   -0.0004780   -0.3695856  
C    1.2040006   -0.0000007   -0.7283591  
C    1.1422372    0.0006038   -2.1454374  
N    2.4348634    0.0026110   -2.6077469  
C   -0.0655187    0.0008799   -2.8497915  
C   -1.2321772    0.0002326   -2.1101397  
O   -2.4392820    0.0001149   -2.7472517  
C   -1.1911209   -0.0000007   -0.6955263  
O   -2.4371523   -0.0002319   -0.1032858  
C    0.0000000    0.0000000    0.0000000  
H    3.0031535   -0.0000661    0.6222578  
H    2.7054623   -0.0071098   -3.5745264  
H   -0.1193555    0.0014846   -3.9297470  
H   -3.1132995   -0.0000646   -2.0551782  
H   -2.3200286   -0.0004070    0.8516413  
C    5.7183462    0.0008987   -0.7610768  
C    6.9697735    0.0035940   -1.2883314  
C    6.8214686    0.0054664   -2.7245896  
C    5.3706566    0.0036570   -2.9927897  
N    4.7577216    0.0005129   -1.7610467  
C    4.8178650    0.0050247   -4.2321946  
C    5.7114450    0.0082854   -5.3785096  
O    5.3110221    0.0096650   -6.5352121  
C    7.2515425    0.0099937   -5.1179312  
O    8.0137024    0.0124326   -6.0752022  
C    7.7277038    0.0085531   -3.7369459  
H    7.8915738    0.0040189   -0.7343474  
H    3.7509358    0.0037838   -4.4070375  
H    8.7954977    0.0099563   -3.5650787  
H    5.4170511   -0.0010552    0.2738660  
C    2.5128556    2.1077716    2.9199648  
C    1.9592212    1.6432552    4.0696553  
C    0.8915788    0.7479214    3.6910360  
C    0.8684491    0.7287414    2.2159470  
N    1.8754542    1.5738793    1.8102719  
C    0.0000000    0.0000000    1.4700000  
C   -0.9772830   -0.8200135    2.1664417  
O   -1.8021297   -1.5120829    1.5842315  
C   -0.9711318   -0.8147624    3.7284083  
O   -1.7894187   -1.5009653    4.3257297  
C    0.0140216    0.0115358    4.4216297  
H    2.2638494    1.8988021    5.0689105  
H    0.0117648    0.0094386    5.5031631  
H    3.3327358    2.7953732    2.7900019  
H    2.1123206    1.7707734    0.8551938  
