44
0A 1A 10B 34B 39B 13 11 12 41 43 2 3 4 7 4 3 0 2 0 nosym
C    6.1842680   -2.1064481   -4.1727570  
C    6.1478042   -1.6423485   -5.4484360  
C    5.0181327   -0.7476334   -5.5387854  
C    4.3949980   -0.7283624   -4.2015785  
N    5.1492018   -1.5728623   -3.4199865  
C    3.2973504   -0.0000931   -3.8752375  
C    2.6889607    0.8192797   -4.9101412  
O    1.6979620    1.5108916   -4.7154741  
C    3.3320443    0.8139210   -6.3335950  
O    2.8284244    1.4995863   -7.2130782  
C    4.5147674   -0.0118307   -6.5641416  
H    6.8338547   -1.8977820   -6.2362822  
H    4.9540982   -0.0098120   -7.5524272  
H    6.8800805   -2.7935444   -3.7192890  
H    4.9757634   -1.7695449   -2.4513369  
C    3.3321173    0.0004715   -1.3379333  
C    2.6974184    0.0000117   -2.5332310  
C    1.2800439   -0.0002118   -2.2052839  
C    1.2395035    0.0000643   -0.7271293  
N    2.4394063    0.0005460   -0.2131035  
C    0.0000000    0.0000000    0.0000000  
C   -1.1468702    0.0000634   -0.7169541  
O   -2.3742202    0.0000072   -0.1695491  
C   -1.1388767    0.0001606   -2.2096353  
O   -2.2206230    0.0000901   -2.7970412  
C    0.1454525    0.0001815   -2.9324239  
H   -2.9844345    0.0001024   -0.9290167  
H    0.1083577    0.0003682   -4.0135594  
H    4.3940039    0.0007620   -1.1498632  
C    0.0000000    0.0000000    1.4700000  
C    1.0662921    0.0000102    2.3034270  
C    0.4961870   -0.0000064    3.6418889  
C   -0.9663858    0.0000850    3.4240247  
N   -1.2632773    0.0000084    2.1528658  
C   -1.8985362    0.0000517    4.5177257  
C   -1.3925775   -0.0004564    5.7720543  
O   -2.1456383   -0.0005410    6.8851312  
C    0.0786232   -0.0009323    6.0245000  
O    0.4683759   -0.0012588    7.1921102  
C    1.0143166   -0.0008442    4.8859032  
H    2.1107198   -0.0000632    2.0421868  
H   -2.9622183    0.0003270    4.3293377  
H   -1.5042274   -0.0009692    7.6184419  
H    2.0724152   -0.0013148    5.1109744  
