44
0A 4A 5B 15A 29A 30A 39B 13 14 12 28 43 40 42 2 1 7 2 2 3 4 3 1 3 0 nosym
C    2.1473371   -2.0926192   -5.9901683  
C    1.6357178   -1.6303822   -4.8202719  
C    0.5546351   -0.7348943   -5.1582033  
C    0.4777937   -0.7131847   -6.6314354  
N    1.4702303   -1.5565174   -7.0750003  
C   -0.4180468    0.0158283   -7.3439767  
C   -1.3699453    0.8338324   -6.6109733  
O   -2.2161080    1.5260627   -7.1615419  
C   -1.3065950    0.8262739   -5.0502887  
O   -2.1027136    1.5112429   -4.4223775  
C   -0.2963293   -0.0005341   -4.3948471  
H    1.9768483   -1.8872553   -3.8332259  
H   -0.4575773    0.0175026   -8.4244131  
H    2.9621981   -2.7796368   -6.1510962  
H    1.6703706   -1.7538853   -8.0383470  
C    3.1301146   -0.0010313   -1.7028256  
C    2.5367765   -0.0002766   -0.4864669  
C    1.1089901    0.0001027   -0.7656184  
C    1.0177865   -0.0004150   -2.2415133  
N    2.1993571   -0.0011612   -2.7963824  
C   -0.2459219   -0.0002879   -2.9257116  
C   -1.3675326   -0.0000606   -2.1698520  
O   -2.6129318    0.0000865   -2.6748483  
C   -1.3083588    0.0000910   -0.6783229  
O   -2.3693264    0.0004206   -0.0541685  
C    0.0000000    0.0000000    0.0000000  
H    3.0096016   -0.0001007    0.4807518  
H   -3.1967444    0.0002093   -1.8949026  
H    4.1849275   -0.0015114   -1.9271979  
C    2.5528530    2.1414826    2.8079335  
C    2.0663498    1.7338582    4.0032312  
C    0.9804344    0.8229586    3.6752840  
C    0.9495562    0.7966882    2.1971295  
N    1.8690446    1.5676019    1.6831036  
C    0.0000000    0.0000000    1.4700000  
C   -0.8785127   -0.7372425    2.1869543  
O   -1.8187535   -1.5261249    1.6395491  
C   -0.8723269   -0.7321790    3.6796354  
O   -1.7010379   -1.4274584    4.2670412  
C    0.1115397    0.0933559    4.4024240  
H    2.4028853    2.0163452    4.9860947  
H   -2.2861435   -1.9184361    2.3990168  
H    0.0832434    0.0693689    5.4835595  
H    3.3664920    2.8238276    2.6198634  
