44
5B 10B 15A 33A 34B 12 13 28 43 40 7 4 2 1 7 2 1 2 0 nosym
C   -0.2963294   -0.0005341   -4.3948471  
C    0.7278651   -0.0010066   -5.2865309  
C    0.1384641   -0.0010229   -6.6046519  
C   -1.3235476   -0.0004883   -6.4063792  
N   -1.5211838   -0.0006102   -5.0448251  
C   -2.2357334    0.0000547   -7.4111783  
C   -1.7448094   -0.0001096   -8.7792175  
O   -2.4864208    0.0002814   -9.7530304  
C   -0.2003575   -0.0009260   -9.0126110  
O    0.2247518   -0.0013775  -10.1600176  
C    0.6832431   -0.0011828   -7.8493818  
H    1.7765636   -0.0014916   -5.0481108  
H   -3.3039065    0.0005714   -7.2440967  
H    1.7513078   -0.0015433   -8.0195610  
H   -2.4171880    0.0012263   -4.5929169  
C    3.1301143   -0.0010313   -1.7028257  
C    2.5367765   -0.0002767   -0.4864669  
C    1.1089900    0.0001027   -0.7656184  
C    1.0177864   -0.0004150   -2.2415133  
N    2.1993571   -0.0011613   -2.7963824  
C   -0.2459220   -0.0002879   -2.9257116  
C   -1.3675327   -0.0000606   -2.1698519  
O   -2.6129319    0.0000866   -2.6748482  
C   -1.3083588    0.0000910   -0.6783229  
O   -2.3693264    0.0004206   -0.0541685  
C    0.0000000    0.0000000    0.0000000  
H    3.0096014   -0.0001008    0.4807517  
H   -3.1967445    0.0002093   -1.8949025  
H    4.1849272   -0.0015113   -1.9271980  
C    0.8400945    0.7047457    2.2710304  
C    0.0000000    0.0000000    1.4700000  
C   -0.8844236   -0.7423113    2.3369512  
C   -0.4878984   -0.4098547    3.7186280  
N    0.5629682    0.4714286    3.6095011  
C   -1.0836927   -0.9095027    4.8308716  
C   -2.1891196   -1.8367527    4.6554461  
O   -2.7906899   -2.3413415    5.5944904  
C   -2.6257283   -2.2031529    3.2011665  
O   -3.5549479   -2.9829990    3.0410059  
C   -1.9068976   -1.5999348    2.0816745  
H   -0.7774656   -0.6525820    5.8354244  
H   -2.2155208   -1.8586617    1.0779135  
H    1.6384792    1.3747609    1.9961646  
H    1.0518368    0.8833920    4.3830260  
