46
31A 32A 41B 5B 21B 26B 44 42 43 13 28 29 2 3 4 7 7 4 3 1 2 0 nosym
C    3.3041269    0.0001177   -1.5420434  
C    2.5845370   -0.0004780   -0.3695856  
C    1.2040006   -0.0000007   -0.7283591  
C    1.1422372    0.0006038   -2.1454374  
N    2.4348634    0.0026110   -2.6077469  
C   -0.0655187    0.0008799   -2.8497915  
C   -1.2321772    0.0002326   -2.1101397  
O   -2.4392820    0.0001149   -2.7472517  
C   -1.1911209   -0.0000007   -0.6955263  
O   -2.4371523   -0.0002319   -0.1032858  
C    0.0000000    0.0000000    0.0000000  
H    3.0031535   -0.0000661    0.6222578  
H    2.7054623   -0.0071098   -3.5745264  
H   -0.1193555    0.0014846   -3.9297470  
H   -3.1132995   -0.0000646   -2.0551782  
H   -2.3200286   -0.0004070    0.8516413  
C    4.7577216    0.0005129   -1.7610467  
C    5.7612599   -0.0009798   -0.8461782  
C    7.0028639    0.0003065   -1.5832345  
C    6.6377953    0.0027173   -3.0127482  
N    5.2625469    0.0023274   -3.0525140  
C    7.5310406    0.0048717   -4.0344197  
C    8.9464538    0.0045859   -3.7040576  
O    9.8285332    0.0063484   -4.5527234  
C    9.3558913    0.0017970   -2.1966895  
O   10.5445699    0.0012257   -1.9063367  
C    8.3019797   -0.0000950   -1.1851961  
H    5.6450064   -0.0029593    0.2229780  
H    7.2422420    0.0067505   -5.0762936  
H    8.5938431   -0.0018163   -0.1437850  
H    4.7106076    0.0051846   -3.8906084  
C    2.5128556    2.1077716    2.9199648  
C    1.9592212    1.6432552    4.0696553  
C    0.8915788    0.7479214    3.6910360  
C    0.8684491    0.7287414    2.2159470  
N    1.8754542    1.5738793    1.8102719  
C    0.0000000    0.0000000    1.4700000  
C   -0.9772830   -0.8200135    2.1664417  
O   -1.8021297   -1.5120829    1.5842315  
C   -0.9711318   -0.8147624    3.7284083  
O   -1.7894187   -1.5009653    4.3257297  
C    0.0140216    0.0115358    4.4216297  
H    2.2638494    1.8988021    5.0689105  
H    0.0117648    0.0094386    5.5031631  
H    3.3327358    2.7953732    2.7900019  
H    2.1123206    1.7707734    0.8551938  
