44
5B 10B 20B 29A 30A 39B 12 13 27 42 40 41 7 4 7 2 3 4 2 1 3 0 nosym
C    2.4521484    0.0014841   -3.7217480  
C    3.5087823    0.0024554   -2.8687539  
C    4.7039150    0.0027664   -3.6789964  
C    4.2537134    0.0019196   -5.0840258  
N    2.8785579    0.0007667   -5.0411849  
C    5.0840341    0.0023143   -6.1574657  
C    6.5167231    0.0034370   -5.9126439  
O    7.3462795    0.0038067   -6.8127188  
C    7.0158847    0.0040951   -4.4325623  
O    8.2198459    0.0047344   -4.2140696  
C    6.0245772    0.0038617   -3.3596409  
H    3.4569034    0.0027206   -1.7945464  
H    4.7332290    0.0018077   -7.1801315  
H    6.3784131    0.0045264   -2.3376216  
H    2.2773155    0.0015476   -5.8446493  
C    0.0000000    0.0000000    0.0000000  
C    1.0662924   -0.0000101   -0.8334268  
C    0.4961874    0.0000066   -2.1718888  
C   -0.9663853   -0.0000848   -1.9540251  
N   -1.2632772   -0.0000083   -0.6828659  
C   -1.8985358   -0.0000514   -3.0477261  
C   -1.3925768    0.0004568   -4.3020545  
O   -2.1456376    0.0005413   -5.4151313  
C    0.0786241    0.0009326   -4.5545000  
O    0.4683768    0.0012593   -5.7221102  
C    1.0143172    0.0008444   -3.4159030  
H    2.1107200    0.0000634   -0.5721863  
H   -2.9622180   -0.0003268   -2.8593381  
H   -1.5042264    0.0009696   -6.1484423  
C    3.2798086   -0.0005857    2.9199648  
C    2.5571146   -0.0005566    4.0696553  
C    1.1637436   -0.0001548    3.6910360  
C    1.1336965    0.0000200    2.2159470  
N    2.4483514    0.0001428    1.8102719  
C    0.0000000    0.0000000    1.4700000  
C   -1.2757367    0.0000186    2.1664417  
O   -2.3524596    0.0000640    1.5842315  
C   -1.2676493    0.0000873    3.7284083  
O   -2.3355761    0.0004100    4.3257297  
C    0.0181563   -0.0001760    4.4216297  
H    2.9547357   -0.0006076    5.0689105  
H    0.0150794   -0.0003319    5.5031631  
H    4.3498549   -0.0008612    2.7900019  
H    2.7563627   -0.0012824    0.8551938  
