44
5B 10B 15A 29A 33A 34B 12 13 27 42 43 41 7 4 2 2 1 7 2 1 3 0 nosym
C    0.0139745    0.0003876   -4.4216236  
C    1.0657033    0.0015279   -5.2806581  
C    0.5180454    0.0012341   -6.6166623  
C   -0.9494778   -0.0001518   -6.4644643  
N   -1.1898330   -0.0010076   -5.1097989  
C   -1.8296142   -0.0004063   -7.4974523  
C   -1.2959122    0.0005366   -8.8493765  
O   -2.0065329    0.0003351   -9.8460295  
C    0.2551151    0.0017576   -9.0340855  
O    0.7160971    0.0022516  -10.1675559  
C    1.1016980    0.0022057   -7.8436446  
H    2.1063851    0.0022853   -5.0093770  
H   -2.9025130   -0.0013006   -7.3640448  
H    2.1745859    0.0032572   -7.9801516  
H   -2.0996068   -0.0004654   -4.6862910  
C    3.2798088    0.0005856   -1.4499645  
C    2.5571147    0.0005564   -2.5996552  
C    1.1637438    0.0001547   -2.2210359  
C    1.1336966   -0.0000200   -0.7459470  
N    2.4483516   -0.0001428   -0.3402716  
C    0.0000000    0.0000000    0.0000000  
C   -1.2757366   -0.0000187   -0.6964415  
O   -2.3524596   -0.0000640   -0.1142315  
C   -1.2676492   -0.0000874   -2.2584082  
O   -2.3355759   -0.0004102   -2.8557296  
C    0.0181564    0.0001758   -2.9516296  
H    2.9547358    0.0006073   -3.5989103  
H    4.3498553    0.0008611   -1.3200018  
H    2.7563628    0.0012824    0.6148065  
C    2.4951002    2.0940188    2.9809380  
C    1.9440701    1.6314916    1.8291961  
C    0.8759964    0.7350050    2.2038498  
C    0.8497377    0.7130254    3.6788474  
N    1.8560616    1.5571714    4.0882609  
C   -0.0205033   -0.0168748    4.4215661  
C   -0.9962600   -0.8356168    3.7214979  
O   -1.8224391   -1.5286685    4.3006425  
C   -0.9864710   -0.8277881    2.1595606  
O   -1.8030528   -1.5133726    1.5592035  
C    0.0000000    0.0000000    1.4700000  
H    2.2509283    1.8888011    0.8310761  
H   -0.0229599   -0.0187323    5.5027230  
H    3.3143982    2.7817323    3.1139444  
H    2.0889452    1.7545833    5.0442112  
