44
1A 10B 29A 30A 39B 11 13 43 40 42 3 4 2 3 4 2 0 3 0 nosym
C    4.4172842   -0.7258057   -4.2518393  
C    4.7211091   -0.5093464   -5.5575617  
C    3.7392625    0.4168844   -6.0703081  
C    2.8320290    0.7245239   -4.9482222  
N    3.2973504   -0.0000931   -3.8752375  
C    1.7688997    1.5643128   -5.0270543  
C    1.5001372    2.2079719   -6.3022035  
O    0.5666464    2.9807397   -6.4746170  
C    2.4478318    1.8965334   -7.5041542  
O    2.2313218    2.4322979   -8.5827361  
C    3.5614791    0.9742677   -7.2966257  
H    5.5395127   -0.9485552   -6.0997101  
H    1.1159218    1.7764239   -4.1918662  
H    4.2131098    0.7640852   -8.1338370  
H    4.9171781   -1.3545935   -3.5330755  
C    3.3321173    0.0004715   -1.3379333  
C    2.6974184    0.0000117   -2.5332310  
C    1.2800439   -0.0002118   -2.2052839  
C    1.2395035    0.0000643   -0.7271293  
N    2.4394063    0.0005460   -0.2131035  
C    0.0000000    0.0000000    0.0000000  
C   -1.1468702    0.0000634   -0.7169541  
O   -2.3742202    0.0000072   -0.1695491  
C   -1.1388767    0.0001606   -2.2096353  
O   -2.2206230    0.0000901   -2.7970412  
C    0.1454525    0.0001815   -2.9324239  
H   -2.9844345    0.0001024   -0.9290167  
H    0.1083577    0.0003682   -4.0135594  
H    4.3940039    0.0007620   -1.1498632  
C    2.5528530    2.1414826    2.8079335  
C    2.0663498    1.7338582    4.0032312  
C    0.9804344    0.8229586    3.6752840  
C    0.9495562    0.7966882    2.1971295  
N    1.8690446    1.5676019    1.6831036  
C    0.0000000    0.0000000    1.4700000  
C   -0.8785127   -0.7372425    2.1869543  
O   -1.8187535   -1.5261249    1.6395491  
C   -0.8723269   -0.7321790    3.6796354  
O   -1.7010379   -1.4274584    4.2670412  
C    0.1115397    0.0933559    4.4024240  
H    2.4028853    2.0163452    4.9860947  
H   -2.2861435   -1.9184361    2.3990168  
H    0.0832434    0.0693689    5.4835595  
H    3.3664920    2.8238276    2.6198634  
