48
38B 43B 10A 16A 17B 26B 45 46 15 32 27 31 7 4 4 2 3 4 2 1 3 0 nosym
C    0.0000000    0.0000000    0.0000000  
C    1.0521663   -0.0011902   -0.8862345  
C    0.4917214   -0.0011957   -2.1979134  
C   -0.9187430    0.0003148   -2.0478682  
N   -1.1833173   -0.0009412   -0.7007911  
C   -1.7951704    0.0010350   -3.1372089  
C   -1.2375842    0.0005225   -4.4010423  
O   -2.0474221    0.0015360   -5.4997574  
C    0.1673576   -0.0013567   -4.5711965  
O    0.5673515   -0.0020688   -5.8915554  
C    1.0325766   -0.0023413   -3.4969893  
H    2.0953056   -0.0030649   -0.6200564  
H   -2.0989777    0.0102372   -0.2891822  
H   -1.4634892    0.0006498   -6.2693592  
H    1.5290704   -0.0033153   -5.9180050  
H    2.1042142   -0.0039610   -3.6584459  
C   -4.4707109    2.1246525   -0.3281853  
C   -5.6599901    1.6263874   -0.8075741  
C   -5.3396942    0.7516100   -1.8877479  
C   -3.9276530    0.7558436   -2.0220873  
N   -3.4313379    1.6012525   -1.0610604  
C   -3.2578657    0.0024039   -2.9908504  
C   -4.0275277   -0.7696041   -3.8392617  
O   -3.4247833   -1.5249880   -4.8031640  
C   -5.4376976   -0.7867693   -3.7211788  
O   -6.0624818   -1.6048900   -4.6396926  
C   -6.0991481   -0.0435243   -2.7658798  
H   -6.6381343    1.8650161   -0.4264135  
H   -2.4588395    1.7971149   -0.9065737  
H   -4.1335874   -1.9789648   -5.2772602  
H   -7.0119724   -1.5591007   -4.4914531  
H   -7.1803454   -0.0767265   -2.6996341  
H   -4.2817180    2.8130888    0.4776039  
C    0.0000000    0.0000000    1.4700000  
C    1.0541688    0.0001722    2.3260392  
C    0.5103138    0.0000454    3.6635956  
C   -0.9576371   -0.0002459    3.5155732  
N   -1.2018458    0.0001392    2.1615969  
C   -1.8348311   -0.0008317    4.5510609  
C   -1.2972847   -0.0009736    5.9014604  
O   -2.0050672   -0.0014265    6.9001319  
C    0.2542623   -0.0004184    6.0817573  
O    0.7184670   -0.0002256    7.2139121  
C    1.0974552   -0.0000873    4.8889129  
H    2.0940752    0.0005483    2.0517982  
H   -2.9081052   -0.0011668    4.4207061  
H    2.1707277    0.0000911    5.0223670  
H   -2.1128194   -0.0014912    1.7406791  
