48
33A 37A 38B 16A 17A 26B 46 47 45 32 27 31 2 1 7 2 3 4 3 0 3 0 nosym
C    3.3003551    0.0005277   -1.4738980  
C    2.5232820    0.0003498   -2.6090740  
C    1.1623207   -0.0001318   -2.1820099  
C    1.1711887    0.0000584   -0.7636138  
N    2.4852302   -0.0014919   -0.3662352  
C    0.0000000    0.0000000    0.0000000  
C   -1.2020382    0.0000521   -0.6806482  
O   -2.3759248    0.0003494    0.0157741  
C   -1.2314651   -0.0005111   -2.0955511  
O   -2.5054381   -0.0008036   -2.6250184  
C   -0.0764509   -0.0007271   -2.8495194  
H    2.8036266    0.0088182    0.5858670  
H   -3.0835635    0.0000348   -0.6418822  
H   -2.4360036   -0.0011526   -3.5845927  
H   -0.1304085   -0.0013419   -3.9319086  
H    4.3715552    0.0004895   -1.3667123  
C    5.9080455   -2.1212789   -4.5066905  
C    5.7372502   -1.6233277   -5.7776512  
C    4.6108303   -0.7493042   -5.7345063  
C    4.1315416   -0.7536527   -4.3995197  
N    4.9405892   -1.5984031   -3.6808710  
C    3.0267445   -0.0008950   -3.9901692  
C    2.3944499    0.7705367   -4.9458228  
O    1.3109376    1.5252432   -4.6002324  
C    2.8575152    0.7878056   -6.2830179  
O    2.1214428    1.6052993   -7.1156313  
C    3.9471980    0.0452332   -6.6876204  
H    6.3485809   -1.8616771   -6.6311484  
H    4.8499644   -1.7941735   -2.7003392  
H    1.0265043    1.9789022   -5.4043194  
H    2.4998696    1.5596274   -7.9989841  
H    4.2786876    0.0784980   -7.7188758  
H    6.6425538   -2.8091595   -4.1242292  
C    2.4951002    2.0940188    2.9809380  
C    1.9440701    1.6314916    1.8291961  
C    0.8759964    0.7350050    2.2038498  
C    0.8497377    0.7130254    3.6788474  
N    1.8560616    1.5571714    4.0882609  
C   -0.0205033   -0.0168748    4.4215661  
C   -0.9962600   -0.8356168    3.7214979  
O   -1.8224391   -1.5286685    4.3006425  
C   -0.9864710   -0.8277881    2.1595606  
O   -1.8030528   -1.5133726    1.5592035  
C    0.0000000    0.0000000    1.4700000  
H    2.2509283    1.8888011    0.8310761  
H   -0.0229599   -0.0187323    5.5027230  
H    3.3143982    2.7817323    3.1139444  
H    2.0889452    1.7545833    5.0442112  
