46
32A 41B 5A 20B 21B 42 44 13 30 27 3 4 7 1 7 2 1 2 0 nosym
C    3.3041269    0.0001177   -1.5420434  
C    2.5845370   -0.0004780   -0.3695856  
C    1.2040006   -0.0000007   -0.7283591  
C    1.1422372    0.0006038   -2.1454374  
N    2.4348634    0.0026110   -2.6077469  
C   -0.0655187    0.0008799   -2.8497915  
C   -1.2321772    0.0002326   -2.1101397  
O   -2.4392820    0.0001149   -2.7472517  
C   -1.1911209   -0.0000007   -0.6955263  
O   -2.4371523   -0.0002319   -0.1032858  
C    0.0000000    0.0000000    0.0000000  
H    3.0031535   -0.0000661    0.6222578  
H    2.7054623   -0.0071098   -3.5745264  
H   -0.1193555    0.0014846   -3.9297470  
H   -3.1132995   -0.0000646   -2.0551782  
H   -2.3200286   -0.0004070    0.8516413  
C    5.7131790    0.0002337   -0.7960719  
C    4.7577216    0.0005129   -1.7610467  
C    5.4429748    0.0015564   -3.0319767  
C    6.8863233    0.0018354   -2.7261412  
N    6.9827411    0.0013997   -1.3537007  
C    7.8703100    0.0023646   -3.6607399  
C    7.4818865    0.0029066   -5.0613336  
O    8.2934741    0.0034657   -5.9776444  
C    5.9589199    0.0028754   -5.4082901  
O    5.6198168    0.0036355   -6.5839900  
C    4.9917262    0.0019987   -4.3135818  
H    8.9232043    0.0024312   -3.4151319  
H    3.9391682    0.0017775   -4.5622707  
H    5.5966607   -0.0005086    0.2755216  
H    7.8428781   -0.0001033   -0.8367773  
C    0.8681109    0.7263879    2.2709268  
C    0.6127770    0.5096195    3.5869401  
C   -0.4920590   -0.4175482    3.6542670  
C   -0.8620974   -0.7254003    2.2596025  
N    0.0000000    0.0000000    1.4700000  
C   -1.8641242   -1.5660088    1.8976294  
C   -2.6293522   -2.2103885    2.9520183  
O   -3.5512764   -2.9839180    2.7283916  
C   -2.2549728   -1.8987399    4.4361073  
O   -2.8923672   -2.4351063    5.3323774  
C   -1.1543735   -0.9755647    4.7012123  
H    1.1382914    0.9492124    4.4159191  
H   -2.1192137   -1.7782617    0.8686553  
H   -0.9013378   -0.7652422    5.7314848  
H    1.6172880    1.3558399    1.8188057  
