44
5B 10B 34B 12 13 40 7 4 7 2 0 1 0 nosym
C    2.8699642   -0.0020523   -4.0185824  
C    4.1345928   -0.0034097   -4.5133419  
C    4.0234318   -0.0053868   -5.9529511  
C    2.5800290   -0.0050385   -6.2585304  
N    1.9354847   -0.0033853   -5.0430266  
C    2.0594328   -0.0061339   -7.5117993  
C    2.9823228   -0.0079910   -8.6346558  
O    2.6119075   -0.0091437   -9.8013136  
C    4.5151775   -0.0086429   -8.3343882  
O    5.3018071   -0.0105101   -9.2716568  
C    4.9555130   -0.0070565   -6.9415666  
H    5.0417779   -0.0032476   -3.9357363  
H    0.9973741   -0.0057233   -7.7141388  
H    6.0185130   -0.0073151   -6.7421805  
H    0.9396381   -0.0012173   -4.9192021  
C    3.2573670   -0.0002919   -1.5109381  
C    2.5379468   -0.0001709   -0.3591962  
C    1.1435042    0.0000332   -0.7338498  
C    1.1092608   -0.0000081   -2.2088474  
N    2.4227562    0.0001911   -2.6182609  
C   -0.0265531   -0.0002522   -2.9515663  
C   -1.3003034   -0.0002638   -2.2514980  
O   -2.3786783   -0.0004131   -2.8306426  
C   -1.2877724    0.0000312   -0.6895608  
O   -2.3539957    0.0003306   -0.0892036  
C    0.0000000    0.0000000    0.0000000  
H    2.9384090   -0.0000367    0.6389241  
H   -0.0296290   -0.0004083   -4.0327231  
H    4.3270393   -0.0004763   -1.6439444  
C    0.8175213    0.6860729    2.3021913  
C    0.0000000    0.0000000    1.4700000  
C   -0.8887526   -0.7456559    2.3478473  
C   -0.4549825   -0.3816753    3.7138435  
N    0.5448156    0.4573574    3.6934124  
C   -1.0945674   -0.9182058    4.8835240  
C   -2.1210866   -1.7789155    4.6970523  
O   -2.8083856   -2.3554314    5.6976972  
C   -2.5824069   -2.1655116    3.3310774  
O   -3.5227682   -2.9541547    3.2362962  
C   -1.9100805   -1.6015804    2.1470656  
H   -0.7567140   -0.6349833    5.8697035  
H   -3.4728268   -2.9124471    5.2533954  
H   -2.2742832   -1.9066565    1.1752040  
H    1.6189533    1.3585343    2.0405121  
