44
5B 10B 29A 34B 12 13 43 41 7 4 2 7 2 0 2 0 nosym
C   -1.0641738    0.0073906   -4.6315339  
C    0.2004552    0.0088979   -5.1262927  
C    0.0892947    0.0106780   -6.5659022  
C   -1.3541077    0.0101093   -6.8714825  
N   -1.9986520    0.0076984   -5.6559799  
C   -1.8747039    0.0117729   -8.1247508  
C   -0.9518134    0.0140655   -9.2476063  
O   -1.3222287    0.0156192  -10.4142638  
C    0.5810413    0.0144531   -8.9473384  
O    1.3676714    0.0160694   -9.8846070  
C    1.0213763    0.0128063   -7.5545167  
H    1.1076399    0.0085942   -4.5486869  
H   -2.9367624    0.0114478   -8.3270906  
H    2.0843758    0.0132924   -7.3551293  
H   -2.9945003    0.0083290   -5.5321521  
C    1.1319247    0.0015654   -0.8009270  
C    0.7969914    0.0034942   -2.1169404  
C   -0.6453340    0.0035709   -2.1842672  
C   -1.1266834    0.0015432   -0.7896027  
N    0.0000000    0.0000000    0.0000000  
C   -2.4346131    0.0013964   -0.4276296  
C   -3.4350111    0.0031407   -1.4820182  
O   -4.6384613    0.0030972   -1.2583918  
C   -2.9478960    0.0050503   -2.9661074  
O   -3.7809382    0.0062216   -3.8623774  
C   -1.5113824    0.0053087   -3.2312125  
H    1.4821236    0.0045405   -2.9459194  
H   -2.7664566    0.0000231    0.6013448  
H    2.1104318    0.0009391   -0.3488059  
C    2.3971438    2.0127888    3.1728260  
C    1.9431056    1.6308205    1.9564670  
C    0.8496017    0.7127664    2.2356185  
C    0.7794028    0.6545384    3.7115134  
N    1.6840587    1.4146091    4.2663826  
C   -0.1885723   -0.1578550    4.3957118  
C   -1.0476298   -0.8789867    3.6398520  
O   -2.0015663   -1.6796266    4.1448486  
C   -1.0022026   -0.8410666    2.1483229  
O   -1.8147390   -1.5232959    1.5241687  
C    0.0000000    0.0000000    1.4700000  
H    2.3054237    1.9346118    0.9892483  
H   -0.2170646   -0.1815267    5.4753125  
H   -2.4487139   -2.0549881    3.3649027  
H    3.2048689    2.6911772    3.3971983  
