46
31A 35A 36B 0B 21B 26A 44 45 43 15 28 29 2 1 7 2 7 4 3 1 2 0 nosym
C    3.3003543    0.0005277   -1.4738990  
C    2.5232811    0.0003499   -2.6090749  
C    1.1623199   -0.0001317   -2.1820104  
C    1.1711881    0.0000584   -0.7636144  
N    2.4852300   -0.0014918   -0.3662360  
C    0.0000000    0.0000000    0.0000000  
C   -1.2020384    0.0000520   -0.6806478  
O   -2.3759250    0.0003494    0.0157748  
C   -1.2314658   -0.0005111   -2.0955509  
O   -2.5054391   -0.0008036   -2.6250178  
C   -0.0764518   -0.0007271   -2.8495195  
H    2.8919951   -0.0005617   -3.6205306  
H    2.8036264    0.0088181    0.5858657  
H   -3.0835640    0.0000348   -0.6418817  
H   -2.4360050   -0.0011525   -3.5845919  
H    4.3715549    0.0004896   -1.3667139  
C   -0.1496418   -0.0015610   -4.3176961  
C    0.8605983   -0.0020140   -5.2251594  
C    0.2508219   -0.0027517   -6.5339791  
C   -1.2079384   -0.0026616   -6.3130521  
N   -1.3844308   -0.0023260   -4.9485962  
C   -2.1356006   -0.0028337   -7.3035804  
C   -1.6659561   -0.0033534   -8.6790694  
O   -2.4225838   -0.0036046   -9.6412625  
C   -0.1253102   -0.0037094   -8.9363927  
O    0.2819499   -0.0044543  -10.0902551  
C    0.7762277   -0.0032000   -7.7870096  
H    1.9128690   -0.0020325   -5.0030345  
H   -3.2010534   -0.0026331   -7.1199509  
H    1.8415244   -0.0032456   -7.9737357  
H   -2.2733180   -0.0006338   -4.4828445  
C    2.4951002    2.0940188    2.9809380  
C    1.9440701    1.6314916    1.8291961  
C    0.8759964    0.7350050    2.2038498  
C    0.8497377    0.7130254    3.6788474  
N    1.8560616    1.5571714    4.0882609  
C   -0.0205033   -0.0168748    4.4215661  
C   -0.9962600   -0.8356168    3.7214979  
O   -1.8224391   -1.5286685    4.3006425  
C   -0.9864710   -0.8277881    2.1595606  
O   -1.8030528   -1.5133726    1.5592035  
C    0.0000000    0.0000000    1.4700000  
H    2.2509283    1.8888011    0.8310761  
H   -0.0229599   -0.0187323    5.5027230  
H    3.3143982    2.7817323    3.1139444  
H    2.0889452    1.7545833    5.0442112  
