44
0A 4A 5B 29A 30A 39B 13 14 12 43 40 42 2 1 7 2 3 4 3 0 3 0 nosym
C    2.0683304   -2.0904429   -5.1158917  
C    1.0946576   -1.6288415   -4.2894774  
C    0.2713680   -0.7336496   -5.0677200  
C    0.8493397   -0.7114210   -6.4250127  
N    1.9361820   -1.5542010   -6.3877881  
C    0.3570788    0.0175080   -7.4584763  
C   -0.8204474    0.8348675   -7.2178704  
O   -1.3391945    1.5269729   -8.0840066  
C   -1.4489542    0.8267520   -5.7879333  
O   -2.4403050    1.5111764   -5.5733482  
C   -0.8287665    0.0000939   -4.7555305  
H    0.9677678   -1.8859493   -3.2529408  
H    0.7960719    0.0195696   -8.4464992  
H    2.8714299   -2.7770826   -4.9027089  
H    2.5391736   -1.7511316   -7.1653912  
C    1.0672569   -0.0000698   -0.8321910  
C    0.0000000    0.0000000    0.0000000  
C   -1.1601223   -0.0000736   -0.8778472  
C   -0.5938729   -0.0000768   -2.2438435  
N    0.7113367   -0.0001553   -2.2234123  
C   -1.4286985   -0.0001877   -3.4135239  
C   -2.7683113   -0.0006798   -3.2270524  
O   -3.6653902   -0.0008302   -4.2276970  
C   -3.3702024   -0.0010610   -1.8610774  
O   -4.5974910   -0.0013779   -1.7662963  
C   -2.4926825   -0.0008943   -0.6770658  
H   -4.5324245   -0.0012258   -3.7833954  
H   -2.9677772   -0.0012974    0.2947961  
H    2.1134391   -0.0000547   -0.5705119  
C    2.5528530    2.1414826    2.8079335  
C    2.0663498    1.7338582    4.0032312  
C    0.9804344    0.8229586    3.6752840  
C    0.9495562    0.7966882    2.1971295  
N    1.8690446    1.5676019    1.6831036  
C    0.0000000    0.0000000    1.4700000  
C   -0.8785127   -0.7372425    2.1869543  
O   -1.8187535   -1.5261249    1.6395491  
C   -0.8723269   -0.7321790    3.6796354  
O   -1.7010379   -1.4274584    4.2670412  
C    0.1115397    0.0933559    4.4024240  
H    2.4028853    2.0163452    4.9860947  
H   -2.2861435   -1.9184361    2.3990168  
H    0.0832434    0.0693689    5.4835595  
H    3.3664920    2.8238276    2.6198634  
