44
0A 4A 5B 15A 34B 39B 13 14 12 28 41 43 2 1 7 2 7 4 3 1 2 0 nosym
C    2.5409851   -2.0883887   -5.9976699  
C    2.0288636   -1.6271501   -4.8275992  
C    0.9468077   -0.7327108   -5.1651928  
C    0.8699425   -0.7105287   -6.6384166  
N    1.8632956   -1.5526141   -7.0822996  
C   -0.0266905    0.0177786   -7.3506829  
C   -0.9794778    0.8344703   -6.6173709  
O   -1.8263931    1.5259879   -7.1676784  
C   -0.9161191    0.8263914   -5.0566893  
O   -1.7129821    1.5102574   -4.4285198  
C    0.0950452    0.0004352   -4.4015596  
H    2.3702734   -1.8840246   -3.8406502  
H   -0.0662229    0.0198178   -8.4311186  
H    3.3565929   -2.7744591   -6.1588569  
H    2.0636503   -1.7494005   -8.0457207  
C    3.3321174    0.0004718   -1.3379334  
C    2.6974185    0.0000117   -2.5332310  
C    1.2800440   -0.0002117   -2.2052839  
C    1.2395036    0.0000644   -0.7271297  
N    2.4394063    0.0005460   -0.2131035  
C    0.0000000    0.0000000    0.0000000  
C   -1.1468700    0.0000635   -0.7169545  
O   -2.3742202    0.0000073   -0.1695490  
C   -1.1388767    0.0001607   -2.2096357  
O   -2.2206230    0.0000904   -2.7970414  
C    0.1454526    0.0001816   -2.9324241  
H    3.1367988   -0.0000648   -3.5160946  
H   -2.9844344    0.0001025   -0.9290171  
H    4.3940040    0.0007621   -1.1498634  
C    0.0000000    0.0000000    1.4700000  
C    1.0662921    0.0000102    2.3034270  
C    0.4961870   -0.0000064    3.6418889  
C   -0.9663858    0.0000850    3.4240247  
N   -1.2632773    0.0000084    2.1528658  
C   -1.8985362    0.0000517    4.5177257  
C   -1.3925775   -0.0004564    5.7720543  
O   -2.1456383   -0.0005410    6.8851312  
C    0.0786232   -0.0009323    6.0245000  
O    0.4683759   -0.0012588    7.1921102  
C    1.0143166   -0.0008442    4.8859032  
H    2.1107198   -0.0000632    2.0421868  
H   -2.9622183    0.0003270    4.3293377  
H   -1.5042274   -0.0009692    7.6184419  
H    2.0724152   -0.0013148    5.1109744  
