44
29A 30A 39B 5A 14A 18B 19B 42 40 41 12 27 28 26 2 3 4 7 2 1 7 3 1 3 0 nosym
C    3.2573672   -0.0002920   -1.5109379  
C    2.5379469   -0.0001709   -0.3591960  
C    1.1435044    0.0000331   -0.7338498  
C    1.1092608   -0.0000083   -2.2088475  
N    2.4227563    0.0001909   -2.6182608  
C   -0.0265531   -0.0002524   -2.9515661  
C   -1.3003038   -0.0002640   -2.2514979  
O   -2.3786783   -0.0004133   -2.8306426  
C   -1.2877724    0.0000311   -0.6895607  
O   -2.3539956    0.0003306   -0.0892035  
C    0.0000000    0.0000000    0.0000000  
H    2.9384089   -0.0000367    0.6389238  
H   -0.0296289   -0.0004086   -4.0327230  
H    2.7280494   -0.0013407   -3.5742114  
C    6.6174606    0.0016340    1.3537086  
C    5.3857494    0.0013496    0.7819028  
C    5.5854751    0.0003217   -0.6481124  
C    7.0449751   -0.0000008   -0.8640985  
N    7.6133368    0.0012283    0.3888398  
C    7.6418663   -0.0013232   -2.0828781  
C    6.7899769   -0.0022818   -3.2605103  
O    7.2316316   -0.0034333   -4.4021059  
C    5.2415224   -0.0017089   -3.0553434  
O    4.5141884   -0.0021996   -4.0393381  
C    4.7161333   -0.0005435   -1.6923255  
H    4.4446711    0.0019900    1.3024654  
H    8.7143821   -0.0016669   -2.2193375  
H    6.8814409    0.0023226    2.3987942  
H    8.5996521   -0.0002111    0.5738435  
C    2.5128556    2.1077716    2.9199648  
C    1.9592212    1.6432552    4.0696553  
C    0.8915788    0.7479214    3.6910360  
C    0.8684491    0.7287414    2.2159470  
N    1.8754542    1.5738793    1.8102719  
C    0.0000000    0.0000000    1.4700000  
C   -0.9772830   -0.8200135    2.1664417  
O   -1.8021297   -1.5120829    1.5842315  
C   -0.9711318   -0.8147624    3.7284083  
O   -1.7894187   -1.5009653    4.3257297  
C    0.0140216    0.0115358    4.4216297  
H    2.2638494    1.8988021    5.0689105  
H    0.0117648    0.0094386    5.5031631  
H    3.3327358    2.7953732    2.7900019  
H    2.1123206    1.7707734    0.8551938  
