44
5B 10B 15A 33A 34B 12 13 28 43 40 7 4 2 1 7 2 1 2 0 nosym
C    0.0950451    0.0004353   -4.4015596  
C    1.1192395    0.0014133   -5.2932433  
C    0.5298386    0.0012537   -6.6113644  
C   -0.9321728    0.0001235   -6.4130918  
N   -1.1298085   -0.0007275   -5.0515379  
C   -1.8443588    0.0000537   -7.4178909  
C   -1.3534352    0.0009398   -8.7859299  
O   -2.0950466    0.0008920   -9.7597428  
C    0.1910167    0.0018912   -9.0193234  
O    0.6161260    0.0023352  -10.1667299  
C    1.0746172    0.0021561   -7.8560941  
H    2.1679378    0.0019788   -5.0548232  
H   -2.9125317   -0.0006543   -7.2508094  
H    2.1426818    0.0030214   -8.0262731  
H   -2.0258140   -0.0000360   -4.5996293  
C    3.3321174    0.0004715   -1.3379334  
C    2.6974186    0.0000117   -2.5332311  
C    1.2800441   -0.0002117   -2.2052840  
C    1.2395035    0.0000644   -0.7271298  
N    2.4394064    0.0005460   -0.2131035  
C    0.0000000    0.0000000    0.0000000  
C   -1.1468700    0.0000635   -0.7169545  
O   -2.3742202    0.0000072   -0.1695490  
C   -1.1388767    0.0001607   -2.2096356  
O   -2.2206230    0.0000906   -2.7970413  
C    0.1454525    0.0001817   -2.9324241  
H    3.1367988   -0.0000649   -3.5160947  
H   -2.9844345    0.0001026   -0.9290170  
H    4.3940040    0.0007620   -1.1498635  
C    0.8400945    0.7047457    2.2710304  
C    0.0000000    0.0000000    1.4700000  
C   -0.8844236   -0.7423113    2.3369512  
C   -0.4878984   -0.4098547    3.7186280  
N    0.5629682    0.4714286    3.6095011  
C   -1.0836927   -0.9095027    4.8308716  
C   -2.1891196   -1.8367527    4.6554461  
O   -2.7906899   -2.3413415    5.5944904  
C   -2.6257283   -2.2031529    3.2011665  
O   -3.5549479   -2.9829990    3.0410059  
C   -1.9068976   -1.5999348    2.0816745  
H   -0.7774656   -0.6525820    5.8354244  
H   -2.2155208   -1.8586617    1.0779135  
H    1.6384792    1.3747609    1.9961646  
H    1.0518368    0.8833920    4.3830260  
