44
33A 34B 15A 24B 43 40 25 27 1 7 3 4 2 0 2 0 nosym
C    3.2798086    0.0005858   -1.4499646  
C    2.5571145    0.0005567   -2.5996553  
C    1.1637436    0.0001549   -2.2210360  
C    1.1336963   -0.0000199   -0.7459471  
N    2.4483514   -0.0001427   -0.3402720  
C    0.0000000    0.0000000    0.0000000  
C   -1.2757367   -0.0000186   -0.6964417  
O   -2.3524597   -0.0000640   -0.1142315  
C   -1.2676494   -0.0000872   -2.2584082  
O   -2.3355761   -0.0004100   -2.8557297  
C    0.0181560    0.0001762   -2.9516297  
H    0.0150792    0.0003321   -4.0331631  
H    4.3498549    0.0008613   -1.3200019  
H    2.7563626    0.0012824    0.6148062  
C    4.2042273   -0.7245771   -4.3883877  
C    4.4532752   -0.5080832   -5.7056503  
C    3.4504652    0.4176287   -6.1771004  
C    2.5906261    0.7249259   -5.0182060  
N    3.1006058    0.0006265   -3.9654949  
C    1.5247264    1.5641940   -5.0527252  
C    1.2027501    2.2076134   -6.3156102  
O    0.2625104    2.9799147   -6.4490277  
C    2.0996894    1.8965295   -7.5559857  
O    1.8381634    2.4320968   -8.6246450  
C    3.2214659    0.9748203   -7.3949816  
H    5.2485912   -0.9469428   -6.2814012  
H    0.9070138    1.7760612   -4.1910680  
H    3.8377473    0.7648809   -8.2586046  
H    4.7339429   -1.3530611   -3.6910368  
C    0.8400945    0.7047457    2.2710304  
C    0.0000000    0.0000000    1.4700000  
C   -0.8844236   -0.7423113    2.3369512  
C   -0.4878984   -0.4098547    3.7186280  
N    0.5629682    0.4714286    3.6095011  
C   -1.0836927   -0.9095027    4.8308716  
C   -2.1891196   -1.8367527    4.6554461  
O   -2.7906899   -2.3413415    5.5944904  
C   -2.6257283   -2.2031529    3.2011665  
O   -3.5549479   -2.9829990    3.0410059  
C   -1.9068976   -1.5999348    2.0816745  
H   -0.7774656   -0.6525820    5.8354244  
H   -2.2155208   -1.8586617    1.0779135  
H    1.6384792    1.3747609    1.9961646  
H    1.0518368    0.8833920    4.3830260  
