44
4A 5B 34B 39B 14 11 41 43 1 7 7 4 2 0 2 0 nosym
C    2.8285900   -0.7061763   -3.3536581  
C    1.6707639   -0.0012345   -3.2725973  
C    1.5413728    0.7389933   -4.5055432  
C    2.7272136    0.4051008   -5.3173857  
N    3.4676735   -0.4749401   -4.5623114  
C    2.9765560    0.9026379   -6.5551211  
C    2.0127661    1.8289694   -7.1256947  
O    2.1473183    2.3316733   -8.2336140  
C    0.7497780    2.1968609   -6.2834825  
O   -0.0684716    2.9759519   -6.7533179  
C    0.5906505    1.5958918   -4.9616028  
H    3.8525472    0.6446917   -7.1339240  
H   -0.2866830    1.8556406   -4.3849396  
H    3.2688578   -1.3749902   -2.6320340  
H    4.3372615   -0.8874290   -4.8464188  
C    1.0965515    0.0001358   -0.8010305  
C    0.0000000    0.0000000    0.0000000  
C   -1.1546564    0.0001470   -0.8669509  
C   -0.6372017    0.0003518   -2.2486278  
N    0.7342868    0.0007337   -2.1395011  
C   -1.4147742    0.0001351   -3.3608713  
C   -2.8576052   -0.0001048   -3.1854458  
O   -3.6427782   -0.0002494   -4.1244899  
C   -3.4275841   -0.0000725   -1.7311663  
O   -4.6406831    0.0000333   -1.5710053  
C   -2.4891868   -0.0001090   -0.6116741  
H   -1.0150454    0.0001614   -4.3654241  
H   -2.8919123   -0.0002920    0.3920869  
H    2.1388270    0.0000662   -0.5261648  
C    0.0000000    0.0000000    1.4700000  
C    1.0662921    0.0000102    2.3034270  
C    0.4961870   -0.0000064    3.6418889  
C   -0.9663858    0.0000850    3.4240247  
N   -1.2632773    0.0000084    2.1528658  
C   -1.8985362    0.0000517    4.5177257  
C   -1.3925775   -0.0004564    5.7720543  
O   -2.1456383   -0.0005410    6.8851312  
C    0.0786232   -0.0009323    6.0245000  
O    0.4683759   -0.0012588    7.1921102  
C    1.0143166   -0.0008442    4.8859032  
H    2.1107198   -0.0000632    2.0421868  
H   -2.9622183    0.0003270    4.3293377  
H   -1.5042274   -0.0009692    7.6184419  
H    2.0724152   -0.0013148    5.1109744  
