48
37A 38B 10A 20B 21B 47 44 15 27 28 1 7 4 1 7 2 1 2 0 nosym
C    3.3003548    0.0005276   -1.4738982  
C    2.5232817    0.0003497   -2.6090743  
C    1.1623206   -0.0001319   -2.1820098  
C    1.1711888    0.0000583   -0.7636138  
N    2.4852302   -0.0014919   -0.3662355  
C    0.0000000    0.0000000    0.0000000  
C   -1.2020381    0.0000520   -0.6806479  
O   -2.3759246    0.0003495    0.0157742  
C   -1.2314650   -0.0005112   -2.0955510  
O   -2.5054382   -0.0008036   -2.6250182  
C   -0.0764510   -0.0007271   -2.8495193  
H    2.8919962   -0.0005619   -3.6205297  
H    2.8036267    0.0088181    0.5858667  
H   -3.0835639    0.0000348   -0.6418822  
H   -2.4360046   -0.0011526   -3.5845924  
H   -0.1304090   -0.0013420   -3.9319086  
C    5.6708528    0.0001561   -2.3611558  
C    4.7630507    0.0004755   -1.3275395  
C    5.5133489   -0.0009826   -0.1144237  
C    6.8855145   -0.0018731   -0.4737115  
N    6.9456604   -0.0030999   -1.8452063  
C    7.9149932   -0.0030749    0.4723125  
C    7.5526783   -0.0030761    1.8053188  
O    8.5177191   -0.0038720    2.7705704  
C    6.1889804   -0.0025711    2.1836636  
O    5.9909382   -0.0030669    3.5489925  
C    5.1728473   -0.0016588    1.2509268  
H    7.7894880    0.0066339   -2.3891196  
H    8.9627169   -0.0039020    0.2049647  
H    8.0554424   -0.0040214    3.6188424  
H    5.0439892   -0.0026487    3.7189659  
H    4.1374040   -0.0014715    1.5708272  
H    5.5098584    0.0005474   -3.4255993  
C    0.8400945    0.7047457    2.2710304  
C    0.0000000    0.0000000    1.4700000  
C   -0.8844236   -0.7423113    2.3369512  
C   -0.4878984   -0.4098547    3.7186280  
N    0.5629682    0.4714286    3.6095011  
C   -1.0836927   -0.9095027    4.8308716  
C   -2.1891196   -1.8367527    4.6554461  
O   -2.7906899   -2.3413415    5.5944904  
C   -2.6257283   -2.2031529    3.2011665  
O   -3.5549479   -2.9829990    3.0410059  
C   -1.9068976   -1.5999348    2.0816745  
H   -0.7774656   -0.6525820    5.8354244  
H   -2.2155208   -1.8586617    1.0779135  
H    1.6384792    1.3747609    1.9961646  
H    1.0518368    0.8833920    4.3830260  
