44
1A 10B 25B 34B 39B 11 13 28 41 42 3 4 4 7 4 2 1 2 0 nosym
C   -3.9833916    0.7253520   -1.7965128  
C   -5.3237297    0.5083675   -1.8185369  
C   -5.5825466   -0.4183014   -2.8951678  
C   -4.2737349   -0.7256252   -3.5029138  
N   -3.3460097   -0.0004262   -2.7913647  
C   -4.0919151   -1.5656735   -4.5531352  
C   -5.2634891   -2.2099646   -5.1230813  
O   -5.2039376   -2.9830067   -6.0702671  
C   -6.6595987   -1.8988693   -4.4954639  
O   -7.6532014   -2.4351661   -4.9670552  
C   -6.7288574   -0.9762756   -3.3650317  
H   -6.0484329    0.9475035   -1.1562839  
H   -3.1231596   -1.7775447   -4.9838708  
H   -7.6992492   -0.7663339   -2.9360933  
H   -3.4076524    1.3545695   -1.1373468  
C    0.0000000    0.0000000    0.0000000  
C    1.0662919   -0.0000103   -0.8334272  
C    0.4961868    0.0000066   -2.1718889  
C   -0.9663860   -0.0000849   -1.9540248  
N   -1.2632775   -0.0000084   -0.6828659  
C   -1.8985364   -0.0000515   -3.0477258  
C   -1.3925778    0.0004567   -4.3020543  
O   -2.1456385    0.0005412   -5.4151314  
C    0.0786229    0.0009326   -4.5544999  
O    0.4683756    0.0012594   -5.7221104  
C    1.0143162    0.0008443   -3.4159034  
H    2.1107195    0.0000631   -0.5721869  
H   -1.5042277    0.0009692   -6.1484420  
H    2.0724151    0.0013151   -3.6409746  
C    0.0000000    0.0000000    1.4700000  
C    1.0541688    0.0001722    2.3260392  
C    0.5103138    0.0000454    3.6635956  
C   -0.9576371   -0.0002459    3.5155732  
N   -1.2018458    0.0001392    2.1615969  
C   -1.8348311   -0.0008317    4.5510609  
C   -1.2972847   -0.0009736    5.9014604  
O   -2.0050672   -0.0014265    6.9001319  
C    0.2542623   -0.0004184    6.0817573  
O    0.7184670   -0.0002256    7.2139121  
C    1.0974552   -0.0000873    4.8889129  
H    2.0940752    0.0005483    2.0517982  
H   -2.9081052   -0.0011668    4.4207061  
H    2.1707277    0.0000911    5.0223670  
H   -2.1128194   -0.0014912    1.7406791  
