44
1A 10B 29A 33A 34B 11 13 42 43 41 3 4 2 1 7 2 0 3 0 nosym
C    0.2317316   -0.7258259   -5.1498278  
C    0.4809610   -0.5091346   -6.4670236  
C   -0.5210737    0.4175617   -6.9381879  
C   -1.3806556    0.7252216   -5.7791989  
N   -0.8712826    0.0001710   -4.7267111  
C   -2.4458521    1.5653922   -5.8134599  
C   -2.7672893    2.2094701   -7.0761466  
O   -3.7068826    2.9825997   -7.2093258  
C   -1.8706103    1.8980177   -8.3166179  
O   -2.1316878    2.4341328   -9.3851116  
C   -0.7496064    0.9753202   -8.1558970  
H    1.2759092   -0.9484824   -7.0429093  
H   -3.0633872    1.7775108   -4.9517372  
H   -0.1335002    0.7651310   -9.0195859  
H    0.7609210   -1.3549681   -4.4526705  
C    1.0965514    0.0001359   -0.8010305  
C    0.0000000    0.0000000    0.0000000  
C   -1.1546563    0.0001470   -0.8669513  
C   -0.6372014    0.0003519   -2.2486282  
N    0.7342871    0.0007337   -2.1395014  
C   -1.4147739    0.0001352   -3.3608717  
C   -2.8576049   -0.0001048   -3.1854462  
O   -3.6427779   -0.0002494   -4.1244907  
C   -3.4275840   -0.0000725   -1.7311666  
O   -4.6406831    0.0000333   -1.5710060  
C   -2.4891867   -0.0001091   -0.6116744  
H   -2.8919122   -0.0002918    0.3920866  
H    2.1388272    0.0000663   -0.5261648  
H    1.3735872   -0.0006099   -2.9130262  
C    2.4951002    2.0940188    2.9809380  
C    1.9440701    1.6314916    1.8291961  
C    0.8759964    0.7350050    2.2038498  
C    0.8497377    0.7130254    3.6788474  
N    1.8560616    1.5571714    4.0882609  
C   -0.0205033   -0.0168748    4.4215661  
C   -0.9962600   -0.8356168    3.7214979  
O   -1.8224391   -1.5286685    4.3006425  
C   -0.9864710   -0.8277881    2.1595606  
O   -1.8030528   -1.5133726    1.5592035  
C    0.0000000    0.0000000    1.4700000  
H    2.2509283    1.8888011    0.8310761  
H   -0.0229599   -0.0187323    5.5027230  
H    3.3143982    2.7817323    3.1139444  
H    2.0889452    1.7545833    5.0442112  
