44
29A 30A 39B 10A 14A 15B 24B 42 40 41 12 27 25 26 2 3 4 4 2 3 4 3 1 3 0 nosym
C    3.2798086    0.0005856   -1.4499647  
C    2.5571145    0.0005565   -2.5996553  
C    1.1637436    0.0001547   -2.2210360  
C    1.1336964   -0.0000200   -0.7459470  
N    2.4483513   -0.0001429   -0.3402720  
C    0.0000000    0.0000000    0.0000000  
C   -1.2757371   -0.0000187   -0.6964417  
O   -2.3524597   -0.0000640   -0.1142316  
C   -1.2676493   -0.0000874   -2.2584081  
O   -2.3355762   -0.0004102   -2.8557296  
C    0.0181561    0.0001758   -2.9516297  
H    2.9547354    0.0006074   -3.5989102  
H    0.0150792    0.0003317   -4.0331628  
H    2.7563626    0.0012823    0.6148063  
C    6.5739160    0.0018720   -4.3537887  
C    7.6280848    0.0019469   -3.4977496  
C    7.0842295    0.0017736   -2.1601931  
C    5.6162785    0.0015611   -2.3082157  
N    5.3720699    0.0020315   -3.6621919  
C    4.7390845    0.0009613   -1.2727278  
C    5.2766310    0.0007200    0.0776717  
O    4.5688486    0.0002470    1.0763432  
C    6.8281782    0.0011906    0.2579685  
O    7.2923830    0.0012994    1.3901234  
C    7.6713713    0.0015459   -0.9348758  
H    8.6679907    0.0022877   -3.7719906  
H    8.7446443    0.0016653   -0.8014216  
H    6.5739159    0.0019306   -5.4316987  
H    4.4610965    0.0004679   -4.0831095  
C    2.5128556    2.1077716    2.9199648  
C    1.9592212    1.6432552    4.0696553  
C    0.8915788    0.7479214    3.6910360  
C    0.8684491    0.7287414    2.2159470  
N    1.8754542    1.5738793    1.8102719  
C    0.0000000    0.0000000    1.4700000  
C   -0.9772830   -0.8200135    2.1664417  
O   -1.8021297   -1.5120829    1.5842315  
C   -0.9711318   -0.8147624    3.7284083  
O   -1.7894187   -1.5009653    4.3257297  
C    0.0140216    0.0115358    4.4216297  
H    2.2638494    1.8988021    5.0689105  
H    0.0117648    0.0094386    5.5031631  
H    3.3327358    2.7953732    2.7900019  
H    2.1123206    1.7707734    0.8551938  
