48
33A 37A 38B 10A 16A 20B 21B 46 47 45 15 32 28 29 2 1 7 4 2 1 7 3 1 3 0 nosym
C    3.3003548    0.0005276   -1.4738982  
C    2.5232817    0.0003497   -2.6090743  
C    1.1623206   -0.0001319   -2.1820098  
C    1.1711888    0.0000583   -0.7636138  
N    2.4852302   -0.0014919   -0.3662355  
C    0.0000000    0.0000000    0.0000000  
C   -1.2020381    0.0000520   -0.6806479  
O   -2.3759246    0.0003495    0.0157742  
C   -1.2314650   -0.0005112   -2.0955510  
O   -2.5054382   -0.0008036   -2.6250182  
C   -0.0764510   -0.0007271   -2.8495193  
H    2.8919962   -0.0005619   -3.6205297  
H    2.8036267    0.0088181    0.5858667  
H   -3.0835639    0.0000348   -0.6418822  
H   -2.4360046   -0.0011526   -3.5845924  
H   -0.1304090   -0.0013420   -3.9319086  
C    6.6264025    0.0032394   -4.4617167  
C    5.3881254    0.0032372   -3.8624360  
C    5.6076651    0.0015204   -2.4530392  
C    7.0115531    0.0008109   -2.2504938  
N    7.6002636   -0.0000640   -3.4906696  
C    7.5921590   -0.0005634   -0.9786120  
C    6.7400256   -0.0009266    0.1086074  
O    7.2537877   -0.0019040    1.3731473  
C    5.3365285   -0.0006068   -0.0730884  
O    4.6231713   -0.0014619    1.1077861  
C    4.7630507    0.0004755   -1.3275395  
H    4.4428895    0.0032323   -4.3777241  
H    8.5891809    0.0098630   -3.6636590  
H    8.6613878   -0.0012540   -0.8175189  
H    6.4980460   -0.0022990    1.9749100  
H    3.6846508   -0.0011489    0.8961679  
H    6.8919807    0.0038903   -5.5049936  
C    2.4951002    2.0940188    2.9809380  
C    1.9440701    1.6314916    1.8291961  
C    0.8759964    0.7350050    2.2038498  
C    0.8497377    0.7130254    3.6788474  
N    1.8560616    1.5571714    4.0882609  
C   -0.0205033   -0.0168748    4.4215661  
C   -0.9962600   -0.8356168    3.7214979  
O   -1.8224391   -1.5286685    4.3006425  
C   -0.9864710   -0.8277881    2.1595606  
O   -1.8030528   -1.5133726    1.5592035  
C    0.0000000    0.0000000    1.4700000  
H    2.2509283    1.8888011    0.8310761  
H   -0.0229599   -0.0187323    5.5027230  
H    3.3143982    2.7817323    3.1139444  
H    2.0889452    1.7545833    5.0442112  
