44
0A 4A 5B 15A 29A 30A 39B 13 14 12 28 42 40 41 2 1 7 2 2 3 4 3 1 3 0 nosym
C    2.5409851   -2.0883887   -5.9976699  
C    2.0288636   -1.6271501   -4.8275992  
C    0.9468077   -0.7327108   -5.1651928  
C    0.8699425   -0.7105287   -6.6384166  
N    1.8632956   -1.5526141   -7.0822996  
C   -0.0266905    0.0177786   -7.3506829  
C   -0.9794778    0.8344703   -6.6173709  
O   -1.8263931    1.5259879   -7.1676784  
C   -0.9161191    0.8263914   -5.0566893  
O   -1.7129821    1.5102574   -4.4285198  
C    0.0950452    0.0004352   -4.4015596  
H    2.3702734   -1.8840246   -3.8406502  
H   -0.0662229    0.0198178   -8.4311186  
H    3.3565929   -2.7744591   -6.1588569  
H    2.0636503   -1.7494005   -8.0457207  
C    3.3321174    0.0004718   -1.3379334  
C    2.6974185    0.0000117   -2.5332310  
C    1.2800440   -0.0002117   -2.2052839  
C    1.2395036    0.0000644   -0.7271297  
N    2.4394063    0.0005460   -0.2131035  
C    0.0000000    0.0000000    0.0000000  
C   -1.1468700    0.0000635   -0.7169545  
O   -2.3742202    0.0000073   -0.1695490  
C   -1.1388767    0.0001607   -2.2096357  
O   -2.2206230    0.0000904   -2.7970414  
C    0.1454526    0.0001816   -2.9324241  
H    3.1367988   -0.0000648   -3.5160946  
H   -2.9844344    0.0001025   -0.9290171  
H    4.3940040    0.0007621   -1.1498634  
C    2.5128556    2.1077716    2.9199648  
C    1.9592212    1.6432552    4.0696553  
C    0.8915788    0.7479214    3.6910360  
C    0.8684491    0.7287414    2.2159470  
N    1.8754542    1.5738793    1.8102719  
C    0.0000000    0.0000000    1.4700000  
C   -0.9772830   -0.8200135    2.1664417  
O   -1.8021297   -1.5120829    1.5842315  
C   -0.9711318   -0.8147624    3.7284083  
O   -1.7894187   -1.5009653    4.3257297  
C    0.0140216    0.0115358    4.4216297  
H    2.2638494    1.8988021    5.0689105  
H    0.0117648    0.0094386    5.5031631  
H    3.3327358    2.7953732    2.7900019  
H    2.1123206    1.7707734    0.8551938  
