44
30A 39B 15A 24B 40 42 25 27 3 4 3 4 2 0 2 0 nosym
C    1.0965514    0.0001359   -0.8010305  
C    0.0000000    0.0000000    0.0000000  
C   -1.1546565    0.0001470   -0.8669508  
C   -0.6372019    0.0003521   -2.2486278  
N    0.7342868    0.0007339   -2.1395011  
C   -1.4147745    0.0001355   -3.3608712  
C   -2.8576054   -0.0001045   -3.1854454  
O   -3.6427786   -0.0002490   -4.1244897  
C   -3.4275844   -0.0000724   -1.7311659  
O   -4.6406828    0.0000334   -1.5710047  
C   -2.4891866   -0.0001090   -0.6116741  
H   -1.0150455    0.0001619   -4.3654242  
H   -2.8919121   -0.0002919    0.3920869  
H    2.1388271    0.0000663   -0.5261648  
C    2.8497499   -0.7283600   -3.3359973  
C    3.4914337   -0.5134518   -4.5133381  
C    2.6832169    0.4132002   -5.2702642  
C    1.5096736    0.7227770   -4.4313672  
N    1.6707637   -0.0012341   -3.2725974  
C    0.5071662    1.5634841   -4.7917769  
C    0.5893837    2.2061573   -6.0928331  
O   -0.2632816    2.9796310   -6.5087665  
C    1.8232399    1.8926660   -6.9978894  
O    1.9032027    2.4275868   -8.0954897  
C    2.8399720    0.9695598   -6.4999104  
H    4.4243720   -0.9539521   -4.8169814  
H   -0.3448598    1.7770164   -4.1614078  
H    3.6912431    0.7579555   -7.1325913  
H    3.1388483   -1.3569180   -2.5094220  
C    0.8681109    0.7263879    2.2709268  
C    0.6127770    0.5096195    3.5869401  
C   -0.4920590   -0.4175482    3.6542670  
C   -0.8620974   -0.7254003    2.2596025  
N    0.0000000    0.0000000    1.4700000  
C   -1.8641242   -1.5660088    1.8976294  
C   -2.6293522   -2.2103885    2.9520183  
O   -3.5512764   -2.9839180    2.7283916  
C   -2.2549728   -1.8987399    4.4361073  
O   -2.8923672   -2.4351063    5.3323774  
C   -1.1543735   -0.9755647    4.7012123  
H    1.1382914    0.9492124    4.4159191  
H   -2.1192137   -1.7782617    0.8686553  
H   -0.9013378   -0.7652422    5.7314848  
H    1.6172880    1.3558399    1.8188057  
