44
33A 34B 14A 18A 19B 43 40 27 28 26 1 7 2 1 7 2 0 3 0 nosym
C    3.2573670   -0.0002919   -1.5109382  
C    2.5379467   -0.0001709   -0.3591962  
C    1.1435041    0.0000332   -0.7338497  
C    1.1092604   -0.0000081   -2.2088473  
N    2.4227560    0.0001911   -2.6182609  
C   -0.0265535   -0.0002522   -2.9515658  
C   -1.3003039   -0.0002638   -2.2514975  
O   -2.3786791   -0.0004131   -2.8306422  
C   -1.2877728    0.0000312   -0.6895603  
O   -2.3539955    0.0003306   -0.0892030  
C    0.0000000    0.0000000    0.0000000  
H    2.9384090   -0.0000367    0.6389240  
H   -0.0296294   -0.0004083   -4.0327228  
H    4.3270395   -0.0004763   -1.6439445  
C    5.7077617   -2.0955286   -4.6950677  
C    4.8321764   -1.6318729   -3.7663867  
C    3.9281495   -0.7371773   -4.4498270  
C    4.3518498   -0.7174788   -5.8629372  
N    5.4355525   -1.5611008   -5.9452793  
C    3.7483562    0.0102946   -6.8365110  
C    2.6053637    0.8289911   -6.4679469  
O    1.9941032    1.5202157   -7.2722290  
C    2.1395165    0.8235573   -4.9770538  
O    1.1785714    1.5091258   -4.6548102  
C    2.8699637   -0.0020523   -4.0185822  
H    4.8209987   -1.8873087   -2.7217619  
H    4.0749275    0.0104992   -7.8671717  
H    6.5291168   -2.7825099   -4.5712833  
H    5.9483422   -1.7597058   -6.7847130  
C    0.8400945    0.7047457    2.2710304  
C    0.0000000    0.0000000    1.4700000  
C   -0.8844236   -0.7423113    2.3369512  
C   -0.4878984   -0.4098547    3.7186280  
N    0.5629682    0.4714286    3.6095011  
C   -1.0836927   -0.9095027    4.8308716  
C   -2.1891196   -1.8367527    4.6554461  
O   -2.7906899   -2.3413415    5.5944904  
C   -2.6257283   -2.2031529    3.2011665  
O   -3.5549479   -2.9829990    3.0410059  
C   -1.9068976   -1.5999348    2.0816745  
H   -0.7774656   -0.6525820    5.8354244  
H   -2.2155208   -1.8586617    1.0779135  
H    1.6384792    1.3747609    1.9961646  
H    1.0518368    0.8833920    4.3830260  
