44
5B 10B 15A 29A 33A 34B 12 13 27 42 43 41 7 4 2 2 1 7 2 1 3 0 nosym
C   -0.0307354   -0.0004645   -4.4215603  
C    1.0209938   -0.0006522   -5.2805949  
C    0.4733358   -0.0007744   -6.6165991  
C   -0.9941881   -0.0006124   -6.4644009  
N   -1.2345438   -0.0008269   -5.1097353  
C   -1.8743245   -0.0002661   -7.4973889  
C   -1.3406221   -0.0002641   -8.8493122  
O   -2.0512428   -0.0000281   -9.8459661  
C    0.2104057   -0.0006861   -9.0340223  
O    0.6713877   -0.0009948  -10.1674938  
C    1.0569888   -0.0007584   -7.8435816  
H    2.0616760   -0.0008820   -5.0093139  
H   -2.9472236   -0.0000223   -7.3639812  
H    2.1298771   -0.0008460   -7.9800887  
H   -2.1443165    0.0007708   -4.6862276  
C    3.2573669   -0.0002919   -1.5109381  
C    2.5379467   -0.0001709   -0.3591962  
C    1.1435042    0.0000332   -0.7338501  
C    1.1092607   -0.0000081   -2.2088477  
N    2.4227561    0.0001910   -2.6182614  
C   -0.0265534   -0.0002522   -2.9515663  
C   -1.3003036   -0.0002639   -2.2514981  
O   -2.3786785   -0.0004131   -2.8306428  
C   -1.2877726    0.0000312   -0.6895608  
O   -2.3539957    0.0003306   -0.0892035  
C    0.0000000    0.0000000    0.0000000  
H    2.9384091   -0.0000368    0.6389238  
H    4.3270391   -0.0004764   -1.6439447  
H    2.7280492   -0.0013405   -3.5742114  
C    2.4951002    2.0940188    2.9809380  
C    1.9440701    1.6314916    1.8291961  
C    0.8759964    0.7350050    2.2038498  
C    0.8497377    0.7130254    3.6788474  
N    1.8560616    1.5571714    4.0882609  
C   -0.0205033   -0.0168748    4.4215661  
C   -0.9962600   -0.8356168    3.7214979  
O   -1.8224391   -1.5286685    4.3006425  
C   -0.9864710   -0.8277881    2.1595606  
O   -1.8030528   -1.5133726    1.5592035  
C    0.0000000    0.0000000    1.4700000  
H    2.2509283    1.8888011    0.8310761  
H   -0.0229599   -0.0187323    5.5027230  
H    3.3143982    2.7817323    3.1139444  
H    2.0889452    1.7545833    5.0442112  
