48
33A 34A 43B 20A 21B 46 44 45 27 28 2 3 4 1 7 3 0 2 0 nosym
C    1.1243415    0.0099159   -0.7919008  
C    0.7474084    0.0234036   -2.1148547  
C   -0.6787372    0.0234950   -2.1414699  
C   -1.1201741    0.0099353   -0.7935545  
N    0.0000000    0.0000000    0.0000000  
C   -2.4730813    0.0065388   -0.4408235  
C   -3.3971951    0.0173288   -1.4675053  
O   -4.7313510    0.0149472   -1.1793456  
C   -2.9763637    0.0305528   -2.8186317  
O   -4.0166458    0.0397846   -3.7247611  
C   -1.6418550    0.0336375   -3.1673478  
H   -2.8160168   -0.0039199    0.5845974  
H   -5.1938811    0.0234395   -2.0274371  
H   -3.6464651    0.0484770   -4.6127333  
H   -1.3497452    0.0436785   -4.2109230  
H    2.1062467    0.0051388   -0.3505413  
C    2.8325099   -0.6837024   -3.3633899  
C    1.6628963    0.0337773   -3.2649305  
C    1.5246700    0.7730786   -4.4769235  
C    2.6494620    0.4636541   -5.2837855  
N    3.4243273   -0.4220915   -4.5769223  
C    2.8435991    1.0147375   -6.5539848  
C    1.8846451    1.8939701   -7.0182421  
O    2.0245188    2.4608233   -8.2519872  
C    0.7556089    2.2154756   -6.2278437  
O   -0.1087775    3.1064760   -6.8297557  
C    0.5635785    1.6724040   -4.9745586  
H    4.2835643   -0.8282058   -4.9005943  
H    3.6987770    0.7830874   -7.1738320  
H    1.2569322    3.0337395   -8.3778532  
H   -0.8432161    3.2699481   -6.2301887  
H   -0.3110362    1.9376811   -4.3921876  
H    3.2921329   -1.3602566   -2.6634038  
C    2.5128556    2.1077716    2.9199648  
C    1.9592212    1.6432552    4.0696553  
C    0.8915788    0.7479214    3.6910360  
C    0.8684491    0.7287414    2.2159470  
N    1.8754542    1.5738793    1.8102719  
C    0.0000000    0.0000000    1.4700000  
C   -0.9772830   -0.8200135    2.1664417  
O   -1.8021297   -1.5120829    1.5842315  
C   -0.9711318   -0.8147624    3.7284083  
O   -1.7894187   -1.5009653    4.3257297  
C    0.0140216    0.0115358    4.4216297  
H    2.2638494    1.8988021    5.0689105  
H    0.0117648    0.0094386    5.5031631  
H    3.3327358    2.7953732    2.7900019  
H    2.1123206    1.7707734    0.8551938  
