44
29A 33A 34B 0A 14A 18B 19A 42 43 41 12 27 28 26 2 1 7 2 2 1 7 3 1 3 0 nosym
C    3.2798084    0.0005856   -1.4499649  
C    2.5571145    0.0005564   -2.5996554  
C    1.1637435    0.0001547   -2.2210363  
C    1.1336965   -0.0000200   -0.7459473  
N    2.4483513   -0.0001428   -0.3402723  
C    0.0000000    0.0000000    0.0000000  
C   -1.2757369   -0.0000187   -0.6964416  
O   -2.3524596   -0.0000640   -0.1142313  
C   -1.2676495   -0.0000874   -2.2584083  
O   -2.3355762   -0.0004102   -2.8557296  
C    0.0181561    0.0001758   -2.9516298  
H    2.9547353    0.0006073   -3.5989108  
H    4.3498552    0.0008611   -1.3200024  
H    2.7563627    0.0012824    0.6148060  
C    2.5092672   -2.0880366   -5.9399680  
C    1.9605218   -1.6268628   -4.7865937  
C    0.8894591   -0.7326238   -5.1580730  
C    0.8589569   -0.7104883   -6.6329866  
N    1.8659267   -1.5524066   -7.0453882  
C   -0.0149626    0.0176437   -7.3731170  
C   -0.9904840    0.8341821   -6.6701532  
O   -1.8197972    1.5255369   -7.2468410  
C   -0.9762344    0.8261494   -5.1082512  
O   -1.7925789    1.5098877   -4.5054707  
C    0.0139739    0.0003876   -4.4216236  
H    2.2707714   -1.8836548   -3.7893895  
H   -0.0204992    0.0196517   -8.4542626  
H    3.3296618   -2.7739654   -6.0754080  
H    2.0965142   -1.7491789   -8.0020267  
C    2.4951002    2.0940188    2.9809380  
C    1.9440701    1.6314916    1.8291961  
C    0.8759964    0.7350050    2.2038498  
C    0.8497377    0.7130254    3.6788474  
N    1.8560616    1.5571714    4.0882609  
C   -0.0205033   -0.0168748    4.4215661  
C   -0.9962600   -0.8356168    3.7214979  
O   -1.8224391   -1.5286685    4.3006425  
C   -0.9864710   -0.8277881    2.1595606  
O   -1.8030528   -1.5133726    1.5592035  
C    0.0000000    0.0000000    1.4700000  
H    2.2509283    1.8888011    0.8310761  
H   -0.0229599   -0.0187323    5.5027230  
H    3.3143982    2.7817323    3.1139444  
H    2.0889452    1.7545833    5.0442112  
