48
34A 43B 17A 26B 44 46 27 31 3 4 3 4 2 0 2 0 nosym
C    1.1243415    0.0099159   -0.7919008  
C    0.7474084    0.0234036   -2.1148547  
C   -0.6787372    0.0234950   -2.1414699  
C   -1.1201741    0.0099353   -0.7935545  
N    0.0000000    0.0000000    0.0000000  
C   -2.4730813    0.0065388   -0.4408235  
C   -3.3971951    0.0173288   -1.4675053  
O   -4.7313510    0.0149472   -1.1793456  
C   -2.9763637    0.0305528   -2.8186317  
O   -4.0166458    0.0397846   -3.7247611  
C   -1.6418550    0.0336375   -3.1673478  
H   -2.8160168   -0.0039199    0.5845974  
H   -5.1938811    0.0234395   -2.0274371  
H   -3.6464651    0.0484770   -4.6127333  
H   -1.3497452    0.0436785   -4.2109230  
H    2.1062467    0.0051388   -0.3505413  
C    2.8388023   -0.6745891   -3.3474592  
C    3.4422155   -0.4130089   -4.5557368  
C    2.5991221    0.5024942   -5.2526211  
C    1.4867945    0.7658808   -4.4128110  
N    1.6628963    0.0337773   -3.2649305  
C    0.4498619    1.6290305   -4.7795965  
C    0.5375634    2.2376108   -6.0165754  
O   -0.4473456    3.0899606   -6.4245798  
C    1.6393020    1.9872129   -6.8688022  
O    1.5811198    2.6683001   -8.0671672  
C    2.6624879    1.1356032   -6.5077236  
H    4.3747241   -0.8315172   -4.8937781  
H   -0.4006967    1.8338567   -4.1441452  
H   -0.1937588    3.3992915   -7.3039399  
H    2.3616208    2.4436646   -8.5828808  
H    3.4935053    0.9632029   -7.1816424  
H    3.1534655   -1.3115159   -2.5385894  
C    0.8681109    0.7263879    2.2709268  
C    0.6127770    0.5096195    3.5869401  
C   -0.4920590   -0.4175482    3.6542670  
C   -0.8620974   -0.7254003    2.2596025  
N    0.0000000    0.0000000    1.4700000  
C   -1.8641242   -1.5660088    1.8976294  
C   -2.6293522   -2.2103885    2.9520183  
O   -3.5512764   -2.9839180    2.7283916  
C   -2.2549728   -1.8987399    4.4361073  
O   -2.8923672   -2.4351063    5.3323774  
C   -1.1543735   -0.9755647    4.7012123  
H    1.1382914    0.9492124    4.4159191  
H   -2.1192137   -1.7782617    0.8686553  
H   -0.9013378   -0.7652422    5.7314848  
H    1.6172880    1.3558399    1.8188057  
