44
0A 4A 5B 15A 34B 13 14 12 28 40 2 1 7 2 7 3 1 1 0 nosym
C    2.5409851   -2.0883887   -5.9976699  
C    2.0288636   -1.6271501   -4.8275992  
C    0.9468077   -0.7327108   -5.1651928  
C    0.8699425   -0.7105287   -6.6384166  
N    1.8632956   -1.5526141   -7.0822996  
C   -0.0266905    0.0177786   -7.3506829  
C   -0.9794778    0.8344703   -6.6173709  
O   -1.8263931    1.5259879   -7.1676784  
C   -0.9161191    0.8263914   -5.0566893  
O   -1.7129821    1.5102574   -4.4285198  
C    0.0950452    0.0004352   -4.4015596  
H    2.3702734   -1.8840246   -3.8406502  
H   -0.0662229    0.0198178   -8.4311186  
H    3.3565929   -2.7744591   -6.1588569  
H    2.0636503   -1.7494005   -8.0457207  
C    3.3321174    0.0004718   -1.3379334  
C    2.6974185    0.0000117   -2.5332310  
C    1.2800440   -0.0002117   -2.2052839  
C    1.2395036    0.0000644   -0.7271297  
N    2.4394063    0.0005460   -0.2131035  
C    0.0000000    0.0000000    0.0000000  
C   -1.1468700    0.0000635   -0.7169545  
O   -2.3742202    0.0000073   -0.1695490  
C   -1.1388767    0.0001607   -2.2096357  
O   -2.2206230    0.0000904   -2.7970414  
C    0.1454526    0.0001816   -2.9324241  
H    3.1367988   -0.0000648   -3.5160946  
H   -2.9844344    0.0001025   -0.9290171  
H    4.3940040    0.0007621   -1.1498634  
C    0.8175213    0.6860729    2.3021913  
C    0.0000000    0.0000000    1.4700000  
C   -0.8887526   -0.7456559    2.3478473  
C   -0.4549825   -0.3816753    3.7138435  
N    0.5448156    0.4573574    3.6934124  
C   -1.0945674   -0.9182058    4.8835240  
C   -2.1210866   -1.7789155    4.6970523  
O   -2.8083856   -2.3554314    5.6976972  
C   -2.5824069   -2.1655116    3.3310774  
O   -3.5227682   -2.9541547    3.2362962  
C   -1.9100805   -1.6015804    2.1470656  
H   -0.7567140   -0.6349833    5.8697035  
H   -3.4728268   -2.9124471    5.2533954  
H   -2.2742832   -1.9066565    1.1752040  
H    1.6189533    1.3585343    2.0405121  
