44
1A 10B 25B 29A 33A 34B 11 13 27 42 43 41 3 4 4 2 1 7 2 1 3 0 nosym
C   -3.9842536    0.7274606   -1.9451210  
C   -5.3215325    0.5112367   -2.0400281  
C   -5.5219226   -0.4153204   -3.1291430  
C   -4.1821622   -0.7234075   -3.6647873  
N   -3.2941076    0.0012878   -2.9038237  
C   -3.9439562   -1.5635934   -4.7035606  
C   -5.0831560   -2.2072377   -5.3363967  
O   -4.9726039   -2.9803446   -6.2789388  
C   -6.5111637   -1.8953285   -4.7856593  
O   -7.4779448   -2.4310767   -5.3106049  
C   -6.6412925   -0.9726589   -3.6606709  
H   -6.0809396    0.9508060   -1.4181815  
H   -2.9533233   -1.7760293   -5.0809567  
H   -7.6334625   -0.7621520   -3.2851587  
H   -3.4448689    1.3563726   -1.2556112  
C    0.0000000    0.0000000    0.0000000  
C    1.0541688   -0.0001723   -0.8560392  
C    0.5103136   -0.0000455   -2.1935956  
C   -0.9576373    0.0002461   -2.0455730  
N   -1.2018460   -0.0001389   -0.6915968  
C   -1.8348314    0.0008319   -3.0810607  
C   -1.2972851    0.0009739   -4.4314603  
O   -2.0050676    0.0014268   -5.4301316  
C    0.2542619    0.0004184   -4.6117572  
O    0.7184666    0.0002257   -5.7439122  
C    1.0974551    0.0000873   -3.4189129  
H    2.0940752   -0.0005484   -0.5817983  
H    2.1707276   -0.0000912   -3.5523673  
H   -2.1128194    0.0014915   -0.2706789  
C    3.2573670    0.0002920    2.9809380  
C    2.5379467    0.0001709    1.8291961  
C    1.1435042   -0.0000331    2.2038498  
C    1.1092607    0.0000083    3.6788474  
N    2.4227561   -0.0001909    4.0882609  
C   -0.0265533    0.0002524    4.4215661  
C   -1.3003036    0.0002640    3.7214979  
O   -2.3786784    0.0004133    4.3006425  
C   -1.2877726   -0.0000311    2.1595606  
O   -2.3539958   -0.0003306    1.5592035  
C    0.0000000    0.0000000    1.4700000  
H    2.9384090    0.0000368    0.8310761  
H   -0.0296291    0.0004086    5.5027230  
H    4.3270393    0.0004765    3.1139444  
H    2.7280493    0.0013407    5.0442112  
