44
0A 1A 10B 20B 29A 30A 39B 13 11 12 27 42 40 41 2 3 4 7 2 3 4 3 1 3 0 nosym
C    6.6685706   -0.0005967    0.8976879  
C    7.6427397   -0.0013905   -0.0483929  
C    6.9825040   -0.0021116   -1.3324972  
C    5.5334436   -0.0016404   -1.0549829  
N    5.4101705   -0.0011224    0.3153065  
C    4.5679461   -0.0016854   -2.0086701  
C    4.9837200   -0.0024605   -3.4013893  
O    4.1902301   -0.0026238   -4.3334164  
C    6.5131882   -0.0032215   -3.7184582  
O    6.8752474   -0.0041840   -4.8872921  
C    7.4587612   -0.0028166   -2.6050208  
H    8.7028558   -0.0016450    0.1326238  
H    8.5159868   -0.0031431   -2.8330517  
H    6.7640839    0.0001112    1.9713575  
H    4.5400776    0.0008356    0.8152882  
C    3.1301149   -0.0010311   -1.7028252  
C    2.5367768   -0.0002767   -0.4864665  
C    1.1089904    0.0001028   -0.7656183  
C    1.0177872   -0.0004148   -2.2415132  
N    2.1993578   -0.0011611   -2.7963820  
C   -0.2459209   -0.0002877   -2.9257118  
C   -1.3675319   -0.0000605   -2.1698524  
O   -2.6129313    0.0000867   -2.6748490  
C   -1.3083584    0.0000910   -0.6783232  
O   -2.3693261    0.0004206   -0.0541692  
C    0.0000000    0.0000000    0.0000000  
H    3.0096017   -0.0001007    0.4807525  
H   -0.2829630   -0.0004687   -4.0053125  
H   -3.1967441    0.0002094   -1.8949034  
C    2.5128556    2.1077716    2.9199648  
C    1.9592212    1.6432552    4.0696553  
C    0.8915788    0.7479214    3.6910360  
C    0.8684491    0.7287414    2.2159470  
N    1.8754542    1.5738793    1.8102719  
C    0.0000000    0.0000000    1.4700000  
C   -0.9772830   -0.8200135    2.1664417  
O   -1.8021297   -1.5120829    1.5842315  
C   -0.9711318   -0.8147624    3.7284083  
O   -1.7894187   -1.5009653    4.3257297  
C    0.0140216    0.0115358    4.4216297  
H    2.2638494    1.8988021    5.0689105  
H    0.0117648    0.0094386    5.5031631  
H    3.3327358    2.7953732    2.7900019  
H    2.1123206    1.7707734    0.8551938  
