46
35A 36B 0A 16A 20B 21A 45 42 15 29 30 28 1 7 2 2 1 7 2 1 3 0 nosym
C    3.3003543    0.0005277   -1.4738990  
C    2.5232811    0.0003499   -2.6090749  
C    1.1623199   -0.0001317   -2.1820104  
C    1.1711881    0.0000584   -0.7636144  
N    2.4852300   -0.0014918   -0.3662360  
C    0.0000000    0.0000000    0.0000000  
C   -1.2020384    0.0000520   -0.6806478  
O   -2.3759250    0.0003494    0.0157748  
C   -1.2314658   -0.0005111   -2.0955509  
O   -2.5054391   -0.0008036   -2.6250178  
C   -0.0764518   -0.0007271   -2.8495195  
H    2.8919951   -0.0005617   -3.6205306  
H    2.8036264    0.0088181    0.5858657  
H   -3.0835640    0.0000348   -0.6418817  
H   -2.4360050   -0.0011525   -3.5845919  
H    4.3715549    0.0004896   -1.3667139  
C    2.2697429   -2.0933928   -5.9499307  
C    1.7761645   -1.6308846   -4.7724161  
C    0.6896456   -0.7359135   -5.0938792  
C    0.5899533   -0.7148028   -6.5657508  
N    1.5756957   -1.5579533   -7.0243348  
C   -0.3170964    0.0136144   -7.2645884  
C   -1.2578067    0.8315631   -6.5172207  
O   -2.1126590    1.5232782   -7.0548622  
C   -1.1702525    0.8246325   -4.9577043  
O   -1.9567841    1.5095612   -4.3177808  
C   -0.1496418   -0.0015610   -4.3176961  
H    2.1326579   -1.8872533   -3.7906824  
H   -0.3733822    0.0148555   -8.3442836  
H    3.0822586   -2.7801823   -6.1232170  
H    1.7609405   -1.7556234   -7.9905942  
C    0.8400945    0.7047457    2.2710304  
C    0.0000000    0.0000000    1.4700000  
C   -0.8844236   -0.7423113    2.3369512  
C   -0.4878984   -0.4098547    3.7186280  
N    0.5629682    0.4714286    3.6095011  
C   -1.0836927   -0.9095027    4.8308716  
C   -2.1891196   -1.8367527    4.6554461  
O   -2.7906899   -2.3413415    5.5944904  
C   -2.6257283   -2.2031529    3.2011665  
O   -3.5549479   -2.9829990    3.0410059  
C   -1.9068976   -1.5999348    2.0816745  
H   -0.7774656   -0.6525820    5.8354244  
H   -2.2155208   -1.8586617    1.0779135  
H    1.6384792    1.3747609    1.9961646  
H    1.0518368    0.8833920    4.3830260  
