46
32A 41B 16A 17A 26B 42 44 29 27 28 3 4 2 3 4 2 0 3 0 nosym
C    3.3003551    0.0005277   -1.4738980  
C    2.5232820    0.0003498   -2.6090740  
C    1.1623207   -0.0001318   -2.1820099  
C    1.1711887    0.0000584   -0.7636138  
N    2.4852302   -0.0014919   -0.3662352  
C    0.0000000    0.0000000    0.0000000  
C   -1.2020382    0.0000521   -0.6806482  
O   -2.3759248    0.0003494    0.0157741  
C   -1.2314651   -0.0005111   -2.0955511  
O   -2.5054381   -0.0008036   -2.6250184  
C   -0.0764509   -0.0007271   -2.8495194  
H    2.8036266    0.0088182    0.5858670  
H   -3.0835635    0.0000348   -0.6418822  
H   -2.4360036   -0.0011526   -3.5845927  
H   -0.1304085   -0.0013419   -3.9319086  
H    4.3715552    0.0004895   -1.3667123  
C    5.8850908   -2.1080193   -4.4895957  
C    5.7585083   -1.6448896   -5.7598566  
C    4.6253943   -0.7500318   -5.7707345  
C    4.0984502   -0.7296200   -4.3927998  
N    4.9059591   -1.5736629   -3.6658816  
C    3.0267445   -0.0008950   -3.9901692  
C    2.3467554    0.8177995   -4.9800628  
O    1.3721086    1.5097465   -4.7162944  
C    2.8874970    0.8112304   -6.4454501  
O    2.3229952    1.4963169   -7.2876230  
C    4.0508311   -0.0149197   -6.7584720  
H    6.3870541   -1.9010552   -6.5940765  
H    4.4191258   -0.0137400   -7.7753700  
H    6.6111562   -2.7948990   -4.0859688  
H    4.8014748   -1.7695716   -2.6872346  
C    0.8681109    0.7263879    2.2709268  
C    0.6127770    0.5096195    3.5869401  
C   -0.4920590   -0.4175482    3.6542670  
C   -0.8620974   -0.7254003    2.2596025  
N    0.0000000    0.0000000    1.4700000  
C   -1.8641242   -1.5660088    1.8976294  
C   -2.6293522   -2.2103885    2.9520183  
O   -3.5512764   -2.9839180    2.7283916  
C   -2.2549728   -1.8987399    4.4361073  
O   -2.8923672   -2.4351063    5.3323774  
C   -1.1543735   -0.9755647    4.7012123  
H    1.1382914    0.9492124    4.4159191  
H   -2.1192137   -1.7782617    0.8686553  
H   -0.9013378   -0.7652422    5.7314848  
H    1.6172880    1.3558399    1.8188057  
