44
5B 10B 33A 34B 12 13 43 40 7 4 1 7 2 0 2 0 nosym
C    3.2973510   -0.0000932   -3.8752371  
C    4.6090969    0.0003110   -4.2265163  
C    4.6584754    0.0000136   -5.6695679  
C    3.2579292   -0.0005722   -6.1335295  
N    2.4824032   -0.0010085   -4.9971101  
C    2.8797129   -0.0005907   -7.4368548  
C    3.9215763   -0.0002200   -8.4502935  
O    3.6829952   -0.0002663   -9.6508676  
C    5.4116113    0.0001502   -7.9816781  
O    6.2974492    0.0001573   -8.8258055  
C    5.6945668    0.0004140   -6.5485738  
H    5.4465359    0.0005833   -3.5517504  
H    1.8466890   -0.0008953   -7.7558715  
H    6.7288539    0.0008751   -6.2323874  
H    1.4789639    0.0001010   -4.9846260  
C    3.3321177    0.0004715   -1.3379328  
C    2.6974188    0.0000116   -2.5332306  
C    1.2800443   -0.0002119   -2.2052837  
C    1.2395037    0.0000643   -0.7271292  
N    2.4394063    0.0005459   -0.2131032  
C    0.0000000    0.0000000    0.0000000  
C   -1.1468699    0.0000634   -0.7169542  
O   -2.3742202    0.0000072   -0.1695494  
C   -1.1388764    0.0001607   -2.2096355  
O   -2.2206225    0.0000904   -2.7970414  
C    0.1454529    0.0001815   -2.9324239  
H   -2.9844343    0.0001025   -0.9290170  
H    0.1083582    0.0003681   -4.0135594  
H    4.3940041    0.0007619   -1.1498627  
C    0.8400945    0.7047457    2.2710304  
C    0.0000000    0.0000000    1.4700000  
C   -0.8844236   -0.7423113    2.3369512  
C   -0.4878984   -0.4098547    3.7186280  
N    0.5629682    0.4714286    3.6095011  
C   -1.0836927   -0.9095027    4.8308716  
C   -2.1891196   -1.8367527    4.6554461  
O   -2.7906899   -2.3413415    5.5944904  
C   -2.6257283   -2.2031529    3.2011665  
O   -3.5549479   -2.9829990    3.0410059  
C   -1.9068976   -1.5999348    2.0816745  
H   -0.7774656   -0.6525820    5.8354244  
H   -2.2155208   -1.8586617    1.0779135  
H    1.6384792    1.3747609    1.9961646  
H    1.0518368    0.8833920    4.3830260  
