44
5B 10B 15A 29A 34B 12 13 28 43 41 7 4 2 2 7 2 1 2 0 nosym
C    0.0950451    0.0004353   -4.4015596  
C    1.1192395    0.0014133   -5.2932433  
C    0.5298386    0.0012537   -6.6113644  
C   -0.9321728    0.0001235   -6.4130918  
N   -1.1298085   -0.0007275   -5.0515379  
C   -1.8443588    0.0000537   -7.4178909  
C   -1.3534352    0.0009398   -8.7859299  
O   -2.0950466    0.0008920   -9.7597428  
C    0.1910167    0.0018912   -9.0193234  
O    0.6161260    0.0023352  -10.1667299  
C    1.0746172    0.0021561   -7.8560941  
H    2.1679378    0.0019788   -5.0548232  
H   -2.9125317   -0.0006543   -7.2508094  
H    2.1426818    0.0030214   -8.0262731  
H   -2.0258140   -0.0000360   -4.5996293  
C    3.3321174    0.0004715   -1.3379334  
C    2.6974186    0.0000117   -2.5332311  
C    1.2800441   -0.0002117   -2.2052840  
C    1.2395035    0.0000644   -0.7271298  
N    2.4394064    0.0005460   -0.2131035  
C    0.0000000    0.0000000    0.0000000  
C   -1.1468700    0.0000635   -0.7169545  
O   -2.3742202    0.0000072   -0.1695490  
C   -1.1388767    0.0001607   -2.2096356  
O   -2.2206230    0.0000906   -2.7970413  
C    0.1454525    0.0001817   -2.9324241  
H    3.1367988   -0.0000649   -3.5160947  
H   -2.9844345    0.0001026   -0.9290170  
H    4.3940040    0.0007620   -1.1498635  
C    2.3971438    2.0127888    3.1728260  
C    1.9431056    1.6308205    1.9564670  
C    0.8496017    0.7127664    2.2356185  
C    0.7794028    0.6545384    3.7115134  
N    1.6840587    1.4146091    4.2663826  
C   -0.1885723   -0.1578550    4.3957118  
C   -1.0476298   -0.8789867    3.6398520  
O   -2.0015663   -1.6796266    4.1448486  
C   -1.0022026   -0.8410666    2.1483229  
O   -1.8147390   -1.5232959    1.5241687  
C    0.0000000    0.0000000    1.4700000  
H    2.3054237    1.9346118    0.9892483  
H   -0.2170646   -0.1815267    5.4753125  
H   -2.4487139   -2.0549881    3.3649027  
H    3.2048689    2.6911772    3.3971983  
