44
4A 5B 34B 14 11 40 1 7 7 2 0 1 0 nosym
C    2.8285900   -0.7061763   -3.3536581  
C    1.6707639   -0.0012345   -3.2725973  
C    1.5413728    0.7389933   -4.5055432  
C    2.7272136    0.4051008   -5.3173857  
N    3.4676735   -0.4749401   -4.5623114  
C    2.9765560    0.9026379   -6.5551211  
C    2.0127661    1.8289694   -7.1256947  
O    2.1473183    2.3316733   -8.2336140  
C    0.7497780    2.1968609   -6.2834825  
O   -0.0684716    2.9759519   -6.7533179  
C    0.5906505    1.5958918   -4.9616028  
H    3.8525472    0.6446917   -7.1339240  
H   -0.2866830    1.8556406   -4.3849396  
H    3.2688578   -1.3749902   -2.6320340  
H    4.3372615   -0.8874290   -4.8464188  
C    1.0965515    0.0001358   -0.8010305  
C    0.0000000    0.0000000    0.0000000  
C   -1.1546564    0.0001470   -0.8669509  
C   -0.6372017    0.0003518   -2.2486278  
N    0.7342868    0.0007337   -2.1395011  
C   -1.4147742    0.0001351   -3.3608713  
C   -2.8576052   -0.0001048   -3.1854458  
O   -3.6427782   -0.0002494   -4.1244899  
C   -3.4275841   -0.0000725   -1.7311663  
O   -4.6406831    0.0000333   -1.5710053  
C   -2.4891868   -0.0001090   -0.6116741  
H   -1.0150454    0.0001614   -4.3654241  
H   -2.8919123   -0.0002920    0.3920869  
H    2.1388270    0.0000662   -0.5261648  
C    0.8175213    0.6860729    2.3021913  
C    0.0000000    0.0000000    1.4700000  
C   -0.8887526   -0.7456559    2.3478473  
C   -0.4549825   -0.3816753    3.7138435  
N    0.5448156    0.4573574    3.6934124  
C   -1.0945674   -0.9182058    4.8835240  
C   -2.1210866   -1.7789155    4.6970523  
O   -2.8083856   -2.3554314    5.6976972  
C   -2.5824069   -2.1655116    3.3310774  
O   -3.5227682   -2.9541547    3.2362962  
C   -1.9100805   -1.6015804    2.1470656  
H   -0.7567140   -0.6349833    5.8697035  
H   -3.4728268   -2.9124471    5.2533954  
H   -2.2742832   -1.9066565    1.1752040  
H    1.6189533    1.3585343    2.0405121  
