46
36B 41B 21B 26B 43 44 28 29 7 4 7 4 2 0 2 0 nosym
C    1.1188644    0.0008217   -0.8003807  
C    0.0000000    0.0000000    0.0000000  
C   -1.1323862    0.0008904   -0.8673526  
C   -0.6382660    0.0019682   -2.1969280  
N    0.7324018    0.0038477   -2.1202240  
C   -1.4770912    0.0027325   -3.3154810  
C   -2.8395475    0.0020958   -3.0876858  
O   -3.7039195    0.0024443   -4.1440347  
C   -3.3517868    0.0013946   -1.7684332  
O   -4.7300492    0.0012389   -1.7073123  
C   -2.5248543    0.0009136   -0.6644818  
H   -1.1067568    0.0036993   -4.3313811  
H   -4.5940030    0.0021851   -3.7685130  
H   -4.9934599    0.0007287   -0.7819913  
H   -2.9462578    0.0005617    0.3339655  
H    2.1619894    0.0009344   -0.5342067  
C    1.6478436   -0.0100108   -3.2702998  
C    3.0057455   -0.0112752   -3.2835864  
C    3.4131842   -0.0273584   -4.6687106  
C    2.1724480   -0.0353889   -5.4670212  
N    1.1381859   -0.0246258   -4.5597861  
C    2.1309629   -0.0503720   -6.8233983  
C    3.3925109   -0.0594027   -7.5451661  
O    3.4606495   -0.0730501   -8.7672430  
C    4.7187532   -0.0513870   -6.7200466  
O    5.7870058   -0.0591804   -7.3167355  
C    4.6356415   -0.0348908   -5.2617351  
H    3.6486060   -0.0021820   -2.4214604  
H    1.2100325   -0.0559126   -7.3897607  
H    5.5585010   -0.0292227   -4.6978004  
H    0.1632955   -0.0250576   -4.7977704  
C    0.0000000    0.0000000    1.4700000  
C    1.0541688    0.0001722    2.3260392  
C    0.5103138    0.0000454    3.6635956  
C   -0.9576371   -0.0002459    3.5155732  
N   -1.2018458    0.0001392    2.1615969  
C   -1.8348311   -0.0008317    4.5510609  
C   -1.2972847   -0.0009736    5.9014604  
O   -2.0050672   -0.0014265    6.9001319  
C    0.2542623   -0.0004184    6.0817573  
O    0.7184670   -0.0002256    7.2139121  
C    1.0974552   -0.0000873    4.8889129  
H    2.0940752    0.0005483    2.0517982  
H   -2.9081052   -0.0011668    4.4207061  
H    2.1707277    0.0000911    5.0223670  
H   -2.1128194   -0.0014912    1.7406791  
