44
1A 10B 25B 34B 39B 11 13 28 41 43 3 4 4 7 4 2 1 2 0 nosym
C    5.7656457   -0.0009914   -2.0564733  
C    7.0030817   -0.0024152   -1.4971656  
C    6.8178424   -0.0018253   -0.0652014  
C    5.3606048    0.0000433    0.1655482  
N    4.7795901    0.0008674   -1.0815733  
C    4.7760819    0.0006808    1.3903080  
C    5.6398487   -0.0003298    2.5592569  
O    5.2097731    0.0001946    3.7052656  
C    7.1861460   -0.0020589    2.3384253  
O    7.9234033   -0.0026143    3.3150069  
C    7.6977094   -0.0028919    0.9701584  
H    7.9388416   -0.0035464   -2.0272280  
H    3.7050037    0.0019261    1.5376174  
H    8.7695751   -0.0042941    0.8258466  
H    5.4911002   -0.0009267   -3.0988332  
C    3.3321168    0.0004716   -1.3379341  
C    2.6974177    0.0000118   -2.5332316  
C    1.2800432   -0.0002116   -2.2052842  
C    1.2395033    0.0000644   -0.7271298  
N    2.4394059    0.0005460   -0.2131041  
C    0.0000000    0.0000000    0.0000000  
C   -1.1468704    0.0000635   -0.7169542  
O   -2.3742206    0.0000074   -0.1695488  
C   -1.1388774    0.0001608   -2.2096352  
O   -2.2206238    0.0000906   -2.7970409  
C    0.1454514    0.0001818   -2.9324241  
H    3.1367978   -0.0000649   -3.5160956  
H   -2.9844350    0.0001027   -0.9290164  
H    0.1083567    0.0003684   -4.0135594  
C    0.0000000    0.0000000    1.4700000  
C    1.0662921    0.0000102    2.3034270  
C    0.4961870   -0.0000064    3.6418889  
C   -0.9663858    0.0000850    3.4240247  
N   -1.2632773    0.0000084    2.1528658  
C   -1.8985362    0.0000517    4.5177257  
C   -1.3925775   -0.0004564    5.7720543  
O   -2.1456383   -0.0005410    6.8851312  
C    0.0786232   -0.0009323    6.0245000  
O    0.4683759   -0.0012588    7.1921102  
C    1.0143166   -0.0008442    4.8859032  
H    2.1107198   -0.0000632    2.0421868  
H   -2.9622183    0.0003270    4.3293377  
H   -1.5042274   -0.0009692    7.6184419  
H    2.0724152   -0.0013148    5.1109744  
