46
32A 41B 10A 16A 20B 21B 42 44 15 29 30 28 3 4 4 2 1 7 2 1 3 0 nosym
C    3.3003548    0.0005276   -1.4738982  
C    2.5232817    0.0003497   -2.6090743  
C    1.1623206   -0.0001319   -2.1820098  
C    1.1711888    0.0000583   -0.7636138  
N    2.4852302   -0.0014919   -0.3662355  
C    0.0000000    0.0000000    0.0000000  
C   -1.2020381    0.0000520   -0.6806479  
O   -2.3759246    0.0003495    0.0157742  
C   -1.2314650   -0.0005112   -2.0955510  
O   -2.5054382   -0.0008036   -2.6250182  
C   -0.0764510   -0.0007271   -2.8495193  
H    2.8919962   -0.0005619   -3.6205297  
H    2.8036267    0.0088181    0.5858667  
H   -3.0835639    0.0000348   -0.6418822  
H   -2.4360046   -0.0011526   -3.5845924  
H   -0.1304090   -0.0013420   -3.9319086  
C    6.5907964    0.0004121   -4.4182871  
C    5.3731495    0.0003985   -3.8171127  
C    5.6071054    0.0003104   -2.3922970  
C    7.0713645    0.0003028   -2.2113675  
N    7.6095210   -0.0000325   -3.4775740  
C    7.6973069    0.0006259   -1.0072492  
C    6.8738986    0.0007803    0.1904706  
O    7.3427984    0.0010090    1.3211491  
C    5.3209699    0.0005393    0.0224896  
O    4.6174383    0.0003599    1.0236411  
C    4.7630507    0.0004755   -1.3275395  
H    4.4198604    0.0002625   -4.3149619  
H    8.7727863    0.0007440   -0.8965447  
H    6.8296426    0.0004927   -5.4694015  
H    8.5911170    0.0014368   -3.6861719  
C    0.8681109    0.7263879    2.2709268  
C    0.6127770    0.5096195    3.5869401  
C   -0.4920590   -0.4175482    3.6542670  
C   -0.8620974   -0.7254003    2.2596025  
N    0.0000000    0.0000000    1.4700000  
C   -1.8641242   -1.5660088    1.8976294  
C   -2.6293522   -2.2103885    2.9520183  
O   -3.5512764   -2.9839180    2.7283916  
C   -2.2549728   -1.8987399    4.4361073  
O   -2.8923672   -2.4351063    5.3323774  
C   -1.1543735   -0.9755647    4.7012123  
H    1.1382914    0.9492124    4.4159191  
H   -2.1192137   -1.7782617    0.8686553  
H   -0.9013378   -0.7652422    5.7314848  
H    1.6172880    1.3558399    1.8188057  
