44
4A 5B 20B 29A 30A 39B 14 11 27 42 40 41 1 7 7 2 3 4 2 1 3 0 nosym
C    5.5795939   -0.0005395   -1.1027767  
C    4.5679461   -0.0016854   -2.0086701  
C    5.1756895   -0.0033633   -3.3184336  
C    6.6347908   -0.0031284   -3.0997722  
N    6.8134018   -0.0009887   -1.7355935  
C    7.5609143   -0.0048091   -4.0917386  
C    7.0891350   -0.0067693   -5.4664951  
O    7.8442677   -0.0083103   -6.4298602  
C    5.5480911   -0.0068003   -5.7214263  
O    5.1390399   -0.0081350   -6.8746547  
C    4.6483392   -0.0051690   -4.5706463  
H    8.6266508   -0.0047317   -3.9097625  
H    3.5827535   -0.0054070   -4.7557176  
H    5.5275972    0.0008124   -0.0261227  
H    7.7030109   -0.0018797   -1.2712204  
C    3.1301149   -0.0010311   -1.7028252  
C    2.5367768   -0.0002767   -0.4864665  
C    1.1089904    0.0001028   -0.7656183  
C    1.0177872   -0.0004148   -2.2415132  
N    2.1993578   -0.0011611   -2.7963820  
C   -0.2459209   -0.0002877   -2.9257118  
C   -1.3675319   -0.0000605   -2.1698524  
O   -2.6129313    0.0000867   -2.6748490  
C   -1.3083584    0.0000910   -0.6783232  
O   -2.3693261    0.0004206   -0.0541692  
C    0.0000000    0.0000000    0.0000000  
H    3.0096017   -0.0001007    0.4807525  
H   -0.2829630   -0.0004687   -4.0053125  
H   -3.1967441    0.0002094   -1.8949034  
C    2.5128556    2.1077716    2.9199648  
C    1.9592212    1.6432552    4.0696553  
C    0.8915788    0.7479214    3.6910360  
C    0.8684491    0.7287414    2.2159470  
N    1.8754542    1.5738793    1.8102719  
C    0.0000000    0.0000000    1.4700000  
C   -0.9772830   -0.8200135    2.1664417  
O   -1.8021297   -1.5120829    1.5842315  
C   -0.9711318   -0.8147624    3.7284083  
O   -1.7894187   -1.5009653    4.3257297  
C    0.0140216    0.0115358    4.4216297  
H    2.2638494    1.8988021    5.0689105  
H    0.0117648    0.0094386    5.5031631  
H    3.3327358    2.7953732    2.7900019  
H    2.1123206    1.7707734    0.8551938  
