44
4A 5B 29A 30A 39B 14 11 42 40 41 1 7 2 3 4 2 0 3 0 nosym
C    4.3921562   -0.7036342   -4.2631882  
C    3.2973504   -0.0000931   -3.8752375  
C    2.8427566    0.7408282   -5.0281536  
C    3.7690871    0.4088690   -6.1274736  
N    4.6850990   -0.4708283   -5.5983756  
C    3.6784248    0.9075429   -7.3863658  
C    2.5964112    1.8331450   -7.6779859  
O    2.4297833    2.3367635   -8.7811197  
C    1.6038111    2.1989929   -6.5287660  
O    0.6890896    2.9774548   -6.7623085  
C    1.8039775    1.5969342   -5.2129737  
H    4.3683079    0.6510105   -8.1783015  
H    1.1122278    1.8552691   -4.4227397  
H    5.0097456   -1.3724304   -3.6859673  
H    5.4476425   -0.8821126   -6.1047552  
C    3.3321173    0.0004715   -1.3379333  
C    2.6974184    0.0000117   -2.5332310  
C    1.2800439   -0.0002118   -2.2052839  
C    1.2395035    0.0000643   -0.7271293  
N    2.4394063    0.0005460   -0.2131035  
C    0.0000000    0.0000000    0.0000000  
C   -1.1468702    0.0000634   -0.7169541  
O   -2.3742202    0.0000072   -0.1695491  
C   -1.1388767    0.0001606   -2.2096353  
O   -2.2206230    0.0000901   -2.7970412  
C    0.1454525    0.0001815   -2.9324239  
H   -2.9844345    0.0001024   -0.9290167  
H    0.1083577    0.0003682   -4.0135594  
H    4.3940039    0.0007620   -1.1498632  
C    2.5128556    2.1077716    2.9199648  
C    1.9592212    1.6432552    4.0696553  
C    0.8915788    0.7479214    3.6910360  
C    0.8684491    0.7287414    2.2159470  
N    1.8754542    1.5738793    1.8102719  
C    0.0000000    0.0000000    1.4700000  
C   -0.9772830   -0.8200135    2.1664417  
O   -1.8021297   -1.5120829    1.5842315  
C   -0.9711318   -0.8147624    3.7284083  
O   -1.7894187   -1.5009653    4.3257297  
C    0.0140216    0.0115358    4.4216297  
H    2.2638494    1.8988021    5.0689105  
H    0.0117648    0.0094386    5.5031631  
H    3.3327358    2.7953732    2.7900019  
H    2.1123206    1.7707734    0.8551938  
