44
1A 10B 20B 34B 39B 11 13 27 41 43 3 4 7 7 4 2 1 2 0 nosym
C    5.5868522    0.0001900   -1.0681562  
C    6.8043815    0.0013359   -1.6695679  
C    6.5701479    0.0005337   -3.0943378  
C    5.1058541   -0.0011566   -3.2749814  
N    4.5679461   -0.0016854   -2.0086701  
C    4.4796773   -0.0019122   -4.4789773  
C    5.3028522   -0.0012260   -5.6768582  
O    4.8337315   -0.0018783   -6.8074451  
C    6.8558128    0.0003100   -5.5091804  
O    7.5591484    0.0005920   -6.5104686  
C    7.4139939    0.0012960   -4.1592600  
H    7.7577671    0.0024167   -1.1719051  
H    3.4041773   -0.0030228   -4.5894718  
H    8.4901789    0.0025629   -4.0517888  
H    5.3482114    0.0003408   -0.0169948  
C    3.1301149   -0.0010311   -1.7028252  
C    2.5367768   -0.0002767   -0.4864665  
C    1.1089904    0.0001028   -0.7656183  
C    1.0177872   -0.0004148   -2.2415132  
N    2.1993578   -0.0011611   -2.7963820  
C   -0.2459209   -0.0002877   -2.9257118  
C   -1.3675319   -0.0000605   -2.1698524  
O   -2.6129313    0.0000867   -2.6748490  
C   -1.3083584    0.0000910   -0.6783232  
O   -2.3693261    0.0004206   -0.0541692  
C    0.0000000    0.0000000    0.0000000  
H    3.0096017   -0.0001007    0.4807525  
H   -0.2829630   -0.0004687   -4.0053125  
H   -3.1967441    0.0002094   -1.8949034  
C    0.0000000    0.0000000    1.4700000  
C    1.0662921    0.0000102    2.3034270  
C    0.4961870   -0.0000064    3.6418889  
C   -0.9663858    0.0000850    3.4240247  
N   -1.2632773    0.0000084    2.1528658  
C   -1.8985362    0.0000517    4.5177257  
C   -1.3925775   -0.0004564    5.7720543  
O   -2.1456383   -0.0005410    6.8851312  
C    0.0786232   -0.0009323    6.0245000  
O    0.4683759   -0.0012588    7.1921102  
C    1.0143166   -0.0008442    4.8859032  
H    2.1107198   -0.0000632    2.0421868  
H   -2.9622183    0.0003270    4.3293377  
H   -1.5042274   -0.0009692    7.6184419  
H    2.0724152   -0.0013148    5.1109744  
