44
1A 10B 15A 29A 30A 39B 11 13 28 42 40 41 3 4 2 2 3 4 2 1 3 0 nosym
C    0.5438759   -0.7269783   -5.2249516  
C    0.2435443   -0.5104532   -6.5314710  
C   -0.8630391    0.4166041   -6.5610250  
C   -1.1850652    0.7246567   -5.1545422  
N   -0.2963293   -0.0005341   -4.3948471  
C   -2.1741701    1.5652358   -4.7585601  
C   -2.9751657    2.2093704   -5.7861946  
O   -3.8889534    2.9828549   -5.5312126  
C   -2.6518673    1.8975067   -7.2821972  
O   -3.3196714    2.4336656   -8.1561713  
C   -1.5609178    0.9743860   -7.5847348  
H    0.7403652   -0.9501378   -7.3779105  
H   -2.3938456    1.7776382   -3.7214786  
H   -1.3433398    0.7639136   -8.6230431  
H    1.3081761   -1.3562874   -4.7986832  
C    3.1301146   -0.0010313   -1.7028256  
C    2.5367765   -0.0002766   -0.4864669  
C    1.1089901    0.0001027   -0.7656184  
C    1.0177865   -0.0004150   -2.2415133  
N    2.1993571   -0.0011612   -2.7963824  
C   -0.2459219   -0.0002879   -2.9257116  
C   -1.3675326   -0.0000606   -2.1698520  
O   -2.6129318    0.0000865   -2.6748483  
C   -1.3083588    0.0000910   -0.6783229  
O   -2.3693264    0.0004206   -0.0541685  
C    0.0000000    0.0000000    0.0000000  
H    3.0096016   -0.0001007    0.4807518  
H   -3.1967444    0.0002093   -1.8949026  
H    4.1849275   -0.0015114   -1.9271979  
C    2.5128556    2.1077716    2.9199648  
C    1.9592212    1.6432552    4.0696553  
C    0.8915788    0.7479214    3.6910360  
C    0.8684491    0.7287414    2.2159470  
N    1.8754542    1.5738793    1.8102719  
C    0.0000000    0.0000000    1.4700000  
C   -0.9772830   -0.8200135    2.1664417  
O   -1.8021297   -1.5120829    1.5842315  
C   -0.9711318   -0.8147624    3.7284083  
O   -1.7894187   -1.5009653    4.3257297  
C    0.0140216    0.0115358    4.4216297  
H    2.2638494    1.8988021    5.0689105  
H    0.0117648    0.0094386    5.5031631  
H    3.3327358    2.7953732    2.7900019  
H    2.1123206    1.7707734    0.8551938  
