48
34A 43B 5A 16A 17B 26B 44 46 13 32 27 31 3 4 7 2 3 4 2 1 3 0 nosym
C    3.3041269    0.0001177   -1.5420434  
C    2.5845370   -0.0004780   -0.3695856  
C    1.2040006   -0.0000007   -0.7283591  
C    1.1422372    0.0006038   -2.1454374  
N    2.4348634    0.0026110   -2.6077469  
C   -0.0655187    0.0008799   -2.8497915  
C   -1.2321772    0.0002326   -2.1101397  
O   -2.4392820    0.0001149   -2.7472517  
C   -1.1911209   -0.0000007   -0.6955263  
O   -2.4371523   -0.0002319   -0.1032858  
C    0.0000000    0.0000000    0.0000000  
H    3.0031535   -0.0000661    0.6222578  
H    2.7054623   -0.0071098   -3.5745264  
H   -0.1193555    0.0014846   -3.9297470  
H   -3.1132995   -0.0000646   -2.0551782  
H   -2.3200286   -0.0004070    0.8516413  
C    6.7068652   -0.0034179    1.2828885  
C    7.7136027   -0.0021476    0.3453674  
C    7.0885452   -0.0007422   -0.9367797  
C    5.6872998   -0.0009463   -0.7166947  
N    5.4901253   -0.0045363    0.6418804  
C    4.7577216    0.0005129   -1.7610467  
C    5.2516908    0.0025159   -3.0510729  
O    4.3881527    0.0043528   -4.1081030  
C    6.6464198    0.0023763   -3.2909677  
O    6.9801783    0.0041001   -4.6296035  
C    7.5640500    0.0006641   -2.2611728  
H    8.7687021   -0.0033297    0.5592763  
H    4.5960836    0.0050495    1.0985848  
H    4.9330440    0.0052559   -4.9058230  
H    7.9393886    0.0039069   -4.7039040  
H    8.6263215    0.0004196   -2.4757859  
H    6.7604661   -0.0050605    2.3581015  
C    0.8681109    0.7263879    2.2709268  
C    0.6127770    0.5096195    3.5869401  
C   -0.4920590   -0.4175482    3.6542670  
C   -0.8620974   -0.7254003    2.2596025  
N    0.0000000    0.0000000    1.4700000  
C   -1.8641242   -1.5660088    1.8976294  
C   -2.6293522   -2.2103885    2.9520183  
O   -3.5512764   -2.9839180    2.7283916  
C   -2.2549728   -1.8987399    4.4361073  
O   -2.8923672   -2.4351063    5.3323774  
C   -1.1543735   -0.9755647    4.7012123  
H    1.1382914    0.9492124    4.4159191  
H   -2.1192137   -1.7782617    0.8686553  
H   -0.9013378   -0.7652422    5.7314848  
H    1.6172880    1.3558399    1.8188057  
