44
5B 10B 25B 29A 30A 39B 12 13 28 43 40 42 7 4 4 2 3 4 2 1 3 0 nosym
C   -3.3460096   -0.0004265   -2.7913646  
C   -4.0050885   -0.0007132   -1.6040609  
C   -5.4169936   -0.0010568   -1.9063183  
C   -5.5272435   -0.0009752   -3.3775883  
N   -4.2366047   -0.0001892   -3.8541818  
C   -6.6998409   -0.0016247   -4.0607559  
C   -7.9358014   -0.0022336   -3.2959439  
O   -9.0426028   -0.0027795   -3.8187164  
C   -7.8427529   -0.0020786   -1.7367301  
O   -8.8766027   -0.0022804   -1.0821965  
C   -6.5211391   -0.0016359   -1.1144848  
H   -3.5536957   -0.0005046   -0.6279169  
H   -6.7586577   -0.0016815   -5.1403167  
H   -6.4653747   -0.0017366   -0.0343859  
H   -3.9810064   -0.0015043   -4.8246018  
C    0.0000000    0.0000000    0.0000000  
C    1.0662919   -0.0000103   -0.8334269  
C    0.4961869    0.0000064   -2.1718889  
C   -0.9663859   -0.0000850   -1.9540246  
N   -1.2632774   -0.0000084   -0.6828657  
C   -1.8985363   -0.0000518   -3.0477257  
C   -1.3925778    0.0004564   -4.3020545  
O   -2.1456384    0.0005409   -5.4151311  
C    0.0786230    0.0009323   -4.5544998  
O    0.4683758    0.0012588   -5.7221098  
C    1.0143164    0.0008442   -3.4159030  
H    2.1107195    0.0000633   -0.5721867  
H   -1.5042275    0.0009691   -6.1484418  
H    2.0724152    0.0013148   -3.6409744  
C    3.3321173   -0.0004715    2.8079335  
C    2.6974184   -0.0000116    4.0032312  
C    1.2800439    0.0002118    3.6752840  
C    1.2395035   -0.0000644    2.1971295  
N    2.4394063   -0.0005460    1.6831036  
C    0.0000000    0.0000000    1.4700000  
C   -1.1468701   -0.0000635    2.1869543  
O   -2.3742202   -0.0000073    1.6395491  
C   -1.1388768   -0.0001607    3.6796354  
O   -2.2206231   -0.0000905    4.2670412  
C    0.1454524   -0.0001816    4.4024240  
H    3.1367986    0.0000651    4.9860947  
H   -2.9844344   -0.0001026    2.3990168  
H    0.1083576   -0.0003682    5.4835595  
H    4.3940039   -0.0007619    2.6198634  
