44
5B 10B 25B 34B 39B 12 13 27 41 43 7 4 4 7 4 2 1 2 0 nosym
C   -3.2941076    0.0012874   -2.9038237  
C   -4.0168015    0.0014138   -1.7541332  
C   -5.4101727    0.0018622   -2.1327523  
C   -5.4402198    0.0019582   -3.6078415  
N   -4.1255649    0.0019956   -4.0135163  
C   -6.5739163    0.0019523   -4.3537883  
C   -7.8496533    0.0020703   -3.6573463  
O   -8.9263759    0.0021359   -4.2395566  
C   -7.8415654    0.0022235   -2.0953798  
O   -8.9094926    0.0026303   -1.4980582  
C   -6.5557597    0.0019360   -1.4021586  
H   -3.6191805    0.0013980   -0.7548781  
H   -6.5739163    0.0018935   -5.4349496  
H   -6.5588367    0.0018391   -0.3206253  
H   -3.8175538    0.0005036   -4.9685944  
C    0.0000000    0.0000000    0.0000000  
C    1.0541688   -0.0001722   -0.8560393  
C    0.5103135   -0.0000454   -2.1935957  
C   -0.9576374    0.0002459   -2.0455730  
N   -1.2018460   -0.0001391   -0.6915968  
C   -1.8348314    0.0008317   -3.0810607  
C   -1.2972851    0.0009737   -4.4314604  
O   -2.0050676    0.0014265   -5.4301315  
C    0.2542619    0.0004184   -4.6117571  
O    0.7184666    0.0002257   -5.7439121  
C    1.0974550    0.0000874   -3.4189130  
H    2.0940752   -0.0005483   -0.5817984  
H    2.1707276   -0.0000911   -3.5523671  
H   -2.1128194    0.0014912   -0.2706789  
C    0.0000000    0.0000000    1.4700000  
C    1.0662921    0.0000102    2.3034270  
C    0.4961870   -0.0000064    3.6418889  
C   -0.9663858    0.0000850    3.4240247  
N   -1.2632773    0.0000084    2.1528658  
C   -1.8985362    0.0000517    4.5177257  
C   -1.3925775   -0.0004564    5.7720543  
O   -2.1456383   -0.0005410    6.8851312  
C    0.0786232   -0.0009323    6.0245000  
O    0.4683759   -0.0012588    7.1921102  
C    1.0143166   -0.0008442    4.8859032  
H    2.1107198   -0.0000632    2.0421868  
H   -2.9622183    0.0003270    4.3293377  
H   -1.5042274   -0.0009692    7.6184419  
H    2.0724152   -0.0013148    5.1109744  
