44
1A 10B 20B 29A 34B 11 13 27 43 41 3 4 7 2 7 2 1 2 0 nosym
C    3.4166208   -0.7237138   -3.0386501  
C    4.6505750   -0.5066208   -3.5623894  
C    4.4859773    0.4195038   -4.6578510  
C    3.0446509    0.7263903   -4.7298853  
N    2.4521485    0.0014830   -3.7217479  
C    2.4815928    1.5658688   -5.6353938  
C    3.3532922    2.2099645   -6.6038030  
O    2.9422610    2.9825020   -7.4596887  
C    4.8829918    1.8993246   -6.5461251  
O    5.6266975    2.4354622   -7.3565070  
C    5.3718625    0.9773332   -5.5239757  
H    5.5710258   -0.9453429   -3.2204735  
H    1.4219298    1.7774263   -5.6709970  
H    6.4323668    0.7677042   -5.4906532  
H    3.1306602   -1.3526355   -2.2112602  
C    0.0000000    0.0000000    0.0000000  
C    1.0662923   -0.0000105   -0.8334269  
C    0.4961874    0.0000060   -2.1718887  
C   -0.9663853   -0.0000854   -1.9540249  
N   -1.2632772   -0.0000086   -0.6828660  
C   -1.8985357   -0.0000523   -3.0477261  
C   -1.3925768    0.0004559   -4.3020546  
O   -2.1456376    0.0005405   -5.4151317  
C    0.0786242    0.0009317   -4.5545000  
O    0.4683768    0.0012580   -5.7221103  
C    1.0143173    0.0008436   -3.4159030  
H    2.1107200    0.0000630   -0.5721863  
H   -2.9622180   -0.0003275   -2.8593382  
H   -1.5042263    0.0009682   -6.1484421  
C    3.1301144    0.0010313    3.1728260  
C    2.5367765    0.0002768    1.9564670  
C    1.1089900   -0.0001027    2.2356185  
C    1.0177864    0.0004150    3.7115134  
N    2.1993570    0.0011613    4.2663826  
C   -0.2459220    0.0002880    4.3957118  
C   -1.3675327    0.0000606    3.6398520  
O   -2.6129319   -0.0000866    4.1448486  
C   -1.3083589   -0.0000910    2.1483229  
O   -2.3693264   -0.0004206    1.5241687  
C    0.0000000    0.0000000    1.4700000  
H    3.0096015    0.0001008    0.9892483  
H   -0.2829642    0.0004689    5.4753125  
H   -3.1967446   -0.0002093    3.3649027  
H    4.1849273    0.0015113    3.3971983  
