44
5B 10B 29A 33A 34B 12 13 42 43 41 7 4 2 1 7 2 0 3 0 nosym
C    3.2973510   -0.0000932   -3.8752371  
C    4.6090969    0.0003110   -4.2265163  
C    4.6584754    0.0000136   -5.6695679  
C    3.2579292   -0.0005722   -6.1335295  
N    2.4824032   -0.0010085   -4.9971101  
C    2.8797129   -0.0005907   -7.4368548  
C    3.9215763   -0.0002200   -8.4502935  
O    3.6829952   -0.0002663   -9.6508676  
C    5.4116113    0.0001502   -7.9816781  
O    6.2974492    0.0001573   -8.8258055  
C    5.6945668    0.0004140   -6.5485738  
H    5.4465359    0.0005833   -3.5517504  
H    1.8466890   -0.0008953   -7.7558715  
H    6.7288539    0.0008751   -6.2323874  
H    1.4789639    0.0001010   -4.9846260  
C    3.3321177    0.0004715   -1.3379328  
C    2.6974188    0.0000116   -2.5332306  
C    1.2800443   -0.0002119   -2.2052837  
C    1.2395037    0.0000643   -0.7271292  
N    2.4394063    0.0005459   -0.2131032  
C    0.0000000    0.0000000    0.0000000  
C   -1.1468699    0.0000634   -0.7169542  
O   -2.3742202    0.0000072   -0.1695494  
C   -1.1388764    0.0001607   -2.2096355  
O   -2.2206225    0.0000904   -2.7970414  
C    0.1454529    0.0001815   -2.9324239  
H   -2.9844343    0.0001025   -0.9290170  
H    0.1083582    0.0003681   -4.0135594  
H    4.3940041    0.0007619   -1.1498627  
C    2.4951002    2.0940188    2.9809380  
C    1.9440701    1.6314916    1.8291961  
C    0.8759964    0.7350050    2.2038498  
C    0.8497377    0.7130254    3.6788474  
N    1.8560616    1.5571714    4.0882609  
C   -0.0205033   -0.0168748    4.4215661  
C   -0.9962600   -0.8356168    3.7214979  
O   -1.8224391   -1.5286685    4.3006425  
C   -0.9864710   -0.8277881    2.1595606  
O   -1.8030528   -1.5133726    1.5592035  
C    0.0000000    0.0000000    1.4700000  
H    2.2509283    1.8888011    0.8310761  
H   -0.0229599   -0.0187323    5.5027230  
H    3.3143982    2.7817323    3.1139444  
H    2.0889452    1.7545833    5.0442112  
