44
1A 10B 25B 34B 39B 11 13 27 41 42 3 4 4 7 4 2 1 2 0 nosym
C   -3.9842536    0.7274606   -1.9451210  
C   -5.3215325    0.5112367   -2.0400281  
C   -5.5219226   -0.4153204   -3.1291430  
C   -4.1821622   -0.7234075   -3.6647873  
N   -3.2941076    0.0012878   -2.9038237  
C   -3.9439562   -1.5635934   -4.7035606  
C   -5.0831560   -2.2072377   -5.3363967  
O   -4.9726039   -2.9803446   -6.2789388  
C   -6.5111637   -1.8953285   -4.7856593  
O   -7.4779448   -2.4310767   -5.3106049  
C   -6.6412925   -0.9726589   -3.6606709  
H   -6.0809396    0.9508060   -1.4181815  
H   -2.9533233   -1.7760293   -5.0809567  
H   -7.6334625   -0.7621520   -3.2851587  
H   -3.4448689    1.3563726   -1.2556112  
C    0.0000000    0.0000000    0.0000000  
C    1.0541688   -0.0001723   -0.8560392  
C    0.5103136   -0.0000455   -2.1935956  
C   -0.9576373    0.0002461   -2.0455730  
N   -1.2018460   -0.0001389   -0.6915968  
C   -1.8348314    0.0008319   -3.0810607  
C   -1.2972851    0.0009739   -4.4314603  
O   -2.0050676    0.0014268   -5.4301316  
C    0.2542619    0.0004184   -4.6117572  
O    0.7184666    0.0002257   -5.7439122  
C    1.0974551    0.0000873   -3.4189129  
H    2.0940752   -0.0005484   -0.5817983  
H    2.1707276   -0.0000912   -3.5523673  
H   -2.1128194    0.0014915   -0.2706789  
C    0.0000000    0.0000000    1.4700000  
C    1.0541688    0.0001722    2.3260392  
C    0.5103138    0.0000454    3.6635956  
C   -0.9576371   -0.0002459    3.5155732  
N   -1.2018458    0.0001392    2.1615969  
C   -1.8348311   -0.0008317    4.5510609  
C   -1.2972847   -0.0009736    5.9014604  
O   -2.0050672   -0.0014265    6.9001319  
C    0.2542623   -0.0004184    6.0817573  
O    0.7184670   -0.0002256    7.2139121  
C    1.0974552   -0.0000873    4.8889129  
H    2.0940752    0.0005483    2.0517982  
H   -2.9081052   -0.0011668    4.4207061  
H    2.1707277    0.0000911    5.0223670  
H   -2.1128194   -0.0014912    1.7406791  
