48
33A 37A 38B 10A 17B 26B 46 47 45 15 27 31 2 1 7 4 3 4 3 1 2 0 nosym
C    3.3003548    0.0005276   -1.4738982  
C    2.5232817    0.0003497   -2.6090743  
C    1.1623206   -0.0001319   -2.1820098  
C    1.1711888    0.0000583   -0.7636138  
N    2.4852302   -0.0014919   -0.3662355  
C    0.0000000    0.0000000    0.0000000  
C   -1.2020381    0.0000520   -0.6806479  
O   -2.3759246    0.0003495    0.0157742  
C   -1.2314650   -0.0005112   -2.0955510  
O   -2.5054382   -0.0008036   -2.6250182  
C   -0.0764510   -0.0007271   -2.8495193  
H    2.8919962   -0.0005619   -3.6205297  
H    2.8036267    0.0088181    0.5858667  
H   -3.0835639    0.0000348   -0.6418822  
H   -2.4360046   -0.0011526   -3.5845924  
H   -0.1304090   -0.0013420   -3.9319086  
C    5.6629513   -0.0164394   -2.3673673  
C    6.9417947   -0.0276366   -1.8605136  
C    6.8262887   -0.0188866   -0.4388308  
C    5.4411292   -0.0025425   -0.1338825  
N    4.7630507    0.0004755   -1.3275395  
C    4.9554562    0.0092547    1.1771365  
C    5.8850230    0.0041582    2.1989273  
O    5.4654668    0.0148219    3.4977240  
C    7.2713262   -0.0117225    1.9147995  
O    8.0693755   -0.0145364    3.0401677  
C    7.7511731   -0.0230937    0.6216855  
H    7.8466237   -0.0394205   -2.4437275  
H    3.9009938    0.0218757    1.4162027  
H    6.2632887    0.0091676    4.0424379  
H    8.9897853   -0.0255551    2.7602963  
H    8.8186394   -0.0349826    0.4349968  
H    5.3215475   -0.0177347   -3.3883478  
C    2.4951002    2.0940188    2.9809380  
C    1.9440701    1.6314916    1.8291961  
C    0.8759964    0.7350050    2.2038498  
C    0.8497377    0.7130254    3.6788474  
N    1.8560616    1.5571714    4.0882609  
C   -0.0205033   -0.0168748    4.4215661  
C   -0.9962600   -0.8356168    3.7214979  
O   -1.8224391   -1.5286685    4.3006425  
C   -0.9864710   -0.8277881    2.1595606  
O   -1.8030528   -1.5133726    1.5592035  
C    0.0000000    0.0000000    1.4700000  
H    2.2509283    1.8888011    0.8310761  
H   -0.0229599   -0.0187323    5.5027230  
H    3.3143982    2.7817323    3.1139444  
H    2.0889452    1.7545833    5.0442112  
