44
5B 10B 34B 39B 12 13 41 43 7 4 7 4 2 0 2 0 nosym
C    1.7334696    0.0049245   -3.2500362  
C    3.0913861    0.0055556   -3.2383141  
C    3.5242785    0.0069991   -4.6157891  
C    2.2984619    0.0071876   -5.4368641  
N    1.2476586    0.0054920   -4.5487767  
C    2.2819760    0.0088056   -6.7938575  
C    3.5566100    0.0102464   -7.4923147  
O    3.6472542    0.0116909   -8.7130032  
C    4.8674238    0.0098230   -6.6428609  
O    5.9464903    0.0107188   -7.2198155  
C    4.7574559    0.0083076   -5.1862361  
H    3.7182527    0.0048835   -2.3644429  
H    1.3716370    0.0090440   -7.3771183  
H    5.6697675    0.0082289   -4.6053652  
H    0.2773168    0.0067384   -4.8046714  
C    1.1319246    0.0015655   -0.8009268  
C    0.7969915    0.0034942   -2.1169401  
C   -0.6453340    0.0035709   -2.1842669  
C   -1.1266832    0.0015433   -0.7896025  
N    0.0000000    0.0000000    0.0000000  
C   -2.4346130    0.0013964   -0.4276293  
C   -3.4350112    0.0031409   -1.4820183  
O   -4.6384613    0.0030974   -1.2583915  
C   -2.9478958    0.0050505   -2.9661074  
O   -3.7809383    0.0062217   -3.8623776  
C   -1.5113824    0.0053089   -3.2312122  
H   -2.7664564    0.0000233    0.6013448  
H   -1.1823530    0.0068406   -4.2614847  
H    2.1104315    0.0009390   -0.3488058  
C    0.0000000    0.0000000    1.4700000  
C    1.0662921    0.0000102    2.3034270  
C    0.4961870   -0.0000064    3.6418889  
C   -0.9663858    0.0000850    3.4240247  
N   -1.2632773    0.0000084    2.1528658  
C   -1.8985362    0.0000517    4.5177257  
C   -1.3925775   -0.0004564    5.7720543  
O   -2.1456383   -0.0005410    6.8851312  
C    0.0786232   -0.0009323    6.0245000  
O    0.4683759   -0.0012588    7.1921102  
C    1.0143166   -0.0008442    4.8859032  
H    2.1107198   -0.0000632    2.0421868  
H   -2.9622183    0.0003270    4.3293377  
H   -1.5042274   -0.0009692    7.6184419  
H    2.0724152   -0.0013148    5.1109744  
