44
1A 10B 20B 34B 11 13 27 40 3 4 7 7 2 1 1 0 nosym
C    3.4581235   -0.7257441   -2.8368663  
C    4.7325801   -0.5094661   -3.2528701  
C    4.6630928    0.4165074   -4.3585736  
C    3.2334360    0.7241931   -4.5540256  
N    2.5562217   -0.0001540   -3.6003003  
C    2.7506126    1.5637882   -5.5046391  
C    3.7025403    2.2071748   -6.3948206  
O    3.3668876    2.9797540   -7.2829423  
C    5.2214736    1.8956826   -6.2060913  
O    6.0322610    2.4312185   -6.9497875  
C    5.6203296    0.9736423   -5.1456156  
H    5.6200549   -0.9486326   -2.8331862  
H    1.6980323    1.7759372   -5.6310406  
H    6.6739448    0.7634211   -5.0214147  
H    3.1018810   -1.3543195   -2.0369449  
C    0.0000000    0.0000000    0.0000000  
C    1.0541688   -0.0001718   -0.8560391  
C    0.5103141   -0.0000448   -2.1935955  
C   -0.9576367    0.0002462   -2.0455732  
N   -1.2018459   -0.0001391   -0.6915971  
C   -1.8348307    0.0008319   -3.0810611  
C   -1.2972843    0.0009743   -4.4314607  
O   -2.0050666    0.0014272   -5.4301322  
C    0.2542627    0.0004194   -4.6117573  
O    0.7184676    0.0002268   -5.7439121  
C    1.0974555    0.0000882   -3.4189128  
H    2.0940752   -0.0005478   -0.5817980  
H   -2.9081051    0.0011669   -2.9507063  
H   -2.1128195    0.0014909   -0.2706793  
C    1.0672568    0.0000697    2.3021913  
C    0.0000000    0.0000000    1.4700000  
C   -1.1601224    0.0000736    2.3478473  
C   -0.5938729    0.0000769    3.7138435  
N    0.7113367    0.0001554    3.6934124  
C   -1.4286986    0.0001879    4.8835240  
C   -2.7683114    0.0006799    4.6970523  
O   -3.6653903    0.0008304    5.6976972  
C   -3.3702025    0.0010610    3.3310774  
O   -4.5974910    0.0013779    3.2362962  
C   -2.4926826    0.0008943    2.1470656  
H   -0.9878360   -0.0000190    5.8697035  
H   -4.5324246    0.0012261    5.2533954  
H   -2.9677772    0.0012974    1.1752040  
H    2.1134392    0.0000545    2.0405121  
