44
5B 10B 33A 34B 12 13 43 40 7 4 1 7 2 0 2 0 nosym
C    1.7334696    0.0049245   -3.2500362  
C    3.0913861    0.0055556   -3.2383141  
C    3.5242785    0.0069991   -4.6157891  
C    2.2984619    0.0071876   -5.4368641  
N    1.2476586    0.0054920   -4.5487767  
C    2.2819760    0.0088056   -6.7938575  
C    3.5566100    0.0102464   -7.4923147  
O    3.6472542    0.0116909   -8.7130032  
C    4.8674238    0.0098230   -6.6428609  
O    5.9464903    0.0107188   -7.2198155  
C    4.7574559    0.0083076   -5.1862361  
H    3.7182527    0.0048835   -2.3644429  
H    1.3716370    0.0090440   -7.3771183  
H    5.6697675    0.0082289   -4.6053652  
H    0.2773168    0.0067384   -4.8046714  
C    1.1319246    0.0015655   -0.8009268  
C    0.7969915    0.0034942   -2.1169401  
C   -0.6453340    0.0035709   -2.1842669  
C   -1.1266832    0.0015433   -0.7896025  
N    0.0000000    0.0000000    0.0000000  
C   -2.4346130    0.0013964   -0.4276293  
C   -3.4350112    0.0031409   -1.4820183  
O   -4.6384613    0.0030974   -1.2583915  
C   -2.9478958    0.0050505   -2.9661074  
O   -3.7809383    0.0062217   -3.8623776  
C   -1.5113824    0.0053089   -3.2312122  
H   -2.7664564    0.0000233    0.6013448  
H   -1.1823530    0.0068406   -4.2614847  
H    2.1104315    0.0009390   -0.3488058  
C    0.8400945    0.7047457    2.2710304  
C    0.0000000    0.0000000    1.4700000  
C   -0.8844236   -0.7423113    2.3369512  
C   -0.4878984   -0.4098547    3.7186280  
N    0.5629682    0.4714286    3.6095011  
C   -1.0836927   -0.9095027    4.8308716  
C   -2.1891196   -1.8367527    4.6554461  
O   -2.7906899   -2.3413415    5.5944904  
C   -2.6257283   -2.2031529    3.2011665  
O   -3.5549479   -2.9829990    3.0410059  
C   -1.9068976   -1.5999348    2.0816745  
H   -0.7774656   -0.6525820    5.8354244  
H   -2.2155208   -1.8586617    1.0779135  
H    1.6384792    1.3747609    1.9961646  
H    1.0518368    0.8833920    4.3830260  
