46
36B 41B 20A 21B 43 44 30 27 7 4 1 7 2 0 2 0 nosym
C    3.3041272    0.0001176   -1.5420431  
C    2.5845372   -0.0004781   -0.3695853  
C    1.2040006   -0.0000009   -0.7283588  
C    1.1422374    0.0006035   -2.1454372  
N    2.4348639    0.0026108   -2.6077465  
C   -0.0655182    0.0008795   -2.8497919  
C   -1.2321769    0.0002322   -2.1101399  
O   -2.4392814    0.0001143   -2.7472520  
C   -1.1911210   -0.0000008   -0.6955264  
O   -2.4371527   -0.0002321   -0.1032861  
C    0.0000000    0.0000000    0.0000000  
H    3.0031535   -0.0000660    0.6222584  
H   -0.1193549    0.0014841   -3.9297469  
H   -3.1132989   -0.0000650   -2.0551785  
H   -2.3200281   -0.0004071    0.8516412  
H    4.3686623    0.0004070   -1.7024293  
C    3.8594208   -0.7175078   -4.5601992  
C    2.8310664   -0.0116222   -4.0232753  
C    2.2094027    0.7153300   -5.1048991  
C    2.9652787    0.3726183   -6.3247311  
N    3.9521594   -0.4993327   -5.9264122  
C    2.6888641    0.8568052   -7.5620115  
C    1.5725231    1.7770482   -7.7015489  
O    1.2438403    2.2678073   -8.7736615  
C    0.7583122    2.1540908   -6.4229928  
O   -0.1835063    2.9281698   -6.5280651  
C    1.1517637    1.5673729   -5.1443963  
H    3.2557694    0.5925697   -8.4438888  
H    0.5827555    1.8333880   -4.2639475  
H    4.5574576   -1.3785742   -4.0727304  
H    4.6334388   -0.9149355   -6.5348368  
C    0.0000000    0.0000000    1.4700000  
C    1.0541688    0.0001722    2.3260392  
C    0.5103138    0.0000454    3.6635956  
C   -0.9576371   -0.0002459    3.5155732  
N   -1.2018458    0.0001392    2.1615969  
C   -1.8348311   -0.0008317    4.5510609  
C   -1.2972847   -0.0009736    5.9014604  
O   -2.0050672   -0.0014265    6.9001319  
C    0.2542623   -0.0004184    6.0817573  
O    0.7184670   -0.0002256    7.2139121  
C    1.0974552   -0.0000873    4.8889129  
H    2.0940752    0.0005483    2.0517982  
H   -2.9081052   -0.0011668    4.4207061  
H    2.1707277    0.0000911    5.0223670  
H   -2.1128194   -0.0014912    1.7406791  
