44
29A 33A 34B 5A 14A 18B 19B 42 43 41 12 27 28 26 2 1 7 7 2 1 7 3 1 3 0 nosym
C    3.2573672   -0.0002920   -1.5109379  
C    2.5379469   -0.0001709   -0.3591960  
C    1.1435044    0.0000331   -0.7338498  
C    1.1092608   -0.0000083   -2.2088475  
N    2.4227563    0.0001909   -2.6182608  
C   -0.0265531   -0.0002524   -2.9515661  
C   -1.3003038   -0.0002640   -2.2514979  
O   -2.3786783   -0.0004133   -2.8306426  
C   -1.2877724    0.0000311   -0.6895607  
O   -2.3539956    0.0003306   -0.0892035  
C    0.0000000    0.0000000    0.0000000  
H    2.9384089   -0.0000367    0.6389238  
H   -0.0296289   -0.0004086   -4.0327230  
H    2.7280494   -0.0013407   -3.5742114  
C    6.6174606    0.0016340    1.3537086  
C    5.3857494    0.0013496    0.7819028  
C    5.5854751    0.0003217   -0.6481124  
C    7.0449751   -0.0000008   -0.8640985  
N    7.6133368    0.0012283    0.3888398  
C    7.6418663   -0.0013232   -2.0828781  
C    6.7899769   -0.0022818   -3.2605103  
O    7.2316316   -0.0034333   -4.4021059  
C    5.2415224   -0.0017089   -3.0553434  
O    4.5141884   -0.0021996   -4.0393381  
C    4.7161333   -0.0005435   -1.6923255  
H    4.4446711    0.0019900    1.3024654  
H    8.7143821   -0.0016669   -2.2193375  
H    6.8814409    0.0023226    2.3987942  
H    8.5996521   -0.0002111    0.5738435  
C    2.4951002    2.0940188    2.9809380  
C    1.9440701    1.6314916    1.8291961  
C    0.8759964    0.7350050    2.2038498  
C    0.8497377    0.7130254    3.6788474  
N    1.8560616    1.5571714    4.0882609  
C   -0.0205033   -0.0168748    4.4215661  
C   -0.9962600   -0.8356168    3.7214979  
O   -1.8224391   -1.5286685    4.3006425  
C   -0.9864710   -0.8277881    2.1595606  
O   -1.8030528   -1.5133726    1.5592035  
C    0.0000000    0.0000000    1.4700000  
H    2.2509283    1.8888011    0.8310761  
H   -0.0229599   -0.0187323    5.5027230  
H    3.3143982    2.7817323    3.1139444  
H    2.0889452    1.7545833    5.0442112  
