46
31A 32A 41B 10B 21B 26B 44 42 43 15 28 29 2 3 4 4 7 4 3 1 2 0 nosym
C    3.3003548    0.0005276   -1.4738982  
C    2.5232817    0.0003497   -2.6090743  
C    1.1623206   -0.0001319   -2.1820098  
C    1.1711888    0.0000583   -0.7636138  
N    2.4852302   -0.0014919   -0.3662355  
C    0.0000000    0.0000000    0.0000000  
C   -1.2020381    0.0000520   -0.6806479  
O   -2.3759246    0.0003495    0.0157742  
C   -1.2314650   -0.0005112   -2.0955510  
O   -2.5054382   -0.0008036   -2.6250182  
C   -0.0764510   -0.0007271   -2.8495193  
H    2.8919962   -0.0005619   -3.6205297  
H    2.8036267    0.0088181    0.5858667  
H   -3.0835639    0.0000348   -0.6418822  
H   -2.4360046   -0.0011526   -3.5845924  
H   -0.1304090   -0.0013420   -3.9319086  
C    4.7630507    0.0004755   -1.3275395  
C    5.7197932    0.0016002   -2.2912395  
C    6.9965557    0.0009190   -1.6169148  
C    6.7031140   -0.0007356   -0.1709966  
N    5.3315510   -0.0005303   -0.0628080  
C    7.6461194   -0.0021759    0.8049349  
C    9.0433296   -0.0018645    0.4045104  
O    9.9665695   -0.0030126    1.2082066  
C    9.3772083    0.0001309   -1.1213750  
O   10.5499553    0.0007164   -1.4705513  
C    8.2742424    0.0012903   -2.0791417  
H    5.5504518    0.0029555   -3.3532823  
H    7.4095540   -0.0035070    1.8598967  
H    8.5138925    0.0024646   -3.1337934  
H    4.8220247   -0.0029951    0.8017292  
C    2.5128556    2.1077716    2.9199648  
C    1.9592212    1.6432552    4.0696553  
C    0.8915788    0.7479214    3.6910360  
C    0.8684491    0.7287414    2.2159470  
N    1.8754542    1.5738793    1.8102719  
C    0.0000000    0.0000000    1.4700000  
C   -0.9772830   -0.8200135    2.1664417  
O   -1.8021297   -1.5120829    1.5842315  
C   -0.9711318   -0.8147624    3.7284083  
O   -1.7894187   -1.5009653    4.3257297  
C    0.0140216    0.0115358    4.4216297  
H    2.2638494    1.8988021    5.0689105  
H    0.0117648    0.0094386    5.5031631  
H    3.3327358    2.7953732    2.7900019  
H    2.1123206    1.7707734    0.8551938  
