44
5B 10B 15A 34B 39B 12 13 27 41 43 7 4 2 7 4 2 1 2 0 nosym
C    0.0139745    0.0003876   -4.4216236  
C    1.0657033    0.0015279   -5.2806581  
C    0.5180454    0.0012341   -6.6166623  
C   -0.9494778   -0.0001518   -6.4644643  
N   -1.1898330   -0.0010076   -5.1097989  
C   -1.8296142   -0.0004063   -7.4974523  
C   -1.2959122    0.0005366   -8.8493765  
O   -2.0065329    0.0003351   -9.8460295  
C    0.2551151    0.0017576   -9.0340855  
O    0.7160971    0.0022516  -10.1675559  
C    1.1016980    0.0022057   -7.8436446  
H    2.1063851    0.0022853   -5.0093770  
H   -2.9025130   -0.0013006   -7.3640448  
H    2.1745859    0.0032572   -7.9801516  
H   -2.0996068   -0.0004654   -4.6862910  
C    3.2798088    0.0005856   -1.4499645  
C    2.5571147    0.0005564   -2.5996552  
C    1.1637438    0.0001547   -2.2210359  
C    1.1336966   -0.0000200   -0.7459470  
N    2.4483516   -0.0001428   -0.3402716  
C    0.0000000    0.0000000    0.0000000  
C   -1.2757366   -0.0000187   -0.6964415  
O   -2.3524596   -0.0000640   -0.1142315  
C   -1.2676492   -0.0000874   -2.2584082  
O   -2.3355759   -0.0004102   -2.8557296  
C    0.0181564    0.0001758   -2.9516296  
H    2.9547358    0.0006073   -3.5989103  
H    4.3498553    0.0008611   -1.3200018  
H    2.7563628    0.0012824    0.6148065  
C    0.0000000    0.0000000    1.4700000  
C    1.0662921    0.0000102    2.3034270  
C    0.4961870   -0.0000064    3.6418889  
C   -0.9663858    0.0000850    3.4240247  
N   -1.2632773    0.0000084    2.1528658  
C   -1.8985362    0.0000517    4.5177257  
C   -1.3925775   -0.0004564    5.7720543  
O   -2.1456383   -0.0005410    6.8851312  
C    0.0786232   -0.0009323    6.0245000  
O    0.4683759   -0.0012588    7.1921102  
C    1.0143166   -0.0008442    4.8859032  
H    2.1107198   -0.0000632    2.0421868  
H   -2.9622183    0.0003270    4.3293377  
H   -1.5042274   -0.0009692    7.6184419  
H    2.0724152   -0.0013148    5.1109744  
