44
5B 10B 20B 29A 30A 39B 12 13 27 43 40 42 7 4 7 2 3 4 2 1 3 0 nosym
C    2.5562217   -0.0001550   -3.6003003  
C    3.5357960    0.0004087   -2.6598170  
C    4.7960230   -0.0001376   -3.3645605  
C    4.4679968   -0.0010432   -4.8030281  
N    3.0942342   -0.0014082   -4.8782989  
C    5.3873317   -0.0013580   -5.8012904  
C    6.7937412   -0.0009916   -5.4344817  
O    7.6974450   -0.0012923   -6.2600844  
C    7.1641096   -0.0002857   -3.9170393  
O    8.3448916   -0.0002790   -3.5960817  
C    6.0844251    0.0002815   -2.9331018  
H    3.3919680    0.0009430   -1.5940185  
H    5.1255386   -0.0018944   -6.8502775  
H    6.3492937    0.0009740   -1.8844990  
H    2.5641256   -0.0004663   -5.7303735  
C    0.0000000    0.0000000    0.0000000  
C    1.0541688   -0.0001721   -0.8560392  
C    0.5103141   -0.0000453   -2.1935956  
C   -0.9576367    0.0002460   -2.0455735  
N   -1.2018459   -0.0001391   -0.6915971  
C   -1.8348307    0.0008318   -3.0810613  
C   -1.2972842    0.0009738   -4.4314606  
O   -2.0050665    0.0014267   -5.4301324  
C    0.2542628    0.0004186   -4.6117571  
O    0.7184677    0.0002259   -5.7439121  
C    1.0974556    0.0000875   -3.4189129  
H    2.0940752   -0.0005483   -0.5817982  
H   -2.9081051    0.0011669   -2.9507066  
H   -2.1128195    0.0014912   -0.2706794  
C    3.3321173   -0.0004715    2.8079335  
C    2.6974184   -0.0000116    4.0032312  
C    1.2800439    0.0002118    3.6752840  
C    1.2395035   -0.0000644    2.1971295  
N    2.4394063   -0.0005460    1.6831036  
C    0.0000000    0.0000000    1.4700000  
C   -1.1468701   -0.0000635    2.1869543  
O   -2.3742202   -0.0000073    1.6395491  
C   -1.1388768   -0.0001607    3.6796354  
O   -2.2206231   -0.0000905    4.2670412  
C    0.1454524   -0.0001816    4.4024240  
H    3.1367986    0.0000651    4.9860947  
H   -2.9844344   -0.0001026    2.3990168  
H    0.1083576   -0.0003682    5.4835595  
H    4.3940039   -0.0007619    2.6198634  
