44
1A 10B 20B 29A 30A 39B 11 13 27 43 40 42 3 4 7 2 3 4 2 1 3 0 nosym
C    3.4166208   -0.7237138   -3.0386501  
C    4.6505750   -0.5066208   -3.5623894  
C    4.4859773    0.4195038   -4.6578510  
C    3.0446509    0.7263903   -4.7298853  
N    2.4521485    0.0014830   -3.7217479  
C    2.4815928    1.5658688   -5.6353938  
C    3.3532922    2.2099645   -6.6038030  
O    2.9422610    2.9825020   -7.4596887  
C    4.8829918    1.8993246   -6.5461251  
O    5.6266975    2.4354622   -7.3565070  
C    5.3718625    0.9773332   -5.5239757  
H    5.5710258   -0.9453429   -3.2204735  
H    1.4219298    1.7774263   -5.6709970  
H    6.4323668    0.7677042   -5.4906532  
H    3.1306602   -1.3526355   -2.2112602  
C    0.0000000    0.0000000    0.0000000  
C    1.0662923   -0.0000105   -0.8334269  
C    0.4961874    0.0000060   -2.1718887  
C   -0.9663853   -0.0000854   -1.9540249  
N   -1.2632772   -0.0000086   -0.6828660  
C   -1.8985357   -0.0000523   -3.0477261  
C   -1.3925768    0.0004559   -4.3020546  
O   -2.1456376    0.0005405   -5.4151317  
C    0.0786242    0.0009317   -4.5545000  
O    0.4683768    0.0012580   -5.7221103  
C    1.0143173    0.0008436   -3.4159030  
H    2.1107200    0.0000630   -0.5721863  
H   -2.9622180   -0.0003275   -2.8593382  
H   -1.5042263    0.0009682   -6.1484421  
C    3.3321173   -0.0004715    2.8079335  
C    2.6974184   -0.0000116    4.0032312  
C    1.2800439    0.0002118    3.6752840  
C    1.2395035   -0.0000644    2.1971295  
N    2.4394063   -0.0005460    1.6831036  
C    0.0000000    0.0000000    1.4700000  
C   -1.1468701   -0.0000635    2.1869543  
O   -2.3742202   -0.0000073    1.6395491  
C   -1.1388768   -0.0001607    3.6796354  
O   -2.2206231   -0.0000905    4.2670412  
C    0.1454524   -0.0001816    4.4024240  
H    3.1367986    0.0000651    4.9860947  
H   -2.9844344   -0.0001026    2.3990168  
H    0.1083576   -0.0003682    5.4835595  
H    4.3940039   -0.0007619    2.6198634  
