44
33A 34B 5A 15B 24B 43 40 12 25 27 1 7 7 3 4 2 1 2 0 nosym
C    3.2573672   -0.0002920   -1.5109379  
C    2.5379469   -0.0001709   -0.3591960  
C    1.1435044    0.0000331   -0.7338498  
C    1.1092608   -0.0000083   -2.2088475  
N    2.4227563    0.0001909   -2.6182608  
C   -0.0265531   -0.0002524   -2.9515661  
C   -1.3003038   -0.0002640   -2.2514979  
O   -2.3786783   -0.0004133   -2.8306426  
C   -1.2877724    0.0000311   -0.6895607  
O   -2.3539956    0.0003306   -0.0892035  
C    0.0000000    0.0000000    0.0000000  
H    2.9384089   -0.0000367    0.6389238  
H   -0.0296289   -0.0004086   -4.0327230  
H    2.7280494   -0.0013407   -3.5742114  
C    5.6506110    0.0009427   -0.6678799  
C    6.9152391    0.0026292   -1.1626403  
C    6.8040789    0.0026208   -2.6022511  
C    5.3606769    0.0008072   -2.9078300  
N    4.7161333   -0.0005435   -1.6923255  
C    4.8400810    0.0006556   -4.1610993  
C    5.7629705    0.0021684   -5.2839567  
O    5.3925552    0.0021019   -6.4506156  
C    7.2958247    0.0038491   -4.9836901  
O    8.0824537    0.0048245   -5.9209597  
C    7.7361596    0.0041354   -3.5908667  
H    7.8224236    0.0035687   -0.5850342  
H    3.7780231   -0.0005585   -4.3634389  
H    8.7991588    0.0055077   -3.3914804  
H    5.3226856    0.0004436    0.3589376  
C    0.8400945    0.7047457    2.2710304  
C    0.0000000    0.0000000    1.4700000  
C   -0.8844236   -0.7423113    2.3369512  
C   -0.4878984   -0.4098547    3.7186280  
N    0.5629682    0.4714286    3.6095011  
C   -1.0836927   -0.9095027    4.8308716  
C   -2.1891196   -1.8367527    4.6554461  
O   -2.7906899   -2.3413415    5.5944904  
C   -2.6257283   -2.2031529    3.2011665  
O   -3.5549479   -2.9829990    3.0410059  
C   -1.9068976   -1.5999348    2.0816745  
H   -0.7774656   -0.6525820    5.8354244  
H   -2.2155208   -1.8586617    1.0779135  
H    1.6384792    1.3747609    1.9961646  
H    1.0518368    0.8833920    4.3830260  
