44
4A 5B 15A 29A 30A 39B 14 11 28 42 40 41 1 7 2 2 3 4 2 1 3 0 nosym
C    0.9084731   -0.7026193   -5.2310924  
C    0.0950452    0.0004352   -4.4015596  
C   -0.8199512    0.7412612   -5.2374985  
C   -0.4704271    0.4097763   -6.6320380  
N    0.5851836   -0.4695833   -6.5592179  
C   -1.1049291    0.9085147   -7.7230797  
C   -2.2053948    1.8336907   -7.5096333  
O   -2.8397397    2.3373297   -8.4273780  
C   -2.5925517    2.1990328   -6.0411508  
O   -3.5171663    2.9771334   -5.8490369  
C   -1.8346469    1.5969504   -4.9471088  
H   -0.8328568    0.6523334   -8.7376030  
H   -2.1091444    1.8549337   -3.9332940  
H    1.7170452   -1.3712058   -4.9839233  
H    1.0479971   -0.8805094   -7.3491489  
C    3.3321174    0.0004718   -1.3379334  
C    2.6974185    0.0000117   -2.5332310  
C    1.2800440   -0.0002117   -2.2052839  
C    1.2395036    0.0000644   -0.7271297  
N    2.4394063    0.0005460   -0.2131035  
C    0.0000000    0.0000000    0.0000000  
C   -1.1468700    0.0000635   -0.7169545  
O   -2.3742202    0.0000073   -0.1695490  
C   -1.1388767    0.0001607   -2.2096357  
O   -2.2206230    0.0000904   -2.7970414  
C    0.1454526    0.0001816   -2.9324241  
H    3.1367988   -0.0000648   -3.5160946  
H   -2.9844344    0.0001025   -0.9290171  
H    4.3940040    0.0007621   -1.1498634  
C    2.5128556    2.1077716    2.9199648  
C    1.9592212    1.6432552    4.0696553  
C    0.8915788    0.7479214    3.6910360  
C    0.8684491    0.7287414    2.2159470  
N    1.8754542    1.5738793    1.8102719  
C    0.0000000    0.0000000    1.4700000  
C   -0.9772830   -0.8200135    2.1664417  
O   -1.8021297   -1.5120829    1.5842315  
C   -0.9711318   -0.8147624    3.7284083  
O   -1.7894187   -1.5009653    4.3257297  
C    0.0140216    0.0115358    4.4216297  
H    2.2638494    1.8988021    5.0689105  
H    0.0117648    0.0094386    5.5031631  
H    3.3327358    2.7953732    2.7900019  
H    2.1123206    1.7707734    0.8551938  
