44
5B 10B 15A 29A 34B 12 13 27 43 41 7 4 2 2 7 2 1 2 0 nosym
C    0.0139745    0.0003876   -4.4216236  
C    1.0657033    0.0015279   -5.2806581  
C    0.5180454    0.0012341   -6.6166623  
C   -0.9494778   -0.0001518   -6.4644643  
N   -1.1898330   -0.0010076   -5.1097989  
C   -1.8296142   -0.0004063   -7.4974523  
C   -1.2959122    0.0005366   -8.8493765  
O   -2.0065329    0.0003351   -9.8460295  
C    0.2551151    0.0017576   -9.0340855  
O    0.7160971    0.0022516  -10.1675559  
C    1.1016980    0.0022057   -7.8436446  
H    2.1063851    0.0022853   -5.0093770  
H   -2.9025130   -0.0013006   -7.3640448  
H    2.1745859    0.0032572   -7.9801516  
H   -2.0996068   -0.0004654   -4.6862910  
C    3.2798088    0.0005856   -1.4499645  
C    2.5571147    0.0005564   -2.5996552  
C    1.1637438    0.0001547   -2.2210359  
C    1.1336966   -0.0000200   -0.7459470  
N    2.4483516   -0.0001428   -0.3402716  
C    0.0000000    0.0000000    0.0000000  
C   -1.2757366   -0.0000187   -0.6964415  
O   -2.3524596   -0.0000640   -0.1142315  
C   -1.2676492   -0.0000874   -2.2584082  
O   -2.3355759   -0.0004102   -2.8557296  
C    0.0181564    0.0001758   -2.9516296  
H    2.9547358    0.0006073   -3.5989103  
H    4.3498553    0.0008611   -1.3200018  
H    2.7563628    0.0012824    0.6148065  
C    2.3971438    2.0127888    3.1728260  
C    1.9431056    1.6308205    1.9564670  
C    0.8496017    0.7127664    2.2356185  
C    0.7794028    0.6545384    3.7115134  
N    1.6840587    1.4146091    4.2663826  
C   -0.1885723   -0.1578550    4.3957118  
C   -1.0476298   -0.8789867    3.6398520  
O   -2.0015663   -1.6796266    4.1448486  
C   -1.0022026   -0.8410666    2.1483229  
O   -1.8147390   -1.5232959    1.5241687  
C    0.0000000    0.0000000    1.4700000  
H    2.3054237    1.9346118    0.9892483  
H   -0.2170646   -0.1815267    5.4753125  
H   -2.4487139   -2.0549881    3.3649027  
H    3.2048689    2.6911772    3.3971983  
