44
5B 10B 25B 29A 30A 39B 12 13 28 43 40 42 7 4 4 2 3 4 2 1 3 0 nosym
C    4.7795901    0.0008674   -1.0815733  
C    5.8063529    0.0010476   -1.9702986  
C    7.0285665    0.0013958   -1.2015145  
C    6.6268092    0.0013745    0.2181268  
N    5.2509927    0.0014466    0.2224662  
C    7.4934504    0.0012528    1.2624626  
C    8.9169020    0.0013610    0.9686569  
O    9.7768350    0.0013265    1.8397564  
C    9.3650173    0.0016372   -0.5276711  
O   10.5607782    0.0020369   -0.7873199  
C    8.3375020    0.0014691   -1.5659687  
H    5.7176695    0.0011303   -3.0420953  
H    7.1779194    0.0011092    2.2965565  
H    8.6560847    0.0014568   -2.5995201  
H    4.6776560   -0.0001048    1.0460742  
C    3.3321168    0.0004716   -1.3379341  
C    2.6974177    0.0000118   -2.5332316  
C    1.2800432   -0.0002116   -2.2052842  
C    1.2395033    0.0000644   -0.7271298  
N    2.4394059    0.0005460   -0.2131041  
C    0.0000000    0.0000000    0.0000000  
C   -1.1468704    0.0000635   -0.7169542  
O   -2.3742206    0.0000074   -0.1695488  
C   -1.1388774    0.0001608   -2.2096352  
O   -2.2206238    0.0000906   -2.7970409  
C    0.1454514    0.0001818   -2.9324241  
H    3.1367978   -0.0000649   -3.5160956  
H   -2.9844350    0.0001027   -0.9290164  
H    0.1083567    0.0003684   -4.0135594  
C    2.5528530    2.1414826    2.8079335  
C    2.0663498    1.7338582    4.0032312  
C    0.9804344    0.8229586    3.6752840  
C    0.9495562    0.7966882    2.1971295  
N    1.8690446    1.5676019    1.6831036  
C    0.0000000    0.0000000    1.4700000  
C   -0.8785127   -0.7372425    2.1869543  
O   -1.8187535   -1.5261249    1.6395491  
C   -0.8723269   -0.7321790    3.6796354  
O   -1.7010379   -1.4274584    4.2670412  
C    0.1115397    0.0933559    4.4024240  
H    2.4028853    2.0163452    4.9860947  
H   -2.2861435   -1.9184361    2.3990168  
H    0.0832434    0.0693689    5.4835595  
H    3.3664920    2.8238276    2.6198634  
