44
0A 1A 10B 29A 30A 39B 13 11 12 43 40 42 2 3 4 2 3 4 3 0 3 0 nosym
C    2.0577021   -2.1067619   -5.0538574  
C    2.0213372   -1.6421657   -6.3293585  
C    0.8918565   -0.7471755   -6.4193649  
C    0.2687258   -0.7282841   -5.0821507  
N    1.0227497   -1.5732440   -4.3008824  
C   -0.8287665    0.0000939   -4.7555305  
C   -1.4369816    0.8199928   -5.7901201  
O   -2.4278330    1.5117412   -5.5951879  
C   -0.7938992    0.8150426   -7.2135759  
O   -1.2973732    1.5011523   -8.0927962  
C    0.3886479   -0.0108728   -7.4444390  
H    2.7073334   -1.8974436   -7.1173025  
H    0.8279792   -0.0085689   -8.4327238  
H    2.7533682   -2.7941802   -4.6006528  
H    0.8492695   -1.7702610   -3.3323081  
C    1.0672569   -0.0000698   -0.8321910  
C    0.0000000    0.0000000    0.0000000  
C   -1.1601223   -0.0000736   -0.8778472  
C   -0.5938729   -0.0000768   -2.2438435  
N    0.7113367   -0.0001553   -2.2234123  
C   -1.4286985   -0.0001877   -3.4135239  
C   -2.7683113   -0.0006798   -3.2270524  
O   -3.6653902   -0.0008302   -4.2276970  
C   -3.3702024   -0.0010610   -1.8610774  
O   -4.5974910   -0.0013779   -1.7662963  
C   -2.4926825   -0.0008943   -0.6770658  
H   -4.5324245   -0.0012258   -3.7833954  
H   -2.9677772   -0.0012974    0.2947961  
H    2.1134391   -0.0000547   -0.5705119  
C    2.5528530    2.1414826    2.8079335  
C    2.0663498    1.7338582    4.0032312  
C    0.9804344    0.8229586    3.6752840  
C    0.9495562    0.7966882    2.1971295  
N    1.8690446    1.5676019    1.6831036  
C    0.0000000    0.0000000    1.4700000  
C   -0.8785127   -0.7372425    2.1869543  
O   -1.8187535   -1.5261249    1.6395491  
C   -0.8723269   -0.7321790    3.6796354  
O   -1.7010379   -1.4274584    4.2670412  
C    0.1115397    0.0933559    4.4024240  
H    2.4028853    2.0163452    4.9860947  
H   -2.2861435   -1.9184361    2.3990168  
H    0.0832434    0.0693689    5.4835595  
H    3.3664920    2.8238276    2.6198634  
