46
36B 41B 5A 16A 17B 26B 43 45 13 30 27 29 7 4 7 2 3 4 2 1 3 0 nosym
C    3.3041269    0.0001177   -1.5420434  
C    2.5845370   -0.0004780   -0.3695856  
C    1.2040006   -0.0000007   -0.7283591  
C    1.1422372    0.0006038   -2.1454374  
N    2.4348634    0.0026110   -2.6077469  
C   -0.0655187    0.0008799   -2.8497915  
C   -1.2321772    0.0002326   -2.1101397  
O   -2.4392820    0.0001149   -2.7472517  
C   -1.1911209   -0.0000007   -0.6955263  
O   -2.4371523   -0.0002319   -0.1032858  
C    0.0000000    0.0000000    0.0000000  
H    3.0031535   -0.0000661    0.6222578  
H    2.7054623   -0.0071098   -3.5745264  
H   -0.1193555    0.0014846   -3.9297470  
H   -3.1132995   -0.0000646   -2.0551782  
H   -2.3200286   -0.0004070    0.8516413  
C    6.5771494   -0.0035573    1.3345533  
C    7.6645487   -0.0027623    0.5288600  
C    7.1290976   -0.0009890   -0.8238371  
C    5.6614000   -0.0010505   -0.6437065  
N    5.3318749   -0.0024720    0.6193853  
C    4.7577216    0.0005129   -1.7610467  
C    5.2958115    0.0024560   -3.0019295  
O    4.5716623    0.0040580   -4.1340273  
C    6.7730249    0.0029427   -3.2164075  
O    7.1927148    0.0046216   -4.3735932  
C    7.6790893    0.0012688   -2.0540953  
H    8.7019030   -0.0032210    0.8169074  
H    5.2317432    0.0052551   -4.8505775  
H    8.7426330    0.0018006   -2.2518453  
H    6.5493804   -0.0048794    2.4126071  
C    0.0000000    0.0000000    1.4700000  
C    1.0662921    0.0000102    2.3034270  
C    0.4961870   -0.0000064    3.6418889  
C   -0.9663858    0.0000850    3.4240247  
N   -1.2632773    0.0000084    2.1528658  
C   -1.8985362    0.0000517    4.5177257  
C   -1.3925775   -0.0004564    5.7720543  
O   -2.1456383   -0.0005410    6.8851312  
C    0.0786232   -0.0009323    6.0245000  
O    0.4683759   -0.0012588    7.1921102  
C    1.0143166   -0.0008442    4.8859032  
H    2.1107198   -0.0000632    2.0421868  
H   -2.9622183    0.0003270    4.3293377  
H   -1.5042274   -0.0009692    7.6184419  
H    2.0724152   -0.0013148    5.1109744  
