44
29A 30A 39B 19B 43 40 42 25 2 3 4 7 3 0 1 0 nosym
C    3.3321171    0.0004715   -1.3379333  
C    2.6974181    0.0000116   -2.5332310  
C    1.2800437   -0.0002119   -2.2052837  
C    1.2395034    0.0000643   -0.7271293  
N    2.4394063    0.0005459   -0.2131034  
C    0.0000000    0.0000000    0.0000000  
C   -1.1468701    0.0000634   -0.7169539  
O   -2.3742203    0.0000072   -0.1695490  
C   -1.1388767    0.0001607   -2.2096351  
O   -2.2206235    0.0000904   -2.7970409  
C    0.1454521    0.0001815   -2.9324239  
H   -2.9844345    0.0001025   -0.9290163  
H    0.1083575    0.0003681   -4.0135593  
H    4.3940037    0.0007619   -1.1498635  
C    4.3838642   -0.6854898   -4.3010291  
C    3.2973502   -0.0000932   -3.8752376  
C    2.8436557    0.7447005   -5.0396874  
C    3.7974318    0.3810127   -6.1095598  
N    4.7025031   -0.4571189   -5.6825106  
C    3.6904774    0.9168843   -7.4386526  
C    2.6765543    1.7766835   -7.6877295  
O    2.4570223    2.3525099   -8.8819951  
C    1.6976175    2.1629621   -6.6291297  
O    0.7998278    2.9507660   -6.9267195  
C    1.8286353    1.5997202   -5.2735792  
H    4.4016145    0.6338955   -8.2009589  
H    1.6686664    2.9089595   -8.7477893  
H    1.0992690    1.9045379   -4.5351068  
H    5.0092517   -1.3572116   -3.7347655  
C    2.5528530    2.1414826    2.8079335  
C    2.0663498    1.7338582    4.0032312  
C    0.9804344    0.8229586    3.6752840  
C    0.9495562    0.7966882    2.1971295  
N    1.8690446    1.5676019    1.6831036  
C    0.0000000    0.0000000    1.4700000  
C   -0.8785127   -0.7372425    2.1869543  
O   -1.8187535   -1.5261249    1.6395491  
C   -0.8723269   -0.7321790    3.6796354  
O   -1.7010379   -1.4274584    4.2670412  
C    0.1115397    0.0933559    4.4024240  
H    2.4028853    2.0163452    4.9860947  
H   -2.2861435   -1.9184361    2.3990168  
H    0.0832434    0.0693689    5.4835595  
H    3.3664920    2.8238276    2.6198634  
