46
31A 32A 41B 16A 17A 26B 45 42 44 29 27 28 2 3 4 2 3 4 3 0 3 0 nosym
C    1.1243415    0.0099154   -0.7919009  
C    0.7474086    0.0234032   -2.1148547  
C   -0.6787371    0.0234950   -2.1414700  
C   -1.1201741    0.0099356   -0.7935548  
N    0.0000000    0.0000000    0.0000000  
C   -2.4730813    0.0065397   -0.4408236  
C   -3.3971949    0.0173298   -1.4675053  
O   -4.7313511    0.0149489   -1.1793459  
C   -2.9763635    0.0305536   -2.8186319  
O   -4.0166455    0.0397857   -3.7247614  
C   -1.6418548    0.0336378   -3.1673479  
H    1.4178728    0.0310000   -2.9571213  
H   -2.8160170   -0.0039188    0.5845970  
H   -5.1938805    0.0234411   -2.0274374  
H   -3.6464652    0.0484778   -4.6127335  
H    2.1062467    0.0051380   -0.3505414  
C    1.5646737   -2.0539585   -5.3222158  
C    1.3414995   -1.5772749   -6.5740309  
C    0.2114761   -0.6825267   -6.4885401  
C   -0.2083898   -0.6769500   -5.0741596  
N    0.6518505   -1.5286026   -4.4202760  
C   -1.2456309    0.0472573   -4.5828763  
C   -1.9988803    0.8763982   -5.5089842  
O   -2.9500059    1.5653313   -5.1639731  
C   -1.5719451    0.8856018   -7.0114646  
O   -2.1988232    1.5795788   -7.8005657  
C   -0.4365477    0.0630298   -7.4214649  
H    1.9041474   -1.8243974   -7.4566243  
H   -0.1472040    0.0751535   -8.4635102  
H    2.3190580   -2.7450083   -4.9827392  
H    0.6224839   -1.7349940   -3.4386513  
C    2.5528530    2.1414826    2.8079335  
C    2.0663498    1.7338582    4.0032312  
C    0.9804344    0.8229586    3.6752840  
C    0.9495562    0.7966882    2.1971295  
N    1.8690446    1.5676019    1.6831036  
C    0.0000000    0.0000000    1.4700000  
C   -0.8785127   -0.7372425    2.1869543  
O   -1.8187535   -1.5261249    1.6395491  
C   -0.8723269   -0.7321790    3.6796354  
O   -1.7010379   -1.4274584    4.2670412  
C    0.1115397    0.0933559    4.4024240  
H    2.4028853    2.0163452    4.9860947  
H   -2.2861435   -1.9184361    2.3990168  
H    0.0832434    0.0693689    5.4835595  
H    3.3664920    2.8238276    2.6198634  
