48
38B 20A 21B 44 27 28 7 1 7 1 0 2 0 nosym
C    1.1243415    0.0099159   -0.7919008  
C    0.7474084    0.0234036   -2.1148547  
C   -0.6787372    0.0234950   -2.1414699  
C   -1.1201741    0.0099353   -0.7935545  
N    0.0000000    0.0000000    0.0000000  
C   -2.4730813    0.0065388   -0.4408235  
C   -3.3971951    0.0173288   -1.4675053  
O   -4.7313510    0.0149472   -1.1793456  
C   -2.9763637    0.0305528   -2.8186317  
O   -4.0166458    0.0397846   -3.7247611  
C   -1.6418550    0.0336375   -3.1673478  
H   -2.8160168   -0.0039199    0.5845974  
H   -5.1938811    0.0234395   -2.0274371  
H   -3.6464651    0.0484770   -4.6127333  
H   -1.3497452    0.0436785   -4.2109230  
H    2.1062467    0.0051388   -0.3505413  
C    2.8325099   -0.6837024   -3.3633899  
C    1.6628963    0.0337773   -3.2649305  
C    1.5246700    0.7730786   -4.4769235  
C    2.6494620    0.4636541   -5.2837855  
N    3.4243273   -0.4220915   -4.5769223  
C    2.8435991    1.0147375   -6.5539848  
C    1.8846451    1.8939701   -7.0182421  
O    2.0245188    2.4608233   -8.2519872  
C    0.7556089    2.2154756   -6.2278437  
O   -0.1087775    3.1064760   -6.8297557  
C    0.5635785    1.6724040   -4.9745586  
H    4.2835643   -0.8282058   -4.9005943  
H    3.6987770    0.7830874   -7.1738320  
H    1.2569322    3.0337395   -8.3778532  
H   -0.8432161    3.2699481   -6.2301887  
H   -0.3110362    1.9376811   -4.3921876  
H    3.2921329   -1.3602566   -2.6634038  
C    0.8175213    0.6860729    2.3021913  
C    0.0000000    0.0000000    1.4700000  
C   -0.8887526   -0.7456559    2.3478473  
C   -0.4549825   -0.3816753    3.7138435  
N    0.5448156    0.4573574    3.6934124  
C   -1.0945674   -0.9182058    4.8835240  
C   -2.1210866   -1.7789155    4.6970523  
O   -2.8083856   -2.3554314    5.6976972  
C   -2.5824069   -2.1655116    3.3310774  
O   -3.5227682   -2.9541547    3.2362962  
C   -1.9100805   -1.6015804    2.1470656  
H   -0.7567140   -0.6349833    5.8697035  
H   -3.4728268   -2.9124471    5.2533954  
H   -2.2742832   -1.9066565    1.1752040  
H    1.6189533    1.3585343    2.0405121  
